data_str_m2_o10_o18_pcu_sym.1
_audit_creation_date              2020-01-03
_audit_creation_method            'Materials Studio'
_symmetry_space_group_name_H-M    'P1'
_symmetry_Int_Tables_number       1
_symmetry_cell_setting            triclinic
loop_
_symmetry_equiv_pos_as_xyz
  x,y,z
_cell_length_a                    22.3085
_cell_length_b                    26.0836
_cell_length_c                    31.6858
_cell_angle_alpha                 94.2914
_cell_angle_beta                  75.0731
_cell_angle_gamma                 103.1320
loop_
_atom_site_label
_atom_site_type_symbol
_atom_site_fract_x
_atom_site_fract_y
_atom_site_fract_z
_atom_site_U_iso_or_equiv
_atom_site_adp_type
_atom_site_occupancy
C1     C     0.18169   0.26671   0.25130   0.00000  Uiso   1.00
C2     C     0.20531   0.17046   0.16689   0.00000  Uiso   1.00
C3     C     0.10465   0.15716   0.38064   0.00000  Uiso   1.00
C4     C     0.22868   0.17617   0.11936   0.00000  Uiso   1.00
C5     C     0.02424   0.12032   0.44401   0.00000  Uiso   1.00
C6     C     0.30909   0.21302   0.05599   0.00000  Uiso   1.00
C7     C     0.04208   0.13206   0.39976   0.00000  Uiso   1.00
C8     C     0.29125   0.20128   0.10024   0.00000  Uiso   1.00
C9     C     0.14816   0.17282   0.40651   0.00000  Uiso   1.00
C10    C     0.18518   0.16052   0.09349   0.00000  Uiso   1.00
C11    C     0.13174   0.16103   0.45118   0.00000  Uiso   1.00
C12    C     0.15164   0.06662   0.24870   0.00000  Uiso   1.00
C13    C     0.20159   0.17231   0.04882   0.00000  Uiso   1.00
C14    C     0.06865   0.13376   0.46957   0.00000  Uiso   1.00
C15    C     0.26468   0.19958   0.03043   0.00000  Uiso   1.00
C16    C     0.17640   0.17421   0.47766   0.00000  Uiso   1.00
C17    C     0.15693   0.15913   0.02234   0.00000  Uiso   1.00
C18    C     0.09347   0.13156   0.03901   0.00000  Uiso   1.00
C19    C     0.23985   0.20178   0.46099   0.00000  Uiso   1.00
C20    C     0.05049   0.11938   0.01312   0.00000  Uiso   1.00
C21    C     0.28284   0.21396   0.48688   0.00000  Uiso   1.00
C22    C     0.19016   0.32267   0.25193   0.00000  Uiso   1.00
C23    C     0.14318   0.01066   0.24807   0.00000  Uiso   1.00
C24    C     0.12803   0.16287   0.33311   0.00000  Uiso   1.00
Cu25   Cu    0.10737   0.16108   0.24516   0.00000  Uiso   1.00
Cu26   Cu    0.22596   0.17225   0.25483   0.00000  Uiso   1.00
H27    H     0.00241   0.09835   0.02742   0.00000  Uiso   1.00
H28    H     0.25856   0.21501   0.42791   0.00000  Uiso   1.00
H29    H     0.23544   0.01311   0.25557   0.00000  Uiso   1.00
H30    H     0.09789   0.32022   0.24443   0.00000  Uiso   1.00
H31    H     0.00133   0.20503   0.28441   0.00000  Uiso   1.00
H32    H     0.33201   0.12830   0.21559   0.00000  Uiso   1.00
H33    H     0.33092   0.23500   0.47259   0.00000  Uiso   1.00
H34    H     0.13811   0.14042   0.10966   0.00000  Uiso   1.00
H35    H     0.19522   0.19291   0.39034   0.00000  Uiso   1.00
H36    H     0.32557   0.21360   0.11973   0.00000  Uiso   1.00
H37    H     0.00776   0.11974   0.38027   0.00000  Uiso   1.00
H38    H     0.30920   0.09982   0.45813   0.00000  Uiso   1.00
H39    H     0.02413   0.23353   0.04187   0.00000  Uiso   1.00
H40    H     0.07477   0.11834   0.07209   0.00000  Uiso   1.00
N41    N     0.31506   0.18068   0.26212   0.00000  Uiso   1.00
N42    N     0.01827   0.15265   0.23788   0.00000  Uiso   1.00
O43    O     0.12815   0.23809   0.24686   0.00000  Uiso   1.00
O44    O     0.20518   0.09524   0.25314   0.00000  Uiso   1.00
O45    O     0.22829   0.24753   0.25502   0.00000  Uiso   1.00
O46    O     0.10504   0.08580   0.24497   0.00000  Uiso   1.00
O47    O     0.08851   0.15930   0.30854   0.00000  Uiso   1.00
O48    O     0.24482   0.17403   0.19145   0.00000  Uiso   1.00
O49    O     0.18866   0.16874   0.31671   0.00000  Uiso   1.00
O50    O     0.14468   0.16460   0.18329   0.00000  Uiso   1.00
C51    C     0.51502   0.26671   0.25130   0.00000  Uiso   1.00
C52    C     0.53864   0.17046   0.16689   0.00000  Uiso   1.00
C53    C     0.43799   0.15716   0.38064   0.00000  Uiso   1.00
C54    C     0.56201   0.17617   0.11936   0.00000  Uiso   1.00
C55    C     0.35757   0.12032   0.44401   0.00000  Uiso   1.00
C56    C     0.64243   0.21302   0.05599   0.00000  Uiso   1.00
C57    C     0.37542   0.13206   0.39976   0.00000  Uiso   1.00
C58    C     0.62458   0.20128   0.10024   0.00000  Uiso   1.00
C59    C     0.48149   0.17282   0.40651   0.00000  Uiso   1.00
C60    C     0.51851   0.16052   0.09349   0.00000  Uiso   1.00
C61    C     0.46508   0.16103   0.45118   0.00000  Uiso   1.00
C62    C     0.48498   0.06662   0.24870   0.00000  Uiso   1.00
C63    C     0.53492   0.17231   0.04882   0.00000  Uiso   1.00
C64    C     0.40198   0.13376   0.46957   0.00000  Uiso   1.00
C65    C     0.59801   0.19958   0.03043   0.00000  Uiso   1.00
C66    C     0.50973   0.17421   0.47766   0.00000  Uiso   1.00
C67    C     0.49027   0.15913   0.02234   0.00000  Uiso   1.00
C68    C     0.42681   0.13156   0.03901   0.00000  Uiso   1.00
C69    C     0.57319   0.20178   0.46099   0.00000  Uiso   1.00
C70    C     0.38383   0.11938   0.01312   0.00000  Uiso   1.00
C71    C     0.61617   0.21396   0.48688   0.00000  Uiso   1.00
C72    C     0.52349   0.32267   0.25193   0.00000  Uiso   1.00
C73    C     0.47651   0.01066   0.24807   0.00000  Uiso   1.00
C74    C     0.46136   0.16287   0.33311   0.00000  Uiso   1.00
Cu75   Cu    0.44071   0.16108   0.24516   0.00000  Uiso   1.00
Cu76   Cu    0.55929   0.17225   0.25483   0.00000  Uiso   1.00
H77    H     0.33574   0.09835   0.02742   0.00000  Uiso   1.00
H78    H     0.59189   0.21501   0.42791   0.00000  Uiso   1.00
H79    H     0.56877   0.01311   0.25557   0.00000  Uiso   1.00
H80    H     0.43123   0.32022   0.24443   0.00000  Uiso   1.00
H81    H     0.33466   0.20503   0.28441   0.00000  Uiso   1.00
H82    H     0.66534   0.12830   0.21559   0.00000  Uiso   1.00
H83    H     0.66425   0.23500   0.47259   0.00000  Uiso   1.00
H84    H     0.47144   0.14042   0.10966   0.00000  Uiso   1.00
H85    H     0.52856   0.19291   0.39034   0.00000  Uiso   1.00
H86    H     0.65890   0.21360   0.11973   0.00000  Uiso   1.00
H87    H     0.34109   0.11974   0.38027   0.00000  Uiso   1.00
H88    H     0.64254   0.09982   0.45813   0.00000  Uiso   1.00
H89    H     0.35746   0.23353   0.04187   0.00000  Uiso   1.00
H90    H     0.40810   0.11834   0.07209   0.00000  Uiso   1.00
N91    N     0.64839   0.18068   0.26212   0.00000  Uiso   1.00
N92    N     0.35161   0.15265   0.23788   0.00000  Uiso   1.00
O93    O     0.46148   0.23809   0.24686   0.00000  Uiso   1.00
O94    O     0.53852   0.09524   0.25314   0.00000  Uiso   1.00
O95    O     0.56163   0.24753   0.25502   0.00000  Uiso   1.00
O96    O     0.43837   0.08580   0.24497   0.00000  Uiso   1.00
O97    O     0.42185   0.15930   0.30854   0.00000  Uiso   1.00
O98    O     0.57815   0.17403   0.19145   0.00000  Uiso   1.00
O99    O     0.52199   0.16874   0.31671   0.00000  Uiso   1.00
O100   O     0.47801   0.16460   0.18329   0.00000  Uiso   1.00
C101   C     0.84836   0.26671   0.25130   0.00000  Uiso   1.00
C102   C     0.87197   0.17046   0.16689   0.00000  Uiso   1.00
C103   C     0.77132   0.15716   0.38064   0.00000  Uiso   1.00
C104   C     0.89534   0.17617   0.11936   0.00000  Uiso   1.00
C105   C     0.69090   0.12032   0.44401   0.00000  Uiso   1.00
C106   C     0.97576   0.21302   0.05599   0.00000  Uiso   1.00
C107   C     0.70875   0.13206   0.39976   0.00000  Uiso   1.00
C108   C     0.95791   0.20128   0.10024   0.00000  Uiso   1.00
C109   C     0.81482   0.17282   0.40651   0.00000  Uiso   1.00
C110   C     0.85184   0.16052   0.09349   0.00000  Uiso   1.00
C111   C     0.79841   0.16103   0.45118   0.00000  Uiso   1.00
C112   C     0.81831   0.06662   0.24870   0.00000  Uiso   1.00
C113   C     0.86825   0.17231   0.04882   0.00000  Uiso   1.00
C114   C     0.73532   0.13376   0.46957   0.00000  Uiso   1.00
C115   C     0.93135   0.19958   0.03043   0.00000  Uiso   1.00
C116   C     0.84306   0.17421   0.47766   0.00000  Uiso   1.00
C117   C     0.82360   0.15913   0.02234   0.00000  Uiso   1.00
C118   C     0.76014   0.13156   0.03901   0.00000  Uiso   1.00
C119   C     0.90652   0.20178   0.46099   0.00000  Uiso   1.00
C120   C     0.71716   0.11938   0.01312   0.00000  Uiso   1.00
C121   C     0.94950   0.21396   0.48688   0.00000  Uiso   1.00
C122   C     0.85682   0.32267   0.25193   0.00000  Uiso   1.00
C123   C     0.80984   0.01066   0.24807   0.00000  Uiso   1.00
C124   C     0.79469   0.16287   0.33311   0.00000  Uiso   1.00
Cu125  Cu    0.77404   0.16108   0.24516   0.00000  Uiso   1.00
Cu126  Cu    0.89263   0.17225   0.25483   0.00000  Uiso   1.00
H127   H     0.66908   0.09835   0.02742   0.00000  Uiso   1.00
H128   H     0.92522   0.21501   0.42791   0.00000  Uiso   1.00
H129   H     0.90211   0.01311   0.25557   0.00000  Uiso   1.00
H130   H     0.76456   0.32022   0.24443   0.00000  Uiso   1.00
H131   H     0.66799   0.20503   0.28441   0.00000  Uiso   1.00
H132   H     0.99867   0.12830   0.21559   0.00000  Uiso   1.00
H133   H     0.99759   0.23500   0.47259   0.00000  Uiso   1.00
H134   H     0.80478   0.14042   0.10966   0.00000  Uiso   1.00
H135   H     0.86189   0.19291   0.39034   0.00000  Uiso   1.00
H136   H     0.99224   0.21360   0.11973   0.00000  Uiso   1.00
H137   H     0.67443   0.11974   0.38027   0.00000  Uiso   1.00
H138   H     0.97587   0.09982   0.45813   0.00000  Uiso   1.00
H139   H     0.69079   0.23353   0.04187   0.00000  Uiso   1.00
H140   H     0.74144   0.11834   0.07209   0.00000  Uiso   1.00
N141   N     0.98173   0.18068   0.26212   0.00000  Uiso   1.00
N142   N     0.68494   0.15265   0.23788   0.00000  Uiso   1.00
O143   O     0.79482   0.23809   0.24686   0.00000  Uiso   1.00
O144   O     0.87185   0.09524   0.25314   0.00000  Uiso   1.00
O145   O     0.89496   0.24753   0.25502   0.00000  Uiso   1.00
O146   O     0.77171   0.08580   0.24497   0.00000  Uiso   1.00
O147   O     0.75518   0.15930   0.30854   0.00000  Uiso   1.00
O148   O     0.91149   0.17403   0.19145   0.00000  Uiso   1.00
O149   O     0.85532   0.16874   0.31671   0.00000  Uiso   1.00
O150   O     0.81134   0.16460   0.18329   0.00000  Uiso   1.00
C151   C     0.18169   0.60005   0.25130   0.00000  Uiso   1.00
C152   C     0.20531   0.50379   0.16689   0.00000  Uiso   1.00
C153   C     0.10465   0.49050   0.38064   0.00000  Uiso   1.00
C154   C     0.22868   0.50950   0.11936   0.00000  Uiso   1.00
C155   C     0.02424   0.45365   0.44401   0.00000  Uiso   1.00
C156   C     0.30909   0.54636   0.05599   0.00000  Uiso   1.00
C157   C     0.04208   0.46539   0.39976   0.00000  Uiso   1.00
C158   C     0.29125   0.53461   0.10024   0.00000  Uiso   1.00
C159   C     0.14816   0.50615   0.40651   0.00000  Uiso   1.00
C160   C     0.18518   0.49385   0.09349   0.00000  Uiso   1.00
C161   C     0.13174   0.49436   0.45118   0.00000  Uiso   1.00
C162   C     0.15164   0.39995   0.24870   0.00000  Uiso   1.00
C163   C     0.20159   0.50564   0.04882   0.00000  Uiso   1.00
C164   C     0.06865   0.46709   0.46957   0.00000  Uiso   1.00
C165   C     0.26468   0.53291   0.03043   0.00000  Uiso   1.00
C166   C     0.17640   0.50755   0.47766   0.00000  Uiso   1.00
C167   C     0.15693   0.49246   0.02234   0.00000  Uiso   1.00
C168   C     0.09347   0.46489   0.03901   0.00000  Uiso   1.00
C169   C     0.23985   0.53512   0.46099   0.00000  Uiso   1.00
C170   C     0.05049   0.45272   0.01312   0.00000  Uiso   1.00
C171   C     0.28284   0.54729   0.48688   0.00000  Uiso   1.00
C172   C     0.19016   0.65601   0.25193   0.00000  Uiso   1.00
C173   C     0.14318   0.34399   0.24807   0.00000  Uiso   1.00
C174   C     0.12803   0.49621   0.33311   0.00000  Uiso   1.00
Cu175  Cu    0.10737   0.49441   0.24516   0.00000  Uiso   1.00
Cu176  Cu    0.22596   0.50559   0.25483   0.00000  Uiso   1.00
H177   H     0.00241   0.43168   0.02742   0.00000  Uiso   1.00
H178   H     0.25856   0.54834   0.42791   0.00000  Uiso   1.00
H179   H     0.23544   0.34644   0.25557   0.00000  Uiso   1.00
H180   H     0.09789   0.65356   0.24443   0.00000  Uiso   1.00
H181   H     0.00133   0.53837   0.28441   0.00000  Uiso   1.00
H182   H     0.33201   0.46163   0.21559   0.00000  Uiso   1.00
H183   H     0.33092   0.56833   0.47259   0.00000  Uiso   1.00
H184   H     0.13811   0.47375   0.10966   0.00000  Uiso   1.00
H185   H     0.19522   0.52625   0.39034   0.00000  Uiso   1.00
H186   H     0.32557   0.54693   0.11973   0.00000  Uiso   1.00
H187   H     0.00776   0.45307   0.38027   0.00000  Uiso   1.00
H188   H     0.30920   0.43315   0.45813   0.00000  Uiso   1.00
H189   H     0.02413   0.56686   0.04187   0.00000  Uiso   1.00
H190   H     0.07477   0.45167   0.07209   0.00000  Uiso   1.00
N191   N     0.31506   0.51401   0.26212   0.00000  Uiso   1.00
N192   N     0.01827   0.48599   0.23788   0.00000  Uiso   1.00
O193   O     0.12815   0.57142   0.24686   0.00000  Uiso   1.00
O194   O     0.20518   0.42858   0.25314   0.00000  Uiso   1.00
O195   O     0.22829   0.58086   0.25502   0.00000  Uiso   1.00
O196   O     0.10504   0.41914   0.24497   0.00000  Uiso   1.00
O197   O     0.08851   0.49263   0.30854   0.00000  Uiso   1.00
O198   O     0.24482   0.50737   0.19145   0.00000  Uiso   1.00
O199   O     0.18866   0.50207   0.31671   0.00000  Uiso   1.00
O200   O     0.14468   0.49793   0.18329   0.00000  Uiso   1.00
C201   C     0.51502   0.60005   0.25130   0.00000  Uiso   1.00
C202   C     0.53864   0.50379   0.16689   0.00000  Uiso   1.00
C203   C     0.43799   0.49050   0.38064   0.00000  Uiso   1.00
C204   C     0.56201   0.50950   0.11936   0.00000  Uiso   1.00
C205   C     0.35757   0.45365   0.44401   0.00000  Uiso   1.00
C206   C     0.64243   0.54636   0.05599   0.00000  Uiso   1.00
C207   C     0.37542   0.46539   0.39976   0.00000  Uiso   1.00
C208   C     0.62458   0.53461   0.10024   0.00000  Uiso   1.00
C209   C     0.48149   0.50615   0.40651   0.00000  Uiso   1.00
C210   C     0.51851   0.49385   0.09349   0.00000  Uiso   1.00
C211   C     0.46508   0.49436   0.45118   0.00000  Uiso   1.00
C212   C     0.48498   0.39995   0.24870   0.00000  Uiso   1.00
C213   C     0.53492   0.50564   0.04882   0.00000  Uiso   1.00
C214   C     0.40198   0.46709   0.46957   0.00000  Uiso   1.00
C215   C     0.59801   0.53291   0.03043   0.00000  Uiso   1.00
C216   C     0.50973   0.50755   0.47766   0.00000  Uiso   1.00
C217   C     0.49027   0.49246   0.02234   0.00000  Uiso   1.00
C218   C     0.42681   0.46489   0.03901   0.00000  Uiso   1.00
C219   C     0.57319   0.53512   0.46099   0.00000  Uiso   1.00
C220   C     0.38383   0.45272   0.01312   0.00000  Uiso   1.00
C221   C     0.61617   0.54729   0.48688   0.00000  Uiso   1.00
C222   C     0.52349   0.65601   0.25193   0.00000  Uiso   1.00
C223   C     0.47651   0.34399   0.24807   0.00000  Uiso   1.00
C224   C     0.46136   0.49621   0.33311   0.00000  Uiso   1.00
Cu225  Cu    0.44071   0.49441   0.24516   0.00000  Uiso   1.00
Cu226  Cu    0.55929   0.50559   0.25483   0.00000  Uiso   1.00
H227   H     0.33574   0.43168   0.02742   0.00000  Uiso   1.00
H228   H     0.59189   0.54834   0.42791   0.00000  Uiso   1.00
H229   H     0.56877   0.34644   0.25557   0.00000  Uiso   1.00
H230   H     0.43123   0.65356   0.24443   0.00000  Uiso   1.00
H231   H     0.33466   0.53837   0.28441   0.00000  Uiso   1.00
H232   H     0.66534   0.46163   0.21559   0.00000  Uiso   1.00
H233   H     0.66425   0.56833   0.47259   0.00000  Uiso   1.00
H234   H     0.47144   0.47375   0.10966   0.00000  Uiso   1.00
H235   H     0.52856   0.52625   0.39034   0.00000  Uiso   1.00
H236   H     0.65890   0.54693   0.11973   0.00000  Uiso   1.00
H237   H     0.34109   0.45307   0.38027   0.00000  Uiso   1.00
H238   H     0.64254   0.43315   0.45813   0.00000  Uiso   1.00
H239   H     0.35746   0.56686   0.04187   0.00000  Uiso   1.00
H240   H     0.40810   0.45167   0.07209   0.00000  Uiso   1.00
N241   N     0.64839   0.51401   0.26212   0.00000  Uiso   1.00
N242   N     0.35161   0.48599   0.23788   0.00000  Uiso   1.00
O243   O     0.46148   0.57142   0.24686   0.00000  Uiso   1.00
O244   O     0.53852   0.42858   0.25314   0.00000  Uiso   1.00
O245   O     0.56163   0.58086   0.25502   0.00000  Uiso   1.00
O246   O     0.43837   0.41914   0.24497   0.00000  Uiso   1.00
O247   O     0.42185   0.49263   0.30854   0.00000  Uiso   1.00
O248   O     0.57815   0.50737   0.19145   0.00000  Uiso   1.00
O249   O     0.52199   0.50207   0.31671   0.00000  Uiso   1.00
O250   O     0.47801   0.49793   0.18329   0.00000  Uiso   1.00
C251   C     0.84836   0.60005   0.25130   0.00000  Uiso   1.00
C252   C     0.87197   0.50379   0.16689   0.00000  Uiso   1.00
C253   C     0.77132   0.49050   0.38064   0.00000  Uiso   1.00
C254   C     0.89534   0.50950   0.11936   0.00000  Uiso   1.00
C255   C     0.69090   0.45365   0.44401   0.00000  Uiso   1.00
C256   C     0.97576   0.54636   0.05599   0.00000  Uiso   1.00
C257   C     0.70875   0.46539   0.39976   0.00000  Uiso   1.00
C258   C     0.95791   0.53461   0.10024   0.00000  Uiso   1.00
C259   C     0.81482   0.50615   0.40651   0.00000  Uiso   1.00
C260   C     0.85184   0.49385   0.09349   0.00000  Uiso   1.00
C261   C     0.79841   0.49436   0.45118   0.00000  Uiso   1.00
C262   C     0.81831   0.39995   0.24870   0.00000  Uiso   1.00
C263   C     0.86825   0.50564   0.04882   0.00000  Uiso   1.00
C264   C     0.73532   0.46709   0.46957   0.00000  Uiso   1.00
C265   C     0.93135   0.53291   0.03043   0.00000  Uiso   1.00
C266   C     0.84306   0.50755   0.47766   0.00000  Uiso   1.00
C267   C     0.82360   0.49246   0.02234   0.00000  Uiso   1.00
C268   C     0.76014   0.46489   0.03901   0.00000  Uiso   1.00
C269   C     0.90652   0.53512   0.46099   0.00000  Uiso   1.00
C270   C     0.71716   0.45272   0.01312   0.00000  Uiso   1.00
C271   C     0.94950   0.54729   0.48688   0.00000  Uiso   1.00
C272   C     0.85682   0.65601   0.25193   0.00000  Uiso   1.00
C273   C     0.80984   0.34399   0.24807   0.00000  Uiso   1.00
C274   C     0.79469   0.49621   0.33311   0.00000  Uiso   1.00
Cu275  Cu    0.77404   0.49441   0.24516   0.00000  Uiso   1.00
Cu276  Cu    0.89263   0.50559   0.25483   0.00000  Uiso   1.00
H277   H     0.66908   0.43168   0.02742   0.00000  Uiso   1.00
H278   H     0.92522   0.54834   0.42791   0.00000  Uiso   1.00
H279   H     0.90211   0.34644   0.25557   0.00000  Uiso   1.00
H280   H     0.76456   0.65356   0.24443   0.00000  Uiso   1.00
H281   H     0.66799   0.53837   0.28441   0.00000  Uiso   1.00
H282   H     0.99867   0.46163   0.21559   0.00000  Uiso   1.00
H283   H     0.99759   0.56833   0.47259   0.00000  Uiso   1.00
H284   H     0.80478   0.47375   0.10966   0.00000  Uiso   1.00
H285   H     0.86189   0.52625   0.39034   0.00000  Uiso   1.00
H286   H     0.99224   0.54693   0.11973   0.00000  Uiso   1.00
H287   H     0.67443   0.45307   0.38027   0.00000  Uiso   1.00
H288   H     0.97587   0.43315   0.45813   0.00000  Uiso   1.00
H289   H     0.69079   0.56686   0.04187   0.00000  Uiso   1.00
H290   H     0.74144   0.45167   0.07209   0.00000  Uiso   1.00
N291   N     0.98173   0.51401   0.26212   0.00000  Uiso   1.00
N292   N     0.68494   0.48599   0.23788   0.00000  Uiso   1.00
O293   O     0.79482   0.57142   0.24686   0.00000  Uiso   1.00
O294   O     0.87185   0.42858   0.25314   0.00000  Uiso   1.00
O295   O     0.89496   0.58086   0.25502   0.00000  Uiso   1.00
O296   O     0.77171   0.41914   0.24497   0.00000  Uiso   1.00
O297   O     0.75518   0.49263   0.30854   0.00000  Uiso   1.00
O298   O     0.91149   0.50737   0.19145   0.00000  Uiso   1.00
O299   O     0.85532   0.50207   0.31671   0.00000  Uiso   1.00
O300   O     0.81134   0.49793   0.18329   0.00000  Uiso   1.00
C301   C     0.18169   0.93338   0.25130   0.00000  Uiso   1.00
C302   C     0.20531   0.83713   0.16689   0.00000  Uiso   1.00
C303   C     0.10465   0.82383   0.38064   0.00000  Uiso   1.00
C304   C     0.22868   0.84284   0.11936   0.00000  Uiso   1.00
C305   C     0.02424   0.78698   0.44401   0.00000  Uiso   1.00
C306   C     0.30909   0.87969   0.05599   0.00000  Uiso   1.00
C307   C     0.04208   0.79873   0.39976   0.00000  Uiso   1.00
C308   C     0.29125   0.86794   0.10024   0.00000  Uiso   1.00
C309   C     0.14816   0.83948   0.40651   0.00000  Uiso   1.00
C310   C     0.18518   0.82718   0.09349   0.00000  Uiso   1.00
C311   C     0.13174   0.82770   0.45118   0.00000  Uiso   1.00
C312   C     0.15164   0.73329   0.24870   0.00000  Uiso   1.00
C313   C     0.20159   0.83897   0.04882   0.00000  Uiso   1.00
C314   C     0.06865   0.80043   0.46957   0.00000  Uiso   1.00
C315   C     0.26468   0.86625   0.03043   0.00000  Uiso   1.00
C316   C     0.17640   0.84088   0.47766   0.00000  Uiso   1.00
C317   C     0.15693   0.82579   0.02234   0.00000  Uiso   1.00
C318   C     0.09347   0.79822   0.03901   0.00000  Uiso   1.00
C319   C     0.23985   0.86845   0.46099   0.00000  Uiso   1.00
C320   C     0.05049   0.78605   0.01312   0.00000  Uiso   1.00
C321   C     0.28284   0.88063   0.48688   0.00000  Uiso   1.00
C322   C     0.19016   0.98934   0.25193   0.00000  Uiso   1.00
C323   C     0.14318   0.67733   0.24807   0.00000  Uiso   1.00
C324   C     0.12803   0.82954   0.33311   0.00000  Uiso   1.00
Cu325  Cu    0.10737   0.82775   0.24516   0.00000  Uiso   1.00
Cu326  Cu    0.22596   0.83892   0.25483   0.00000  Uiso   1.00
H327   H     0.00241   0.76501   0.02742   0.00000  Uiso   1.00
H328   H     0.25856   0.88167   0.42791   0.00000  Uiso   1.00
H329   H     0.23544   0.67978   0.25557   0.00000  Uiso   1.00
H330   H     0.09789   0.98689   0.24443   0.00000  Uiso   1.00
H331   H     0.00133   0.87170   0.28441   0.00000  Uiso   1.00
H332   H     0.33201   0.79497   0.21559   0.00000  Uiso   1.00
H333   H     0.33092   0.90167   0.47259   0.00000  Uiso   1.00
H334   H     0.13811   0.80708   0.10966   0.00000  Uiso   1.00
H335   H     0.19522   0.85958   0.39034   0.00000  Uiso   1.00
H336   H     0.32557   0.88027   0.11973   0.00000  Uiso   1.00
H337   H     0.00776   0.78641   0.38027   0.00000  Uiso   1.00
H338   H     0.30920   0.76648   0.45813   0.00000  Uiso   1.00
H339   H     0.02413   0.90019   0.04187   0.00000  Uiso   1.00
H340   H     0.07477   0.78501   0.07209   0.00000  Uiso   1.00
N341   N     0.31506   0.84735   0.26212   0.00000  Uiso   1.00
N342   N     0.01827   0.81932   0.23788   0.00000  Uiso   1.00
O343   O     0.12815   0.90476   0.24686   0.00000  Uiso   1.00
O344   O     0.20518   0.76191   0.25314   0.00000  Uiso   1.00
O345   O     0.22829   0.91420   0.25502   0.00000  Uiso   1.00
O346   O     0.10504   0.75247   0.24497   0.00000  Uiso   1.00
O347   O     0.08851   0.82597   0.30854   0.00000  Uiso   1.00
O348   O     0.24482   0.84070   0.19145   0.00000  Uiso   1.00
O349   O     0.18866   0.83540   0.31671   0.00000  Uiso   1.00
O350   O     0.14468   0.83126   0.18329   0.00000  Uiso   1.00
C351   C     0.51502   0.93338   0.25130   0.00000  Uiso   1.00
C352   C     0.53864   0.83713   0.16689   0.00000  Uiso   1.00
C353   C     0.43799   0.82383   0.38064   0.00000  Uiso   1.00
C354   C     0.56201   0.84284   0.11936   0.00000  Uiso   1.00
C355   C     0.35757   0.78698   0.44401   0.00000  Uiso   1.00
C356   C     0.64243   0.87969   0.05599   0.00000  Uiso   1.00
C357   C     0.37542   0.79873   0.39976   0.00000  Uiso   1.00
C358   C     0.62458   0.86794   0.10024   0.00000  Uiso   1.00
C359   C     0.48149   0.83948   0.40651   0.00000  Uiso   1.00
C360   C     0.51851   0.82718   0.09349   0.00000  Uiso   1.00
C361   C     0.46508   0.82770   0.45118   0.00000  Uiso   1.00
C362   C     0.48498   0.73329   0.24870   0.00000  Uiso   1.00
C363   C     0.53492   0.83897   0.04882   0.00000  Uiso   1.00
C364   C     0.40198   0.80043   0.46957   0.00000  Uiso   1.00
C365   C     0.59801   0.86625   0.03043   0.00000  Uiso   1.00
C366   C     0.50973   0.84088   0.47766   0.00000  Uiso   1.00
C367   C     0.49027   0.82579   0.02234   0.00000  Uiso   1.00
C368   C     0.42681   0.79822   0.03901   0.00000  Uiso   1.00
C369   C     0.57319   0.86845   0.46099   0.00000  Uiso   1.00
C370   C     0.38383   0.78605   0.01312   0.00000  Uiso   1.00
C371   C     0.61617   0.88063   0.48688   0.00000  Uiso   1.00
C372   C     0.52349   0.98934   0.25193   0.00000  Uiso   1.00
C373   C     0.47651   0.67733   0.24807   0.00000  Uiso   1.00
C374   C     0.46136   0.82954   0.33311   0.00000  Uiso   1.00
Cu375  Cu    0.44071   0.82775   0.24516   0.00000  Uiso   1.00
Cu376  Cu    0.55929   0.83892   0.25483   0.00000  Uiso   1.00
H377   H     0.33574   0.76501   0.02742   0.00000  Uiso   1.00
H378   H     0.59189   0.88167   0.42791   0.00000  Uiso   1.00
H379   H     0.56877   0.67978   0.25557   0.00000  Uiso   1.00
H380   H     0.43123   0.98689   0.24443   0.00000  Uiso   1.00
H381   H     0.33466   0.87170   0.28441   0.00000  Uiso   1.00
H382   H     0.66534   0.79497   0.21559   0.00000  Uiso   1.00
H383   H     0.66425   0.90167   0.47259   0.00000  Uiso   1.00
H384   H     0.47144   0.80708   0.10966   0.00000  Uiso   1.00
H385   H     0.52856   0.85958   0.39034   0.00000  Uiso   1.00
H386   H     0.65890   0.88027   0.11973   0.00000  Uiso   1.00
H387   H     0.34109   0.78641   0.38027   0.00000  Uiso   1.00
H388   H     0.64254   0.76648   0.45813   0.00000  Uiso   1.00
H389   H     0.35746   0.90019   0.04187   0.00000  Uiso   1.00
H390   H     0.40810   0.78501   0.07209   0.00000  Uiso   1.00
N391   N     0.64839   0.84735   0.26212   0.00000  Uiso   1.00
N392   N     0.35161   0.81932   0.23788   0.00000  Uiso   1.00
O393   O     0.46148   0.90476   0.24686   0.00000  Uiso   1.00
O394   O     0.53852   0.76191   0.25314   0.00000  Uiso   1.00
O395   O     0.56163   0.91420   0.25502   0.00000  Uiso   1.00
O396   O     0.43837   0.75247   0.24497   0.00000  Uiso   1.00
O397   O     0.42185   0.82597   0.30854   0.00000  Uiso   1.00
O398   O     0.57815   0.84070   0.19145   0.00000  Uiso   1.00
O399   O     0.52199   0.83540   0.31671   0.00000  Uiso   1.00
O400   O     0.47801   0.83126   0.18329   0.00000  Uiso   1.00
C401   C     0.84836   0.93338   0.25130   0.00000  Uiso   1.00
C402   C     0.87197   0.83713   0.16689   0.00000  Uiso   1.00
C403   C     0.77132   0.82383   0.38064   0.00000  Uiso   1.00
C404   C     0.89534   0.84284   0.11936   0.00000  Uiso   1.00
C405   C     0.69090   0.78698   0.44401   0.00000  Uiso   1.00
C406   C     0.97576   0.87969   0.05599   0.00000  Uiso   1.00
C407   C     0.70875   0.79873   0.39976   0.00000  Uiso   1.00
C408   C     0.95791   0.86794   0.10024   0.00000  Uiso   1.00
C409   C     0.81482   0.83948   0.40651   0.00000  Uiso   1.00
C410   C     0.85184   0.82718   0.09349   0.00000  Uiso   1.00
C411   C     0.79841   0.82770   0.45118   0.00000  Uiso   1.00
C412   C     0.81831   0.73329   0.24870   0.00000  Uiso   1.00
C413   C     0.86825   0.83897   0.04882   0.00000  Uiso   1.00
C414   C     0.73532   0.80043   0.46957   0.00000  Uiso   1.00
C415   C     0.93135   0.86625   0.03043   0.00000  Uiso   1.00
C416   C     0.84306   0.84088   0.47766   0.00000  Uiso   1.00
C417   C     0.82360   0.82579   0.02234   0.00000  Uiso   1.00
C418   C     0.76014   0.79822   0.03901   0.00000  Uiso   1.00
C419   C     0.90652   0.86845   0.46099   0.00000  Uiso   1.00
C420   C     0.71716   0.78605   0.01312   0.00000  Uiso   1.00
C421   C     0.94950   0.88063   0.48688   0.00000  Uiso   1.00
C422   C     0.85682   0.98934   0.25193   0.00000  Uiso   1.00
C423   C     0.80984   0.67733   0.24807   0.00000  Uiso   1.00
C424   C     0.79469   0.82954   0.33311   0.00000  Uiso   1.00
Cu425  Cu    0.77404   0.82775   0.24516   0.00000  Uiso   1.00
Cu426  Cu    0.89263   0.83892   0.25483   0.00000  Uiso   1.00
H427   H     0.66908   0.76501   0.02742   0.00000  Uiso   1.00
H428   H     0.92522   0.88167   0.42791   0.00000  Uiso   1.00
H429   H     0.90211   0.67978   0.25557   0.00000  Uiso   1.00
H430   H     0.76456   0.98689   0.24443   0.00000  Uiso   1.00
H431   H     0.66799   0.87170   0.28441   0.00000  Uiso   1.00
H432   H     0.99867   0.79497   0.21559   0.00000  Uiso   1.00
H433   H     0.99759   0.90167   0.47259   0.00000  Uiso   1.00
H434   H     0.80478   0.80708   0.10966   0.00000  Uiso   1.00
H435   H     0.86189   0.85958   0.39034   0.00000  Uiso   1.00
H436   H     0.99224   0.88027   0.11973   0.00000  Uiso   1.00
H437   H     0.67443   0.78641   0.38027   0.00000  Uiso   1.00
H438   H     0.97587   0.76648   0.45813   0.00000  Uiso   1.00
H439   H     0.69079   0.90019   0.04187   0.00000  Uiso   1.00
H440   H     0.74144   0.78501   0.07209   0.00000  Uiso   1.00
N441   N     0.98173   0.84735   0.26212   0.00000  Uiso   1.00
N442   N     0.68494   0.81932   0.23788   0.00000  Uiso   1.00
O443   O     0.79482   0.90476   0.24686   0.00000  Uiso   1.00
O444   O     0.87185   0.76191   0.25314   0.00000  Uiso   1.00
O445   O     0.89496   0.91420   0.25502   0.00000  Uiso   1.00
O446   O     0.77171   0.75247   0.24497   0.00000  Uiso   1.00
O447   O     0.75518   0.82597   0.30854   0.00000  Uiso   1.00
O448   O     0.91149   0.84070   0.19145   0.00000  Uiso   1.00
O449   O     0.85532   0.83540   0.31671   0.00000  Uiso   1.00
O450   O     0.81134   0.83126   0.18329   0.00000  Uiso   1.00
C451   C     0.18169   0.26671   0.75130   0.00000  Uiso   1.00
C452   C     0.20531   0.17046   0.66689   0.00000  Uiso   1.00
C453   C     0.10465   0.15716   0.88064   0.00000  Uiso   1.00
C454   C     0.22868   0.17617   0.61936   0.00000  Uiso   1.00
C455   C     0.02424   0.12032   0.94401   0.00000  Uiso   1.00
C456   C     0.30909   0.21302   0.55599   0.00000  Uiso   1.00
C457   C     0.04208   0.13206   0.89976   0.00000  Uiso   1.00
C458   C     0.29125   0.20128   0.60024   0.00000  Uiso   1.00
C459   C     0.14816   0.17282   0.90651   0.00000  Uiso   1.00
C460   C     0.18518   0.16052   0.59349   0.00000  Uiso   1.00
C461   C     0.13174   0.16103   0.95118   0.00000  Uiso   1.00
C462   C     0.15164   0.06662   0.74870   0.00000  Uiso   1.00
C463   C     0.20159   0.17231   0.54882   0.00000  Uiso   1.00
C464   C     0.06865   0.13376   0.96957   0.00000  Uiso   1.00
C465   C     0.26468   0.19958   0.53043   0.00000  Uiso   1.00
C466   C     0.17640   0.17421   0.97766   0.00000  Uiso   1.00
C467   C     0.15693   0.15913   0.52234   0.00000  Uiso   1.00
C468   C     0.09347   0.13156   0.53901   0.00000  Uiso   1.00
C469   C     0.23985   0.20178   0.96099   0.00000  Uiso   1.00
C470   C     0.05049   0.11938   0.51312   0.00000  Uiso   1.00
C471   C     0.28284   0.21396   0.98688   0.00000  Uiso   1.00
C472   C     0.19016   0.32267   0.75193   0.00000  Uiso   1.00
C473   C     0.14318   0.01066   0.74807   0.00000  Uiso   1.00
C474   C     0.12803   0.16287   0.83311   0.00000  Uiso   1.00
Cu475  Cu    0.10737   0.16108   0.74516   0.00000  Uiso   1.00
Cu476  Cu    0.22596   0.17225   0.75483   0.00000  Uiso   1.00
H477   H     0.00241   0.09835   0.52742   0.00000  Uiso   1.00
H478   H     0.25856   0.21501   0.92791   0.00000  Uiso   1.00
H479   H     0.23544   0.01311   0.75557   0.00000  Uiso   1.00
H480   H     0.09789   0.32022   0.74443   0.00000  Uiso   1.00
H481   H     0.00133   0.20503   0.78441   0.00000  Uiso   1.00
H482   H     0.33201   0.12830   0.71559   0.00000  Uiso   1.00
H483   H     0.33092   0.23500   0.97259   0.00000  Uiso   1.00
H484   H     0.13811   0.14042   0.60966   0.00000  Uiso   1.00
H485   H     0.19522   0.19291   0.89034   0.00000  Uiso   1.00
H486   H     0.32557   0.21360   0.61973   0.00000  Uiso   1.00
H487   H     0.00776   0.11974   0.88027   0.00000  Uiso   1.00
H488   H     0.30920   0.09982   0.95813   0.00000  Uiso   1.00
H489   H     0.02413   0.23353   0.54187   0.00000  Uiso   1.00
H490   H     0.07477   0.11834   0.57209   0.00000  Uiso   1.00
N491   N     0.31506   0.18068   0.76212   0.00000  Uiso   1.00
N492   N     0.01827   0.15265   0.73788   0.00000  Uiso   1.00
O493   O     0.12815   0.23809   0.74686   0.00000  Uiso   1.00
O494   O     0.20518   0.09524   0.75314   0.00000  Uiso   1.00
O495   O     0.22829   0.24753   0.75502   0.00000  Uiso   1.00
O496   O     0.10504   0.08580   0.74497   0.00000  Uiso   1.00
O497   O     0.08851   0.15930   0.80854   0.00000  Uiso   1.00
O498   O     0.24482   0.17403   0.69145   0.00000  Uiso   1.00
O499   O     0.18866   0.16874   0.81671   0.00000  Uiso   1.00
O500   O     0.14468   0.16460   0.68329   0.00000  Uiso   1.00
C501   C     0.51502   0.26671   0.75130   0.00000  Uiso   1.00
C502   C     0.53864   0.17046   0.66689   0.00000  Uiso   1.00
C503   C     0.43799   0.15716   0.88064   0.00000  Uiso   1.00
C504   C     0.56201   0.17617   0.61936   0.00000  Uiso   1.00
C505   C     0.35757   0.12032   0.94401   0.00000  Uiso   1.00
C506   C     0.64243   0.21302   0.55599   0.00000  Uiso   1.00
C507   C     0.37542   0.13206   0.89976   0.00000  Uiso   1.00
C508   C     0.62458   0.20128   0.60024   0.00000  Uiso   1.00
C509   C     0.48149   0.17282   0.90651   0.00000  Uiso   1.00
C510   C     0.51851   0.16052   0.59349   0.00000  Uiso   1.00
C511   C     0.46508   0.16103   0.95118   0.00000  Uiso   1.00
C512   C     0.48498   0.06662   0.74870   0.00000  Uiso   1.00
C513   C     0.53492   0.17231   0.54882   0.00000  Uiso   1.00
C514   C     0.40198   0.13376   0.96957   0.00000  Uiso   1.00
C515   C     0.59801   0.19958   0.53043   0.00000  Uiso   1.00
C516   C     0.50973   0.17421   0.97766   0.00000  Uiso   1.00
C517   C     0.49027   0.15913   0.52234   0.00000  Uiso   1.00
C518   C     0.42681   0.13156   0.53901   0.00000  Uiso   1.00
C519   C     0.57319   0.20178   0.96099   0.00000  Uiso   1.00
C520   C     0.38383   0.11938   0.51312   0.00000  Uiso   1.00
C521   C     0.61617   0.21396   0.98688   0.00000  Uiso   1.00
C522   C     0.52349   0.32267   0.75193   0.00000  Uiso   1.00
C523   C     0.47651   0.01066   0.74807   0.00000  Uiso   1.00
C524   C     0.46136   0.16287   0.83311   0.00000  Uiso   1.00
Cu525  Cu    0.44071   0.16108   0.74516   0.00000  Uiso   1.00
Cu526  Cu    0.55929   0.17225   0.75483   0.00000  Uiso   1.00
H527   H     0.33574   0.09835   0.52742   0.00000  Uiso   1.00
H528   H     0.59189   0.21501   0.92791   0.00000  Uiso   1.00
H529   H     0.56877   0.01311   0.75557   0.00000  Uiso   1.00
H530   H     0.43123   0.32022   0.74443   0.00000  Uiso   1.00
H531   H     0.33466   0.20503   0.78441   0.00000  Uiso   1.00
H532   H     0.66534   0.12830   0.71559   0.00000  Uiso   1.00
H533   H     0.66425   0.23500   0.97259   0.00000  Uiso   1.00
H534   H     0.47144   0.14042   0.60966   0.00000  Uiso   1.00
H535   H     0.52856   0.19291   0.89034   0.00000  Uiso   1.00
H536   H     0.65890   0.21360   0.61973   0.00000  Uiso   1.00
H537   H     0.34109   0.11974   0.88027   0.00000  Uiso   1.00
H538   H     0.64254   0.09982   0.95813   0.00000  Uiso   1.00
H539   H     0.35746   0.23353   0.54187   0.00000  Uiso   1.00
H540   H     0.40810   0.11834   0.57209   0.00000  Uiso   1.00
N541   N     0.64839   0.18068   0.76212   0.00000  Uiso   1.00
N542   N     0.35161   0.15265   0.73788   0.00000  Uiso   1.00
O543   O     0.46148   0.23809   0.74686   0.00000  Uiso   1.00
O544   O     0.53852   0.09524   0.75314   0.00000  Uiso   1.00
O545   O     0.56163   0.24753   0.75502   0.00000  Uiso   1.00
O546   O     0.43837   0.08580   0.74497   0.00000  Uiso   1.00
O547   O     0.42185   0.15930   0.80854   0.00000  Uiso   1.00
O548   O     0.57815   0.17403   0.69145   0.00000  Uiso   1.00
O549   O     0.52199   0.16874   0.81671   0.00000  Uiso   1.00
O550   O     0.47801   0.16460   0.68329   0.00000  Uiso   1.00
C551   C     0.84836   0.26671   0.75130   0.00000  Uiso   1.00
C552   C     0.87197   0.17046   0.66689   0.00000  Uiso   1.00
C553   C     0.77132   0.15716   0.88064   0.00000  Uiso   1.00
C554   C     0.89534   0.17617   0.61936   0.00000  Uiso   1.00
C555   C     0.69090   0.12032   0.94401   0.00000  Uiso   1.00
C556   C     0.97576   0.21302   0.55599   0.00000  Uiso   1.00
C557   C     0.70875   0.13206   0.89976   0.00000  Uiso   1.00
C558   C     0.95791   0.20128   0.60024   0.00000  Uiso   1.00
C559   C     0.81482   0.17282   0.90651   0.00000  Uiso   1.00
C560   C     0.85184   0.16052   0.59349   0.00000  Uiso   1.00
C561   C     0.79841   0.16103   0.95118   0.00000  Uiso   1.00
C562   C     0.81831   0.06662   0.74870   0.00000  Uiso   1.00
C563   C     0.86825   0.17231   0.54882   0.00000  Uiso   1.00
C564   C     0.73532   0.13376   0.96957   0.00000  Uiso   1.00
C565   C     0.93135   0.19958   0.53043   0.00000  Uiso   1.00
C566   C     0.84306   0.17421   0.97766   0.00000  Uiso   1.00
C567   C     0.82360   0.15913   0.52234   0.00000  Uiso   1.00
C568   C     0.76014   0.13156   0.53901   0.00000  Uiso   1.00
C569   C     0.90652   0.20178   0.96099   0.00000  Uiso   1.00
C570   C     0.71716   0.11938   0.51312   0.00000  Uiso   1.00
C571   C     0.94950   0.21396   0.98688   0.00000  Uiso   1.00
C572   C     0.85682   0.32267   0.75193   0.00000  Uiso   1.00
C573   C     0.80984   0.01066   0.74807   0.00000  Uiso   1.00
C574   C     0.79469   0.16287   0.83311   0.00000  Uiso   1.00
Cu575  Cu    0.77404   0.16108   0.74516   0.00000  Uiso   1.00
Cu576  Cu    0.89263   0.17225   0.75483   0.00000  Uiso   1.00
H577   H     0.66908   0.09835   0.52742   0.00000  Uiso   1.00
H578   H     0.92522   0.21501   0.92791   0.00000  Uiso   1.00
H579   H     0.90211   0.01311   0.75557   0.00000  Uiso   1.00
H580   H     0.76456   0.32022   0.74443   0.00000  Uiso   1.00
H581   H     0.66799   0.20503   0.78441   0.00000  Uiso   1.00
H582   H     0.99867   0.12830   0.71559   0.00000  Uiso   1.00
H583   H     0.99759   0.23500   0.97259   0.00000  Uiso   1.00
H584   H     0.80478   0.14042   0.60966   0.00000  Uiso   1.00
H585   H     0.86189   0.19291   0.89034   0.00000  Uiso   1.00
H586   H     0.99224   0.21360   0.61973   0.00000  Uiso   1.00
H587   H     0.67443   0.11974   0.88027   0.00000  Uiso   1.00
H588   H     0.97587   0.09982   0.95813   0.00000  Uiso   1.00
H589   H     0.69079   0.23353   0.54187   0.00000  Uiso   1.00
H590   H     0.74144   0.11834   0.57209   0.00000  Uiso   1.00
N591   N     0.98173   0.18068   0.76212   0.00000  Uiso   1.00
N592   N     0.68494   0.15265   0.73788   0.00000  Uiso   1.00
O593   O     0.79482   0.23809   0.74686   0.00000  Uiso   1.00
O594   O     0.87185   0.09524   0.75314   0.00000  Uiso   1.00
O595   O     0.89496   0.24753   0.75502   0.00000  Uiso   1.00
O596   O     0.77171   0.08580   0.74497   0.00000  Uiso   1.00
O597   O     0.75518   0.15930   0.80854   0.00000  Uiso   1.00
O598   O     0.91149   0.17403   0.69145   0.00000  Uiso   1.00
O599   O     0.85532   0.16874   0.81671   0.00000  Uiso   1.00
O600   O     0.81134   0.16460   0.68329   0.00000  Uiso   1.00
C601   C     0.18169   0.60005   0.75130   0.00000  Uiso   1.00
C602   C     0.20531   0.50379   0.66689   0.00000  Uiso   1.00
C603   C     0.10465   0.49050   0.88064   0.00000  Uiso   1.00
C604   C     0.22868   0.50950   0.61936   0.00000  Uiso   1.00
C605   C     0.02424   0.45365   0.94401   0.00000  Uiso   1.00
C606   C     0.30909   0.54636   0.55599   0.00000  Uiso   1.00
C607   C     0.04208   0.46539   0.89976   0.00000  Uiso   1.00
C608   C     0.29125   0.53461   0.60024   0.00000  Uiso   1.00
C609   C     0.14816   0.50615   0.90651   0.00000  Uiso   1.00
C610   C     0.18518   0.49385   0.59349   0.00000  Uiso   1.00
C611   C     0.13174   0.49436   0.95118   0.00000  Uiso   1.00
C612   C     0.15164   0.39995   0.74870   0.00000  Uiso   1.00
C613   C     0.20159   0.50564   0.54882   0.00000  Uiso   1.00
C614   C     0.06865   0.46709   0.96957   0.00000  Uiso   1.00
C615   C     0.26468   0.53291   0.53043   0.00000  Uiso   1.00
C616   C     0.17640   0.50755   0.97766   0.00000  Uiso   1.00
C617   C     0.15693   0.49246   0.52234   0.00000  Uiso   1.00
C618   C     0.09347   0.46489   0.53901   0.00000  Uiso   1.00
C619   C     0.23985   0.53512   0.96099   0.00000  Uiso   1.00
C620   C     0.05049   0.45272   0.51312   0.00000  Uiso   1.00
C621   C     0.28284   0.54729   0.98688   0.00000  Uiso   1.00
C622   C     0.19016   0.65601   0.75193   0.00000  Uiso   1.00
C623   C     0.14318   0.34399   0.74807   0.00000  Uiso   1.00
C624   C     0.12803   0.49621   0.83311   0.00000  Uiso   1.00
Cu625  Cu    0.10737   0.49441   0.74516   0.00000  Uiso   1.00
Cu626  Cu    0.22596   0.50559   0.75483   0.00000  Uiso   1.00
H627   H     0.00241   0.43168   0.52742   0.00000  Uiso   1.00
H628   H     0.25856   0.54834   0.92791   0.00000  Uiso   1.00
H629   H     0.23544   0.34644   0.75557   0.00000  Uiso   1.00
H630   H     0.09789   0.65356   0.74443   0.00000  Uiso   1.00
H631   H     0.00133   0.53837   0.78441   0.00000  Uiso   1.00
H632   H     0.33201   0.46163   0.71559   0.00000  Uiso   1.00
H633   H     0.33092   0.56833   0.97259   0.00000  Uiso   1.00
H634   H     0.13811   0.47375   0.60966   0.00000  Uiso   1.00
H635   H     0.19522   0.52625   0.89034   0.00000  Uiso   1.00
H636   H     0.32557   0.54693   0.61973   0.00000  Uiso   1.00
H637   H     0.00776   0.45307   0.88027   0.00000  Uiso   1.00
H638   H     0.30920   0.43315   0.95813   0.00000  Uiso   1.00
H639   H     0.02413   0.56686   0.54187   0.00000  Uiso   1.00
H640   H     0.07477   0.45167   0.57209   0.00000  Uiso   1.00
N641   N     0.31506   0.51401   0.76212   0.00000  Uiso   1.00
N642   N     0.01827   0.48599   0.73788   0.00000  Uiso   1.00
O643   O     0.12815   0.57142   0.74686   0.00000  Uiso   1.00
O644   O     0.20518   0.42858   0.75314   0.00000  Uiso   1.00
O645   O     0.22829   0.58086   0.75502   0.00000  Uiso   1.00
O646   O     0.10504   0.41914   0.74497   0.00000  Uiso   1.00
O647   O     0.08851   0.49263   0.80854   0.00000  Uiso   1.00
O648   O     0.24482   0.50737   0.69145   0.00000  Uiso   1.00
O649   O     0.18866   0.50207   0.81671   0.00000  Uiso   1.00
O650   O     0.14468   0.49793   0.68329   0.00000  Uiso   1.00
C651   C     0.51502   0.60005   0.75130   0.00000  Uiso   1.00
C652   C     0.53864   0.50379   0.66689   0.00000  Uiso   1.00
C653   C     0.43799   0.49050   0.88064   0.00000  Uiso   1.00
C654   C     0.56201   0.50950   0.61936   0.00000  Uiso   1.00
C655   C     0.35757   0.45365   0.94401   0.00000  Uiso   1.00
C656   C     0.64243   0.54636   0.55599   0.00000  Uiso   1.00
C657   C     0.37542   0.46539   0.89976   0.00000  Uiso   1.00
C658   C     0.62458   0.53461   0.60024   0.00000  Uiso   1.00
C659   C     0.48149   0.50615   0.90651   0.00000  Uiso   1.00
C660   C     0.51851   0.49385   0.59349   0.00000  Uiso   1.00
C661   C     0.46508   0.49436   0.95118   0.00000  Uiso   1.00
C662   C     0.48498   0.39995   0.74870   0.00000  Uiso   1.00
C663   C     0.53492   0.50564   0.54882   0.00000  Uiso   1.00
C664   C     0.40198   0.46709   0.96957   0.00000  Uiso   1.00
C665   C     0.59801   0.53291   0.53043   0.00000  Uiso   1.00
C666   C     0.50973   0.50755   0.97766   0.00000  Uiso   1.00
C667   C     0.49027   0.49246   0.52234   0.00000  Uiso   1.00
C668   C     0.42681   0.46489   0.53901   0.00000  Uiso   1.00
C669   C     0.57319   0.53512   0.96099   0.00000  Uiso   1.00
C670   C     0.38383   0.45272   0.51312   0.00000  Uiso   1.00
C671   C     0.61617   0.54729   0.98688   0.00000  Uiso   1.00
C672   C     0.52349   0.65601   0.75193   0.00000  Uiso   1.00
C673   C     0.47651   0.34399   0.74807   0.00000  Uiso   1.00
C674   C     0.46136   0.49621   0.83311   0.00000  Uiso   1.00
Cu675  Cu    0.44071   0.49441   0.74516   0.00000  Uiso   1.00
Cu676  Cu    0.55929   0.50559   0.75483   0.00000  Uiso   1.00
H677   H     0.33574   0.43168   0.52742   0.00000  Uiso   1.00
H678   H     0.59189   0.54834   0.92791   0.00000  Uiso   1.00
H679   H     0.56877   0.34644   0.75557   0.00000  Uiso   1.00
H680   H     0.43123   0.65356   0.74443   0.00000  Uiso   1.00
H681   H     0.33466   0.53837   0.78441   0.00000  Uiso   1.00
H682   H     0.66534   0.46163   0.71559   0.00000  Uiso   1.00
H683   H     0.66425   0.56833   0.97259   0.00000  Uiso   1.00
H684   H     0.47144   0.47375   0.60966   0.00000  Uiso   1.00
H685   H     0.52856   0.52625   0.89034   0.00000  Uiso   1.00
H686   H     0.65890   0.54693   0.61973   0.00000  Uiso   1.00
H687   H     0.34109   0.45307   0.88027   0.00000  Uiso   1.00
H688   H     0.64254   0.43315   0.95813   0.00000  Uiso   1.00
H689   H     0.35746   0.56686   0.54187   0.00000  Uiso   1.00
H690   H     0.40810   0.45167   0.57209   0.00000  Uiso   1.00
N691   N     0.64839   0.51401   0.76212   0.00000  Uiso   1.00
N692   N     0.35161   0.48599   0.73788   0.00000  Uiso   1.00
O693   O     0.46148   0.57142   0.74686   0.00000  Uiso   1.00
O694   O     0.53852   0.42858   0.75314   0.00000  Uiso   1.00
O695   O     0.56163   0.58086   0.75502   0.00000  Uiso   1.00
O696   O     0.43837   0.41914   0.74497   0.00000  Uiso   1.00
O697   O     0.42185   0.49263   0.80854   0.00000  Uiso   1.00
O698   O     0.57815   0.50737   0.69145   0.00000  Uiso   1.00
O699   O     0.52199   0.50207   0.81671   0.00000  Uiso   1.00
O700   O     0.47801   0.49793   0.68329   0.00000  Uiso   1.00
C701   C     0.84836   0.60005   0.75130   0.00000  Uiso   1.00
C702   C     0.87197   0.50379   0.66689   0.00000  Uiso   1.00
C703   C     0.77132   0.49050   0.88064   0.00000  Uiso   1.00
C704   C     0.89534   0.50950   0.61936   0.00000  Uiso   1.00
C705   C     0.69090   0.45365   0.94401   0.00000  Uiso   1.00
C706   C     0.97576   0.54636   0.55599   0.00000  Uiso   1.00
C707   C     0.70875   0.46539   0.89976   0.00000  Uiso   1.00
C708   C     0.95791   0.53461   0.60024   0.00000  Uiso   1.00
C709   C     0.81482   0.50615   0.90651   0.00000  Uiso   1.00
C710   C     0.85184   0.49385   0.59349   0.00000  Uiso   1.00
C711   C     0.79841   0.49436   0.95118   0.00000  Uiso   1.00
C712   C     0.81831   0.39995   0.74870   0.00000  Uiso   1.00
C713   C     0.86825   0.50564   0.54882   0.00000  Uiso   1.00
C714   C     0.73532   0.46709   0.96957   0.00000  Uiso   1.00
C715   C     0.93135   0.53291   0.53043   0.00000  Uiso   1.00
C716   C     0.84306   0.50755   0.97766   0.00000  Uiso   1.00
C717   C     0.82360   0.49246   0.52234   0.00000  Uiso   1.00
C718   C     0.76014   0.46489   0.53901   0.00000  Uiso   1.00
C719   C     0.90652   0.53512   0.96099   0.00000  Uiso   1.00
C720   C     0.71716   0.45272   0.51312   0.00000  Uiso   1.00
C721   C     0.94950   0.54729   0.98688   0.00000  Uiso   1.00
C722   C     0.85682   0.65601   0.75193   0.00000  Uiso   1.00
C723   C     0.80984   0.34399   0.74807   0.00000  Uiso   1.00
C724   C     0.79469   0.49621   0.83311   0.00000  Uiso   1.00
Cu725  Cu    0.77404   0.49441   0.74516   0.00000  Uiso   1.00
Cu726  Cu    0.89263   0.50559   0.75483   0.00000  Uiso   1.00
H727   H     0.66908   0.43168   0.52742   0.00000  Uiso   1.00
H728   H     0.92522   0.54834   0.92791   0.00000  Uiso   1.00
H729   H     0.90211   0.34644   0.75557   0.00000  Uiso   1.00
H730   H     0.76456   0.65356   0.74443   0.00000  Uiso   1.00
H731   H     0.66799   0.53837   0.78441   0.00000  Uiso   1.00
H732   H     0.99867   0.46163   0.71559   0.00000  Uiso   1.00
H733   H     0.99759   0.56833   0.97259   0.00000  Uiso   1.00
H734   H     0.80478   0.47375   0.60966   0.00000  Uiso   1.00
H735   H     0.86189   0.52625   0.89034   0.00000  Uiso   1.00
H736   H     0.99224   0.54693   0.61973   0.00000  Uiso   1.00
H737   H     0.67443   0.45307   0.88027   0.00000  Uiso   1.00
H738   H     0.97587   0.43315   0.95813   0.00000  Uiso   1.00
H739   H     0.69079   0.56686   0.54187   0.00000  Uiso   1.00
H740   H     0.74144   0.45167   0.57209   0.00000  Uiso   1.00
N741   N     0.98173   0.51401   0.76212   0.00000  Uiso   1.00
N742   N     0.68494   0.48599   0.73788   0.00000  Uiso   1.00
O743   O     0.79482   0.57142   0.74686   0.00000  Uiso   1.00
O744   O     0.87185   0.42858   0.75314   0.00000  Uiso   1.00
O745   O     0.89496   0.58086   0.75502   0.00000  Uiso   1.00
O746   O     0.77171   0.41914   0.74497   0.00000  Uiso   1.00
O747   O     0.75518   0.49263   0.80854   0.00000  Uiso   1.00
O748   O     0.91149   0.50737   0.69145   0.00000  Uiso   1.00
O749   O     0.85532   0.50207   0.81671   0.00000  Uiso   1.00
O750   O     0.81134   0.49793   0.68329   0.00000  Uiso   1.00
C751   C     0.18169   0.93338   0.75130   0.00000  Uiso   1.00
C752   C     0.20531   0.83713   0.66689   0.00000  Uiso   1.00
C753   C     0.10465   0.82383   0.88064   0.00000  Uiso   1.00
C754   C     0.22868   0.84284   0.61936   0.00000  Uiso   1.00
C755   C     0.02424   0.78698   0.94401   0.00000  Uiso   1.00
C756   C     0.30909   0.87969   0.55599   0.00000  Uiso   1.00
C757   C     0.04208   0.79873   0.89976   0.00000  Uiso   1.00
C758   C     0.29125   0.86794   0.60024   0.00000  Uiso   1.00
C759   C     0.14816   0.83948   0.90651   0.00000  Uiso   1.00
C760   C     0.18518   0.82718   0.59349   0.00000  Uiso   1.00
C761   C     0.13174   0.82770   0.95118   0.00000  Uiso   1.00
C762   C     0.15164   0.73329   0.74870   0.00000  Uiso   1.00
C763   C     0.20159   0.83897   0.54882   0.00000  Uiso   1.00
C764   C     0.06865   0.80043   0.96957   0.00000  Uiso   1.00
C765   C     0.26468   0.86625   0.53043   0.00000  Uiso   1.00
C766   C     0.17640   0.84088   0.97766   0.00000  Uiso   1.00
C767   C     0.15693   0.82579   0.52234   0.00000  Uiso   1.00
C768   C     0.09347   0.79822   0.53901   0.00000  Uiso   1.00
C769   C     0.23985   0.86845   0.96099   0.00000  Uiso   1.00
C770   C     0.05049   0.78605   0.51312   0.00000  Uiso   1.00
C771   C     0.28284   0.88063   0.98688   0.00000  Uiso   1.00
C772   C     0.19016   0.98934   0.75193   0.00000  Uiso   1.00
C773   C     0.14318   0.67733   0.74807   0.00000  Uiso   1.00
C774   C     0.12803   0.82954   0.83311   0.00000  Uiso   1.00
Cu775  Cu    0.10737   0.82775   0.74516   0.00000  Uiso   1.00
Cu776  Cu    0.22596   0.83892   0.75483   0.00000  Uiso   1.00
H777   H     0.00241   0.76501   0.52742   0.00000  Uiso   1.00
H778   H     0.25856   0.88167   0.92791   0.00000  Uiso   1.00
H779   H     0.23544   0.67978   0.75557   0.00000  Uiso   1.00
H780   H     0.09789   0.98689   0.74443   0.00000  Uiso   1.00
H781   H     0.00133   0.87170   0.78441   0.00000  Uiso   1.00
H782   H     0.33201   0.79497   0.71559   0.00000  Uiso   1.00
H783   H     0.33092   0.90167   0.97259   0.00000  Uiso   1.00
H784   H     0.13811   0.80708   0.60966   0.00000  Uiso   1.00
H785   H     0.19522   0.85958   0.89034   0.00000  Uiso   1.00
H786   H     0.32557   0.88027   0.61973   0.00000  Uiso   1.00
H787   H     0.00776   0.78641   0.88027   0.00000  Uiso   1.00
H788   H     0.30920   0.76648   0.95813   0.00000  Uiso   1.00
H789   H     0.02413   0.90019   0.54187   0.00000  Uiso   1.00
H790   H     0.07477   0.78501   0.57209   0.00000  Uiso   1.00
N791   N     0.31506   0.84735   0.76212   0.00000  Uiso   1.00
N792   N     0.01827   0.81932   0.73788   0.00000  Uiso   1.00
O793   O     0.12815   0.90476   0.74686   0.00000  Uiso   1.00
O794   O     0.20518   0.76191   0.75314   0.00000  Uiso   1.00
O795   O     0.22829   0.91420   0.75502   0.00000  Uiso   1.00
O796   O     0.10504   0.75247   0.74497   0.00000  Uiso   1.00
O797   O     0.08851   0.82597   0.80854   0.00000  Uiso   1.00
O798   O     0.24482   0.84070   0.69145   0.00000  Uiso   1.00
O799   O     0.18866   0.83540   0.81671   0.00000  Uiso   1.00
O800   O     0.14468   0.83126   0.68329   0.00000  Uiso   1.00
C801   C     0.51502   0.93338   0.75130   0.00000  Uiso   1.00
C802   C     0.53864   0.83713   0.66689   0.00000  Uiso   1.00
C803   C     0.43799   0.82383   0.88064   0.00000  Uiso   1.00
C804   C     0.56201   0.84284   0.61936   0.00000  Uiso   1.00
C805   C     0.35757   0.78698   0.94401   0.00000  Uiso   1.00
C806   C     0.64243   0.87969   0.55599   0.00000  Uiso   1.00
C807   C     0.37542   0.79873   0.89976   0.00000  Uiso   1.00
C808   C     0.62458   0.86794   0.60024   0.00000  Uiso   1.00
C809   C     0.48149   0.83948   0.90651   0.00000  Uiso   1.00
C810   C     0.51851   0.82718   0.59349   0.00000  Uiso   1.00
C811   C     0.46508   0.82770   0.95118   0.00000  Uiso   1.00
C812   C     0.48498   0.73329   0.74870   0.00000  Uiso   1.00
C813   C     0.53492   0.83897   0.54882   0.00000  Uiso   1.00
C814   C     0.40198   0.80043   0.96957   0.00000  Uiso   1.00
C815   C     0.59801   0.86625   0.53043   0.00000  Uiso   1.00
C816   C     0.50973   0.84088   0.97766   0.00000  Uiso   1.00
C817   C     0.49027   0.82579   0.52234   0.00000  Uiso   1.00
C818   C     0.42681   0.79822   0.53901   0.00000  Uiso   1.00
C819   C     0.57319   0.86845   0.96099   0.00000  Uiso   1.00
C820   C     0.38383   0.78605   0.51312   0.00000  Uiso   1.00
C821   C     0.61617   0.88063   0.98688   0.00000  Uiso   1.00
C822   C     0.52349   0.98934   0.75193   0.00000  Uiso   1.00
C823   C     0.47651   0.67733   0.74807   0.00000  Uiso   1.00
C824   C     0.46136   0.82954   0.83311   0.00000  Uiso   1.00
Cu825  Cu    0.44071   0.82775   0.74516   0.00000  Uiso   1.00
Cu826  Cu    0.55929   0.83892   0.75483   0.00000  Uiso   1.00
H827   H     0.33574   0.76501   0.52742   0.00000  Uiso   1.00
H828   H     0.59189   0.88167   0.92791   0.00000  Uiso   1.00
H829   H     0.56877   0.67978   0.75557   0.00000  Uiso   1.00
H830   H     0.43123   0.98689   0.74443   0.00000  Uiso   1.00
H831   H     0.33466   0.87170   0.78441   0.00000  Uiso   1.00
H832   H     0.66534   0.79497   0.71559   0.00000  Uiso   1.00
H833   H     0.66425   0.90167   0.97259   0.00000  Uiso   1.00
H834   H     0.47144   0.80708   0.60966   0.00000  Uiso   1.00
H835   H     0.52856   0.85958   0.89034   0.00000  Uiso   1.00
H836   H     0.65890   0.88027   0.61973   0.00000  Uiso   1.00
H837   H     0.34109   0.78641   0.88027   0.00000  Uiso   1.00
H838   H     0.64254   0.76648   0.95813   0.00000  Uiso   1.00
H839   H     0.35746   0.90019   0.54187   0.00000  Uiso   1.00
H840   H     0.40810   0.78501   0.57209   0.00000  Uiso   1.00
N841   N     0.64839   0.84735   0.76212   0.00000  Uiso   1.00
N842   N     0.35161   0.81932   0.73788   0.00000  Uiso   1.00
O843   O     0.46148   0.90476   0.74686   0.00000  Uiso   1.00
O844   O     0.53852   0.76191   0.75314   0.00000  Uiso   1.00
O845   O     0.56163   0.91420   0.75502   0.00000  Uiso   1.00
O846   O     0.43837   0.75247   0.74497   0.00000  Uiso   1.00
O847   O     0.42185   0.82597   0.80854   0.00000  Uiso   1.00
O848   O     0.57815   0.84070   0.69145   0.00000  Uiso   1.00
O849   O     0.52199   0.83540   0.81671   0.00000  Uiso   1.00
O850   O     0.47801   0.83126   0.68329   0.00000  Uiso   1.00
C851   C     0.84836   0.93338   0.75130   0.00000  Uiso   1.00
C852   C     0.87197   0.83713   0.66689   0.00000  Uiso   1.00
C853   C     0.77132   0.82383   0.88064   0.00000  Uiso   1.00
C854   C     0.89534   0.84284   0.61936   0.00000  Uiso   1.00
C855   C     0.69090   0.78698   0.94401   0.00000  Uiso   1.00
C856   C     0.97576   0.87969   0.55599   0.00000  Uiso   1.00
C857   C     0.70875   0.79873   0.89976   0.00000  Uiso   1.00
C858   C     0.95791   0.86794   0.60024   0.00000  Uiso   1.00
C859   C     0.81482   0.83948   0.90651   0.00000  Uiso   1.00
C860   C     0.85184   0.82718   0.59349   0.00000  Uiso   1.00
C861   C     0.79841   0.82770   0.95118   0.00000  Uiso   1.00
C862   C     0.81831   0.73329   0.74870   0.00000  Uiso   1.00
C863   C     0.86825   0.83897   0.54882   0.00000  Uiso   1.00
C864   C     0.73532   0.80043   0.96957   0.00000  Uiso   1.00
C865   C     0.93135   0.86625   0.53043   0.00000  Uiso   1.00
C866   C     0.84306   0.84088   0.97766   0.00000  Uiso   1.00
C867   C     0.82360   0.82579   0.52234   0.00000  Uiso   1.00
C868   C     0.76014   0.79822   0.53901   0.00000  Uiso   1.00
C869   C     0.90652   0.86845   0.96099   0.00000  Uiso   1.00
C870   C     0.71716   0.78605   0.51312   0.00000  Uiso   1.00
C871   C     0.94950   0.88063   0.98688   0.00000  Uiso   1.00
C872   C     0.85682   0.98934   0.75193   0.00000  Uiso   1.00
C873   C     0.80984   0.67733   0.74807   0.00000  Uiso   1.00
C874   C     0.79469   0.82954   0.83311   0.00000  Uiso   1.00
Cu875  Cu    0.77404   0.82775   0.74516   0.00000  Uiso   1.00
Cu876  Cu    0.89263   0.83892   0.75483   0.00000  Uiso   1.00
H877   H     0.66908   0.76501   0.52742   0.00000  Uiso   1.00
H878   H     0.92522   0.88167   0.92791   0.00000  Uiso   1.00
H879   H     0.90211   0.67978   0.75557   0.00000  Uiso   1.00
H880   H     0.76456   0.98689   0.74443   0.00000  Uiso   1.00
H881   H     0.66799   0.87170   0.78441   0.00000  Uiso   1.00
H882   H     0.99867   0.79497   0.71559   0.00000  Uiso   1.00
H883   H     0.99759   0.90167   0.97259   0.00000  Uiso   1.00
H884   H     0.80478   0.80708   0.60966   0.00000  Uiso   1.00
H885   H     0.86189   0.85958   0.89034   0.00000  Uiso   1.00
H886   H     0.99224   0.88027   0.61973   0.00000  Uiso   1.00
H887   H     0.67443   0.78641   0.88027   0.00000  Uiso   1.00
H888   H     0.97587   0.76648   0.95813   0.00000  Uiso   1.00
H889   H     0.69079   0.90019   0.54187   0.00000  Uiso   1.00
H890   H     0.74144   0.78501   0.57209   0.00000  Uiso   1.00
N891   N     0.98173   0.84735   0.76212   0.00000  Uiso   1.00
N892   N     0.68494   0.81932   0.73788   0.00000  Uiso   1.00
O893   O     0.79482   0.90476   0.74686   0.00000  Uiso   1.00
O894   O     0.87185   0.76191   0.75314   0.00000  Uiso   1.00
O895   O     0.89496   0.91420   0.75502   0.00000  Uiso   1.00
O896   O     0.77171   0.75247   0.74497   0.00000  Uiso   1.00
O897   O     0.75518   0.82597   0.80854   0.00000  Uiso   1.00
O898   O     0.91149   0.84070   0.69145   0.00000  Uiso   1.00
O899   O     0.85532   0.83540   0.81671   0.00000  Uiso   1.00
O900   O     0.81134   0.83126   0.68329   0.00000  Uiso   1.00
loop_
_geom_bond_atom_site_label_1
_geom_bond_atom_site_label_2
_geom_bond_distance
_geom_bond_site_symmetry_2
_ccdc_geom_bond_type
C1     C22     1.428   .     S
C1     O45     1.286   .     A
C1     O43     1.292   .     A
C2     C4      1.468   .     S
C2     O48     1.303   .     A
C2     O50     1.296   .     A
C3     C9      1.400   .     A
C3     C7      1.397   .     A
C3     C24     1.468   .     S
C4     C8      1.397   .     A
C4     C10     1.400   .     A
C5     C7      1.392   .     A
C5     C14     1.405   .     A
C5     H138    1.084   1_455 S
C6     C8      1.392   .     A
C6     C15     1.405   .     A
C6     H89     1.084   .     S
C7     H37     1.083   .     S
C8     H36     1.083   .     S
C9     C11     1.407   .     A
C9     H35     1.074   .     S
C10    H34     1.074   .     S
C10    C13     1.407   .     A
C11    C14     1.418   .     A
C11    C16     1.430   .     A
C12    C23     1.428   .     S
C12    O46     1.286   .     A
C12    O44     1.292   .     A
C13    C17     1.430   .     A
C13    C15     1.418   .     A
C14    C470    1.389   .     S
C15    C471    1.389   1_554 S
C16    C19     1.418   .     A
C16    C467    1.427   .     S
C17    C18     1.418   .     A
C17    C466    1.427   1_554 S
C18    C20     1.386   .     A
C18    H40     1.075   .     S
C19    H28     1.075   .     S
C19    C21     1.386   .     A
C20    H27     1.085   .     S
C20    C464    1.389   1_554 S
C21    H33     1.085   .     S
C21    C465    1.389   .     S
C22    C173    1.328   .     S
C22    H179    1.088   .     S
C23    C322    1.328   1_545 S
C23    H330    1.088   1_545 S
C24    O49     1.296   .     A
C24    O47     1.303   .     A
Cu25   N42     2.021   .     S
Cu25   O47     1.945   .     S
Cu25   O43     1.956   .     S
Cu25   Cu26    2.689   .     S
Cu25   O46     1.952   .     S
Cu25   O50     1.923   .     S
Cu26   O48     1.945   .     S
Cu26   O44     1.956   .     S
Cu26   O49     1.923   .     S
Cu26   O45     1.952   .     S
Cu26   N41     2.021   .     S
H29    C322    1.088   1_545 S
H30    C173    1.088   .     S
H31    N141    1.029   1_455 S
H32    N92     1.029   .     S
H38    C55     1.084   .     S
H39    C106    1.084   1_455 S
N41    H81     1.029   .     S
N41    N92     1.286   .     S
N42    H132    1.029   1_455 S
N42    N141    1.286   1_455 S
C51    C72     1.428   .     S
C51    O95     1.286   .     A
C51    O93     1.292   .     A
C52    C54     1.468   .     S
C52    O98     1.303   .     A
C52    O100    1.296   .     A
C53    C59     1.400   .     A
C53    C57     1.397   .     A
C53    C74     1.468   .     S
C54    C58     1.397   .     A
C54    C60     1.400   .     A
C55    C57     1.392   .     A
C55    C64     1.405   .     A
C56    C58     1.392   .     A
C56    C65     1.405   .     A
C56    H139    1.084   .     S
C57    H87     1.083   .     S
C58    H86     1.083   .     S
C59    C61     1.407   .     A
C59    H85     1.074   .     S
C60    H84     1.074   .     S
C60    C63     1.407   .     A
C61    C64     1.418   .     A
C61    C66     1.430   .     A
C62    C73     1.428   .     S
C62    O96     1.286   .     A
C62    O94     1.292   .     A
C63    C67     1.430   .     A
C63    C65     1.418   .     A
C64    C520    1.389   .     S
C65    C521    1.389   1_554 S
C66    C69     1.418   .     A
C66    C517    1.427   .     S
C67    C68     1.418   .     A
C67    C516    1.427   1_554 S
C68    C70     1.386   .     A
C68    H90     1.075   .     S
C69    H78     1.075   .     S
C69    C71     1.386   .     A
C70    H77     1.085   .     S
C70    C514    1.389   1_554 S
C71    H83     1.085   .     S
C71    C515    1.389   .     S
C72    C223    1.328   .     S
C72    H229    1.088   .     S
C73    C372    1.328   1_545 S
C73    H380    1.088   1_545 S
C74    O99     1.296   .     A
C74    O97     1.303   .     A
Cu75   N92     2.021   .     S
Cu75   O97     1.945   .     S
Cu75   O93     1.956   .     S
Cu75   Cu76    2.689   .     S
Cu75   O96     1.952   .     S
Cu75   O100    1.923   .     S
Cu76   O98     1.945   .     S
Cu76   O94     1.956   .     S
Cu76   O99     1.923   .     S
Cu76   O95     1.952   .     S
Cu76   N91     2.021   .     S
H79    C372    1.088   1_545 S
H80    C223    1.088   .     S
H82    N142    1.029   .     S
H88    C105    1.084   .     S
N91    H131    1.029   .     S
N91    N142    1.286   .     S
C101   C122    1.428   .     S
C101   O145    1.286   .     A
C101   O143    1.292   .     A
C102   C104    1.468   .     S
C102   O148    1.303   .     A
C102   O150    1.296   .     A
C103   C109    1.400   .     A
C103   C107    1.397   .     A
C103   C124    1.468   .     S
C104   C108    1.397   .     A
C104   C110    1.400   .     A
C105   C107    1.392   .     A
C105   C114    1.405   .     A
C106   C108    1.392   .     A
C106   C115    1.405   .     A
C106   H39     1.084   1_655 S
C107   H137    1.083   .     S
C108   H136    1.083   .     S
C109   C111    1.407   .     A
C109   H135    1.074   .     S
C110   H134    1.074   .     S
C110   C113    1.407   .     A
C111   C114    1.418   .     A
C111   C116    1.430   .     A
C112   C123    1.428   .     S
C112   O146    1.286   .     A
C112   O144    1.292   .     A
C113   C117    1.430   .     A
C113   C115    1.418   .     A
C114   C570    1.389   .     S
C115   C571    1.389   1_554 S
C116   C119    1.418   .     A
C116   C567    1.427   .     S
C117   C118    1.418   .     A
C117   C566    1.427   1_554 S
C118   C120    1.386   .     A
C118   H140    1.075   .     S
C119   H128    1.075   .     S
C119   C121    1.386   .     A
C120   H127    1.085   .     S
C120   C564    1.389   1_554 S
C121   H133    1.085   .     S
C121   C565    1.389   .     S
C122   C273    1.328   .     S
C122   H279    1.088   .     S
C123   C422    1.328   1_545 S
C123   H430    1.088   1_545 S
C124   O149    1.296   .     A
C124   O147    1.303   .     A
Cu125  N142    2.021   .     S
Cu125  O147    1.945   .     S
Cu125  O143    1.956   .     S
Cu125  Cu126   2.689   .     S
Cu125  O146    1.952   .     S
Cu125  O150    1.923   .     S
Cu126  O148    1.945   .     S
Cu126  O144    1.956   .     S
Cu126  O149    1.923   .     S
Cu126  O145    1.952   .     S
Cu126  N141    2.021   .     S
H129   C422    1.088   1_545 S
H130   C273    1.088   .     S
H132   N42     1.029   1_655 S
H138   C5      1.084   1_655 S
N141   H31     1.029   1_655 S
N141   N42     1.286   1_655 S
C151   C172    1.428   .     S
C151   O195    1.286   .     A
C151   O193    1.292   .     A
C152   C154    1.468   .     S
C152   O198    1.303   .     A
C152   O200    1.296   .     A
C153   C159    1.400   .     A
C153   C157    1.397   .     A
C153   C174    1.468   .     S
C154   C158    1.397   .     A
C154   C160    1.400   .     A
C155   C157    1.392   .     A
C155   C164    1.405   .     A
C155   H288    1.084   1_455 S
C156   C158    1.392   .     A
C156   C165    1.405   .     A
C156   H239    1.084   .     S
C157   H187    1.083   .     S
C158   H186    1.083   .     S
C159   C161    1.407   .     A
C159   H185    1.074   .     S
C160   H184    1.074   .     S
C160   C163    1.407   .     A
C161   C164    1.418   .     A
C161   C166    1.430   .     A
C162   C173    1.428   .     S
C162   O196    1.286   .     A
C162   O194    1.292   .     A
C163   C167    1.430   .     A
C163   C165    1.418   .     A
C164   C620    1.389   .     S
C165   C621    1.389   1_554 S
C166   C169    1.418   .     A
C166   C617    1.427   .     S
C167   C168    1.418   .     A
C167   C616    1.427   1_554 S
C168   C170    1.386   .     A
C168   H190    1.075   .     S
C169   H178    1.075   .     S
C169   C171    1.386   .     A
C170   H177    1.085   .     S
C170   C614    1.389   1_554 S
C171   H183    1.085   .     S
C171   C615    1.389   .     S
C172   C323    1.328   .     S
C172   H329    1.088   .     S
C174   O199    1.296   .     A
C174   O197    1.303   .     A
Cu175  N192    2.021   .     S
Cu175  O197    1.945   .     S
Cu175  O193    1.956   .     S
Cu175  Cu176   2.689   .     S
Cu175  O196    1.952   .     S
Cu175  O200    1.923   .     S
Cu176  O198    1.945   .     S
Cu176  O194    1.956   .     S
Cu176  O199    1.923   .     S
Cu176  O195    1.952   .     S
Cu176  N191    2.021   .     S
H180   C323    1.088   .     S
H181   N291    1.029   1_455 S
H182   N242    1.029   .     S
H188   C205    1.084   .     S
H189   C256    1.084   1_455 S
N191   H231    1.029   .     S
N191   N242    1.286   .     S
N192   H282    1.029   1_455 S
N192   N291    1.286   1_455 S
C201   C222    1.428   .     S
C201   O245    1.286   .     A
C201   O243    1.292   .     A
C202   C204    1.468   .     S
C202   O248    1.303   .     A
C202   O250    1.296   .     A
C203   C209    1.400   .     A
C203   C207    1.397   .     A
C203   C224    1.468   .     S
C204   C208    1.397   .     A
C204   C210    1.400   .     A
C205   C207    1.392   .     A
C205   C214    1.405   .     A
C206   C208    1.392   .     A
C206   C215    1.405   .     A
C206   H289    1.084   .     S
C207   H237    1.083   .     S
C208   H236    1.083   .     S
C209   C211    1.407   .     A
C209   H235    1.074   .     S
C210   H234    1.074   .     S
C210   C213    1.407   .     A
C211   C214    1.418   .     A
C211   C216    1.430   .     A
C212   C223    1.428   .     S
C212   O246    1.286   .     A
C212   O244    1.292   .     A
C213   C217    1.430   .     A
C213   C215    1.418   .     A
C214   C670    1.389   .     S
C215   C671    1.389   1_554 S
C216   C219    1.418   .     A
C216   C667    1.427   .     S
C217   C218    1.418   .     A
C217   C666    1.427   1_554 S
C218   C220    1.386   .     A
C218   H240    1.075   .     S
C219   H228    1.075   .     S
C219   C221    1.386   .     A
C220   H227    1.085   .     S
C220   C664    1.389   1_554 S
C221   H233    1.085   .     S
C221   C665    1.389   .     S
C222   C373    1.328   .     S
C222   H379    1.088   .     S
C224   O249    1.296   .     A
C224   O247    1.303   .     A
Cu225  N242    2.021   .     S
Cu225  O247    1.945   .     S
Cu225  O243    1.956   .     S
Cu225  Cu226   2.689   .     S
Cu225  O246    1.952   .     S
Cu225  O250    1.923   .     S
Cu226  O248    1.945   .     S
Cu226  O244    1.956   .     S
Cu226  O249    1.923   .     S
Cu226  O245    1.952   .     S
Cu226  N241    2.021   .     S
H230   C373    1.088   .     S
H232   N292    1.029   .     S
H238   C255    1.084   .     S
N241   H281    1.029   .     S
N241   N292    1.286   .     S
C251   C272    1.428   .     S
C251   O295    1.286   .     A
C251   O293    1.292   .     A
C252   C254    1.468   .     S
C252   O298    1.303   .     A
C252   O300    1.296   .     A
C253   C259    1.400   .     A
C253   C257    1.397   .     A
C253   C274    1.468   .     S
C254   C258    1.397   .     A
C254   C260    1.400   .     A
C255   C257    1.392   .     A
C255   C264    1.405   .     A
C256   C258    1.392   .     A
C256   C265    1.405   .     A
C256   H189    1.084   1_655 S
C257   H287    1.083   .     S
C258   H286    1.083   .     S
C259   C261    1.407   .     A
C259   H285    1.074   .     S
C260   H284    1.074   .     S
C260   C263    1.407   .     A
C261   C264    1.418   .     A
C261   C266    1.430   .     A
C262   C273    1.428   .     S
C262   O296    1.286   .     A
C262   O294    1.292   .     A
C263   C267    1.430   .     A
C263   C265    1.418   .     A
C264   C720    1.389   .     S
C265   C721    1.389   1_554 S
C266   C269    1.418   .     A
C266   C717    1.427   .     S
C267   C268    1.418   .     A
C267   C716    1.427   1_554 S
C268   C270    1.386   .     A
C268   H290    1.075   .     S
C269   H278    1.075   .     S
C269   C271    1.386   .     A
C270   H277    1.085   .     S
C270   C714    1.389   1_554 S
C271   H283    1.085   .     S
C271   C715    1.389   .     S
C272   C423    1.328   .     S
C272   H429    1.088   .     S
C274   O299    1.296   .     A
C274   O297    1.303   .     A
Cu275  N292    2.021   .     S
Cu275  O297    1.945   .     S
Cu275  O293    1.956   .     S
Cu275  Cu276   2.689   .     S
Cu275  O296    1.952   .     S
Cu275  O300    1.923   .     S
Cu276  O298    1.945   .     S
Cu276  O294    1.956   .     S
Cu276  O299    1.923   .     S
Cu276  O295    1.952   .     S
Cu276  N291    2.021   .     S
H280   C423    1.088   .     S
H282   N192    1.029   1_655 S
H288   C155    1.084   1_655 S
N291   H181    1.029   1_655 S
N291   N192    1.286   1_655 S
C301   C322    1.428   .     S
C301   O345    1.286   .     A
C301   O343    1.292   .     A
C302   C304    1.468   .     S
C302   O348    1.303   .     A
C302   O350    1.296   .     A
C303   C309    1.400   .     A
C303   C307    1.397   .     A
C303   C324    1.468   .     S
C304   C308    1.397   .     A
C304   C310    1.400   .     A
C305   C307    1.392   .     A
C305   C314    1.405   .     A
C305   H438    1.084   1_455 S
C306   C308    1.392   .     A
C306   C315    1.405   .     A
C306   H389    1.084   .     S
C307   H337    1.083   .     S
C308   H336    1.083   .     S
C309   C311    1.407   .     A
C309   H335    1.074   .     S
C310   H334    1.074   .     S
C310   C313    1.407   .     A
C311   C314    1.418   .     A
C311   C316    1.430   .     A
C312   C323    1.428   .     S
C312   O346    1.286   .     A
C312   O344    1.292   .     A
C313   C317    1.430   .     A
C313   C315    1.418   .     A
C314   C770    1.389   .     S
C315   C771    1.389   1_554 S
C316   C319    1.418   .     A
C316   C767    1.427   .     S
C317   C318    1.418   .     A
C317   C766    1.427   1_554 S
C318   C320    1.386   .     A
C318   H340    1.075   .     S
C319   H328    1.075   .     S
C319   C321    1.386   .     A
C320   H327    1.085   .     S
C320   C764    1.389   1_554 S
C321   H333    1.085   .     S
C321   C765    1.389   .     S
C322   C23     1.328   1_565 S
C322   H29     1.088   1_565 S
C324   O349    1.296   .     A
C324   O347    1.303   .     A
Cu325  N342    2.021   .     S
Cu325  O347    1.945   .     S
Cu325  O343    1.956   .     S
Cu325  Cu326   2.689   .     S
Cu325  O346    1.952   .     S
Cu325  O350    1.923   .     S
Cu326  O348    1.945   .     S
Cu326  O344    1.956   .     S
Cu326  O349    1.923   .     S
Cu326  O345    1.952   .     S
Cu326  N341    2.021   .     S
H330   C23     1.088   1_565 S
H331   N441    1.029   1_455 S
H332   N392    1.029   .     S
H338   C355    1.084   .     S
H339   C406    1.084   1_455 S
N341   H381    1.029   .     S
N341   N392    1.286   .     S
N342   H432    1.029   1_455 S
N342   N441    1.286   1_455 S
C351   C372    1.428   .     S
C351   O395    1.286   .     A
C351   O393    1.292   .     A
C352   C354    1.468   .     S
C352   O398    1.303   .     A
C352   O400    1.296   .     A
C353   C359    1.400   .     A
C353   C357    1.397   .     A
C353   C374    1.468   .     S
C354   C358    1.397   .     A
C354   C360    1.400   .     A
C355   C357    1.392   .     A
C355   C364    1.405   .     A
C356   C358    1.392   .     A
C356   C365    1.405   .     A
C356   H439    1.084   .     S
C357   H387    1.083   .     S
C358   H386    1.083   .     S
C359   C361    1.407   .     A
C359   H385    1.074   .     S
C360   H384    1.074   .     S
C360   C363    1.407   .     A
C361   C364    1.418   .     A
C361   C366    1.430   .     A
C362   C373    1.428   .     S
C362   O396    1.286   .     A
C362   O394    1.292   .     A
C363   C367    1.430   .     A
C363   C365    1.418   .     A
C364   C820    1.389   .     S
C365   C821    1.389   1_554 S
C366   C369    1.418   .     A
C366   C817    1.427   .     S
C367   C368    1.418   .     A
C367   C816    1.427   1_554 S
C368   C370    1.386   .     A
C368   H390    1.075   .     S
C369   H378    1.075   .     S
C369   C371    1.386   .     A
C370   H377    1.085   .     S
C370   C814    1.389   1_554 S
C371   H383    1.085   .     S
C371   C815    1.389   .     S
C372   C73     1.328   1_565 S
C372   H79     1.088   1_565 S
C374   O399    1.296   .     A
C374   O397    1.303   .     A
Cu375  N392    2.021   .     S
Cu375  O397    1.945   .     S
Cu375  O393    1.956   .     S
Cu375  Cu376   2.689   .     S
Cu375  O396    1.952   .     S
Cu375  O400    1.923   .     S
Cu376  O398    1.945   .     S
Cu376  O394    1.956   .     S
Cu376  O399    1.923   .     S
Cu376  O395    1.952   .     S
Cu376  N391    2.021   .     S
H380   C73     1.088   1_565 S
H382   N442    1.029   .     S
H388   C405    1.084   .     S
N391   H431    1.029   .     S
N391   N442    1.286   .     S
C401   C422    1.428   .     S
C401   O445    1.286   .     A
C401   O443    1.292   .     A
C402   C404    1.468   .     S
C402   O448    1.303   .     A
C402   O450    1.296   .     A
C403   C409    1.400   .     A
C403   C407    1.397   .     A
C403   C424    1.468   .     S
C404   C408    1.397   .     A
C404   C410    1.400   .     A
C405   C407    1.392   .     A
C405   C414    1.405   .     A
C406   C408    1.392   .     A
C406   C415    1.405   .     A
C406   H339    1.084   1_655 S
C407   H437    1.083   .     S
C408   H436    1.083   .     S
C409   C411    1.407   .     A
C409   H435    1.074   .     S
C410   H434    1.074   .     S
C410   C413    1.407   .     A
C411   C414    1.418   .     A
C411   C416    1.430   .     A
C412   C423    1.428   .     S
C412   O446    1.286   .     A
C412   O444    1.292   .     A
C413   C417    1.430   .     A
C413   C415    1.418   .     A
C414   C870    1.389   .     S
C415   C871    1.389   1_554 S
C416   C419    1.418   .     A
C416   C867    1.427   .     S
C417   C418    1.418   .     A
C417   C866    1.427   1_554 S
C418   C420    1.386   .     A
C418   H440    1.075   .     S
C419   H428    1.075   .     S
C419   C421    1.386   .     A
C420   H427    1.085   .     S
C420   C864    1.389   1_554 S
C421   H433    1.085   .     S
C421   C865    1.389   .     S
C422   C123    1.328   1_565 S
C422   H129    1.088   1_565 S
C424   O449    1.296   .     A
C424   O447    1.303   .     A
Cu425  N442    2.021   .     S
Cu425  O447    1.945   .     S
Cu425  O443    1.956   .     S
Cu425  Cu426   2.689   .     S
Cu425  O446    1.952   .     S
Cu425  O450    1.923   .     S
Cu426  O448    1.945   .     S
Cu426  O444    1.956   .     S
Cu426  O449    1.923   .     S
Cu426  O445    1.952   .     S
Cu426  N441    2.021   .     S
H430   C123    1.088   1_565 S
H432   N342    1.029   1_655 S
H438   C305    1.084   1_655 S
N441   H331    1.029   1_655 S
N441   N342    1.286   1_655 S
C451   C472    1.428   .     S
C451   O495    1.286   .     A
C451   O493    1.292   .     A
C452   C454    1.468   .     S
C452   O498    1.303   .     A
C452   O500    1.296   .     A
C453   C459    1.400   .     A
C453   C457    1.397   .     A
C453   C474    1.468   .     S
C454   C458    1.397   .     A
C454   C460    1.400   .     A
C455   C457    1.392   .     A
C455   C464    1.405   .     A
C455   H588    1.084   1_455 S
C456   C458    1.392   .     A
C456   C465    1.405   .     A
C456   H539    1.084   .     S
C457   H487    1.083   .     S
C458   H486    1.083   .     S
C459   C461    1.407   .     A
C459   H485    1.074   .     S
C460   H484    1.074   .     S
C460   C463    1.407   .     A
C461   C464    1.418   .     A
C461   C466    1.430   .     A
C462   C473    1.428   .     S
C462   O496    1.286   .     A
C462   O494    1.292   .     A
C463   C467    1.430   .     A
C463   C465    1.418   .     A
C464   C20     1.389   1_556 S
C466   C469    1.418   .     A
C466   C17     1.427   1_556 S
C467   C468    1.418   .     A
C468   C470    1.386   .     A
C468   H490    1.075   .     S
C469   H478    1.075   .     S
C469   C471    1.386   .     A
C470   H477    1.085   .     S
C471   H483    1.085   .     S
C471   C15     1.389   1_556 S
C472   C623    1.328   .     S
C472   H629    1.088   .     S
C473   C772    1.328   1_545 S
C473   H780    1.088   1_545 S
C474   O499    1.296   .     A
C474   O497    1.303   .     A
Cu475  N492    2.021   .     S
Cu475  O497    1.945   .     S
Cu475  O493    1.956   .     S
Cu475  Cu476   2.689   .     S
Cu475  O496    1.952   .     S
Cu475  O500    1.923   .     S
Cu476  O498    1.945   .     S
Cu476  O494    1.956   .     S
Cu476  O499    1.923   .     S
Cu476  O495    1.952   .     S
Cu476  N491    2.021   .     S
H479   C772    1.088   1_545 S
H480   C623    1.088   .     S
H481   N591    1.029   1_455 S
H482   N542    1.029   .     S
H488   C505    1.084   .     S
H489   C556    1.084   1_455 S
N491   H531    1.029   .     S
N491   N542    1.286   .     S
N492   H582    1.029   1_455 S
N492   N591    1.286   1_455 S
C501   C522    1.428   .     S
C501   O545    1.286   .     A
C501   O543    1.292   .     A
C502   C504    1.468   .     S
C502   O548    1.303   .     A
C502   O550    1.296   .     A
C503   C509    1.400   .     A
C503   C507    1.397   .     A
C503   C524    1.468   .     S
C504   C508    1.397   .     A
C504   C510    1.400   .     A
C505   C507    1.392   .     A
C505   C514    1.405   .     A
C506   C508    1.392   .     A
C506   C515    1.405   .     A
C506   H589    1.084   .     S
C507   H537    1.083   .     S
C508   H536    1.083   .     S
C509   C511    1.407   .     A
C509   H535    1.074   .     S
C510   H534    1.074   .     S
C510   C513    1.407   .     A
C511   C514    1.418   .     A
C511   C516    1.430   .     A
C512   C523    1.428   .     S
C512   O546    1.286   .     A
C512   O544    1.292   .     A
C513   C517    1.430   .     A
C513   C515    1.418   .     A
C514   C70     1.389   1_556 S
C516   C519    1.418   .     A
C516   C67     1.427   1_556 S
C517   C518    1.418   .     A
C518   C520    1.386   .     A
C518   H540    1.075   .     S
C519   H528    1.075   .     S
C519   C521    1.386   .     A
C520   H527    1.085   .     S
C521   H533    1.085   .     S
C521   C65     1.389   1_556 S
C522   C673    1.328   .     S
C522   H679    1.088   .     S
C523   C822    1.328   1_545 S
C523   H830    1.088   1_545 S
C524   O549    1.296   .     A
C524   O547    1.303   .     A
Cu525  N542    2.021   .     S
Cu525  O547    1.945   .     S
Cu525  O543    1.956   .     S
Cu525  Cu526   2.689   .     S
Cu525  O546    1.952   .     S
Cu525  O550    1.923   .     S
Cu526  O548    1.945   .     S
Cu526  O544    1.956   .     S
Cu526  O549    1.923   .     S
Cu526  O545    1.952   .     S
Cu526  N541    2.021   .     S
H529   C822    1.088   1_545 S
H530   C673    1.088   .     S
H532   N592    1.029   .     S
H538   C555    1.084   .     S
N541   H581    1.029   .     S
N541   N592    1.286   .     S
C551   C572    1.428   .     S
C551   O595    1.286   .     A
C551   O593    1.292   .     A
C552   C554    1.468   .     S
C552   O598    1.303   .     A
C552   O600    1.296   .     A
C553   C559    1.400   .     A
C553   C557    1.397   .     A
C553   C574    1.468   .     S
C554   C558    1.397   .     A
C554   C560    1.400   .     A
C555   C557    1.392   .     A
C555   C564    1.405   .     A
C556   C558    1.392   .     A
C556   C565    1.405   .     A
C556   H489    1.084   1_655 S
C557   H587    1.083   .     S
C558   H586    1.083   .     S
C559   C561    1.407   .     A
C559   H585    1.074   .     S
C560   H584    1.074   .     S
C560   C563    1.407   .     A
C561   C564    1.418   .     A
C561   C566    1.430   .     A
C562   C573    1.428   .     S
C562   O596    1.286   .     A
C562   O594    1.292   .     A
C563   C567    1.430   .     A
C563   C565    1.418   .     A
C564   C120    1.389   1_556 S
C566   C569    1.418   .     A
C566   C117    1.427   1_556 S
C567   C568    1.418   .     A
C568   C570    1.386   .     A
C568   H590    1.075   .     S
C569   H578    1.075   .     S
C569   C571    1.386   .     A
C570   H577    1.085   .     S
C571   H583    1.085   .     S
C571   C115    1.389   1_556 S
C572   C723    1.328   .     S
C572   H729    1.088   .     S
C573   C872    1.328   1_545 S
C573   H880    1.088   1_545 S
C574   O599    1.296   .     A
C574   O597    1.303   .     A
Cu575  N592    2.021   .     S
Cu575  O597    1.945   .     S
Cu575  O593    1.956   .     S
Cu575  Cu576   2.689   .     S
Cu575  O596    1.952   .     S
Cu575  O600    1.923   .     S
Cu576  O598    1.945   .     S
Cu576  O594    1.956   .     S
Cu576  O599    1.923   .     S
Cu576  O595    1.952   .     S
Cu576  N591    2.021   .     S
H579   C872    1.088   1_545 S
H580   C723    1.088   .     S
H582   N492    1.029   1_655 S
H588   C455    1.084   1_655 S
N591   H481    1.029   1_655 S
N591   N492    1.286   1_655 S
C601   C622    1.428   .     S
C601   O645    1.286   .     A
C601   O643    1.292   .     A
C602   C604    1.468   .     S
C602   O648    1.303   .     A
C602   O650    1.296   .     A
C603   C609    1.400   .     A
C603   C607    1.397   .     A
C603   C624    1.468   .     S
C604   C608    1.397   .     A
C604   C610    1.400   .     A
C605   C607    1.392   .     A
C605   C614    1.405   .     A
C605   H738    1.084   1_455 S
C606   C608    1.392   .     A
C606   C615    1.405   .     A
C606   H689    1.084   .     S
C607   H637    1.083   .     S
C608   H636    1.083   .     S
C609   C611    1.407   .     A
C609   H635    1.074   .     S
C610   H634    1.074   .     S
C610   C613    1.407   .     A
C611   C614    1.418   .     A
C611   C616    1.430   .     A
C612   C623    1.428   .     S
C612   O646    1.286   .     A
C612   O644    1.292   .     A
C613   C617    1.430   .     A
C613   C615    1.418   .     A
C614   C170    1.389   1_556 S
C616   C619    1.418   .     A
C616   C167    1.427   1_556 S
C617   C618    1.418   .     A
C618   C620    1.386   .     A
C618   H640    1.075   .     S
C619   H628    1.075   .     S
C619   C621    1.386   .     A
C620   H627    1.085   .     S
C621   H633    1.085   .     S
C621   C165    1.389   1_556 S
C622   C773    1.328   .     S
C622   H779    1.088   .     S
C624   O649    1.296   .     A
C624   O647    1.303   .     A
Cu625  N642    2.021   .     S
Cu625  O647    1.945   .     S
Cu625  O643    1.956   .     S
Cu625  Cu626   2.689   .     S
Cu625  O646    1.952   .     S
Cu625  O650    1.923   .     S
Cu626  O648    1.945   .     S
Cu626  O644    1.956   .     S
Cu626  O649    1.923   .     S
Cu626  O645    1.952   .     S
Cu626  N641    2.021   .     S
H630   C773    1.088   .     S
H631   N741    1.029   1_455 S
H632   N692    1.029   .     S
H638   C655    1.084   .     S
H639   C706    1.084   1_455 S
N641   H681    1.029   .     S
N641   N692    1.286   .     S
N642   H732    1.029   1_455 S
N642   N741    1.286   1_455 S
C651   C672    1.428   .     S
C651   O695    1.286   .     A
C651   O693    1.292   .     A
C652   C654    1.468   .     S
C652   O698    1.303   .     A
C652   O700    1.296   .     A
C653   C659    1.400   .     A
C653   C657    1.397   .     A
C653   C674    1.468   .     S
C654   C658    1.397   .     A
C654   C660    1.400   .     A
C655   C657    1.392   .     A
C655   C664    1.405   .     A
C656   C658    1.392   .     A
C656   C665    1.405   .     A
C656   H739    1.084   .     S
C657   H687    1.083   .     S
C658   H686    1.083   .     S
C659   C661    1.407   .     A
C659   H685    1.074   .     S
C660   H684    1.074   .     S
C660   C663    1.407   .     A
C661   C664    1.418   .     A
C661   C666    1.430   .     A
C662   C673    1.428   .     S
C662   O696    1.286   .     A
C662   O694    1.292   .     A
C663   C667    1.430   .     A
C663   C665    1.418   .     A
C664   C220    1.389   1_556 S
C666   C669    1.418   .     A
C666   C217    1.427   1_556 S
C667   C668    1.418   .     A
C668   C670    1.386   .     A
C668   H690    1.075   .     S
C669   H678    1.075   .     S
C669   C671    1.386   .     A
C670   H677    1.085   .     S
C671   H683    1.085   .     S
C671   C215    1.389   1_556 S
C672   C823    1.328   .     S
C672   H829    1.088   .     S
C674   O699    1.296   .     A
C674   O697    1.303   .     A
Cu675  N692    2.021   .     S
Cu675  O697    1.945   .     S
Cu675  O693    1.956   .     S
Cu675  Cu676   2.689   .     S
Cu675  O696    1.952   .     S
Cu675  O700    1.923   .     S
Cu676  O698    1.945   .     S
Cu676  O694    1.956   .     S
Cu676  O699    1.923   .     S
Cu676  O695    1.952   .     S
Cu676  N691    2.021   .     S
H680   C823    1.088   .     S
H682   N742    1.029   .     S
H688   C705    1.084   .     S
N691   H731    1.029   .     S
N691   N742    1.286   .     S
C701   C722    1.428   .     S
C701   O745    1.286   .     A
C701   O743    1.292   .     A
C702   C704    1.468   .     S
C702   O748    1.303   .     A
C702   O750    1.296   .     A
C703   C709    1.400   .     A
C703   C707    1.397   .     A
C703   C724    1.468   .     S
C704   C708    1.397   .     A
C704   C710    1.400   .     A
C705   C707    1.392   .     A
C705   C714    1.405   .     A
C706   C708    1.392   .     A
C706   C715    1.405   .     A
C706   H639    1.084   1_655 S
C707   H737    1.083   .     S
C708   H736    1.083   .     S
C709   C711    1.407   .     A
C709   H735    1.074   .     S
C710   H734    1.074   .     S
C710   C713    1.407   .     A
C711   C714    1.418   .     A
C711   C716    1.430   .     A
C712   C723    1.428   .     S
C712   O746    1.286   .     A
C712   O744    1.292   .     A
C713   C717    1.430   .     A
C713   C715    1.418   .     A
C714   C270    1.389   1_556 S
C716   C719    1.418   .     A
C716   C267    1.427   1_556 S
C717   C718    1.418   .     A
C718   C720    1.386   .     A
C718   H740    1.075   .     S
C719   H728    1.075   .     S
C719   C721    1.386   .     A
C720   H727    1.085   .     S
C721   H733    1.085   .     S
C721   C265    1.389   1_556 S
C722   C873    1.328   .     S
C722   H879    1.088   .     S
C724   O749    1.296   .     A
C724   O747    1.303   .     A
Cu725  N742    2.021   .     S
Cu725  O747    1.945   .     S
Cu725  O743    1.956   .     S
Cu725  Cu726   2.689   .     S
Cu725  O746    1.952   .     S
Cu725  O750    1.923   .     S
Cu726  O748    1.945   .     S
Cu726  O744    1.956   .     S
Cu726  O749    1.923   .     S
Cu726  O745    1.952   .     S
Cu726  N741    2.021   .     S
H730   C873    1.088   .     S
H732   N642    1.029   1_655 S
H738   C605    1.084   1_655 S
N741   H631    1.029   1_655 S
N741   N642    1.286   1_655 S
C751   C772    1.428   .     S
C751   O795    1.286   .     A
C751   O793    1.292   .     A
C752   C754    1.468   .     S
C752   O798    1.303   .     A
C752   O800    1.296   .     A
C753   C759    1.400   .     A
C753   C757    1.397   .     A
C753   C774    1.468   .     S
C754   C758    1.397   .     A
C754   C760    1.400   .     A
C755   C757    1.392   .     A
C755   C764    1.405   .     A
C755   H888    1.084   1_455 S
C756   C758    1.392   .     A
C756   C765    1.405   .     A
C756   H839    1.084   .     S
C757   H787    1.083   .     S
C758   H786    1.083   .     S
C759   C761    1.407   .     A
C759   H785    1.074   .     S
C760   H784    1.074   .     S
C760   C763    1.407   .     A
C761   C764    1.418   .     A
C761   C766    1.430   .     A
C762   C773    1.428   .     S
C762   O796    1.286   .     A
C762   O794    1.292   .     A
C763   C767    1.430   .     A
C763   C765    1.418   .     A
C764   C320    1.389   1_556 S
C766   C769    1.418   .     A
C766   C317    1.427   1_556 S
C767   C768    1.418   .     A
C768   C770    1.386   .     A
C768   H790    1.075   .     S
C769   H778    1.075   .     S
C769   C771    1.386   .     A
C770   H777    1.085   .     S
C771   H783    1.085   .     S
C771   C315    1.389   1_556 S
C772   C473    1.328   1_565 S
C772   H479    1.088   1_565 S
C774   O799    1.296   .     A
C774   O797    1.303   .     A
Cu775  N792    2.021   .     S
Cu775  O797    1.945   .     S
Cu775  O793    1.956   .     S
Cu775  Cu776   2.689   .     S
Cu775  O796    1.952   .     S
Cu775  O800    1.923   .     S
Cu776  O798    1.945   .     S
Cu776  O794    1.956   .     S
Cu776  O799    1.923   .     S
Cu776  O795    1.952   .     S
Cu776  N791    2.021   .     S
H780   C473    1.088   1_565 S
H781   N891    1.029   1_455 S
H782   N842    1.029   .     S
H788   C805    1.084   .     S
H789   C856    1.084   1_455 S
N791   H831    1.029   .     S
N791   N842    1.286   .     S
N792   H882    1.029   1_455 S
N792   N891    1.286   1_455 S
C801   C822    1.428   .     S
C801   O845    1.286   .     A
C801   O843    1.292   .     A
C802   C804    1.468   .     S
C802   O848    1.303   .     A
C802   O850    1.296   .     A
C803   C809    1.400   .     A
C803   C807    1.397   .     A
C803   C824    1.468   .     S
C804   C808    1.397   .     A
C804   C810    1.400   .     A
C805   C807    1.392   .     A
C805   C814    1.405   .     A
C806   C808    1.392   .     A
C806   C815    1.405   .     A
C806   H889    1.084   .     S
C807   H837    1.083   .     S
C808   H836    1.083   .     S
C809   C811    1.407   .     A
C809   H835    1.074   .     S
C810   H834    1.074   .     S
C810   C813    1.407   .     A
C811   C814    1.418   .     A
C811   C816    1.430   .     A
C812   C823    1.428   .     S
C812   O846    1.286   .     A
C812   O844    1.292   .     A
C813   C817    1.430   .     A
C813   C815    1.418   .     A
C814   C370    1.389   1_556 S
C816   C819    1.418   .     A
C816   C367    1.427   1_556 S
C817   C818    1.418   .     A
C818   C820    1.386   .     A
C818   H840    1.075   .     S
C819   H828    1.075   .     S
C819   C821    1.386   .     A
C820   H827    1.085   .     S
C821   H833    1.085   .     S
C821   C365    1.389   1_556 S
C822   C523    1.328   1_565 S
C822   H529    1.088   1_565 S
C824   O849    1.296   .     A
C824   O847    1.303   .     A
Cu825  N842    2.021   .     S
Cu825  O847    1.945   .     S
Cu825  O843    1.956   .     S
Cu825  Cu826   2.689   .     S
Cu825  O846    1.952   .     S
Cu825  O850    1.923   .     S
Cu826  O848    1.945   .     S
Cu826  O844    1.956   .     S
Cu826  O849    1.923   .     S
Cu826  O845    1.952   .     S
Cu826  N841    2.021   .     S
H830   C523    1.088   1_565 S
H832   N892    1.029   .     S
H838   C855    1.084   .     S
N841   H881    1.029   .     S
N841   N892    1.286   .     S
C851   C872    1.428   .     S
C851   O895    1.286   .     A
C851   O893    1.292   .     A
C852   C854    1.468   .     S
C852   O898    1.303   .     A
C852   O900    1.296   .     A
C853   C859    1.400   .     A
C853   C857    1.397   .     A
C853   C874    1.468   .     S
C854   C858    1.397   .     A
C854   C860    1.400   .     A
C855   C857    1.392   .     A
C855   C864    1.405   .     A
C856   C858    1.392   .     A
C856   C865    1.405   .     A
C856   H789    1.084   1_655 S
C857   H887    1.083   .     S
C858   H886    1.083   .     S
C859   C861    1.407   .     A
C859   H885    1.074   .     S
C860   H884    1.074   .     S
C860   C863    1.407   .     A
C861   C864    1.418   .     A
C861   C866    1.430   .     A
C862   C873    1.428   .     S
C862   O896    1.286   .     A
C862   O894    1.292   .     A
C863   C867    1.430   .     A
C863   C865    1.418   .     A
C864   C420    1.389   1_556 S
C866   C869    1.418   .     A
C866   C417    1.427   1_556 S
C867   C868    1.418   .     A
C868   C870    1.386   .     A
C868   H890    1.075   .     S
C869   H878    1.075   .     S
C869   C871    1.386   .     A
C870   H877    1.085   .     S
C871   H883    1.085   .     S
C871   C415    1.389   1_556 S
C872   C573    1.328   1_565 S
C872   H579    1.088   1_565 S
C874   O899    1.296   .     A
C874   O897    1.303   .     A
Cu875  N892    2.021   .     S
Cu875  O897    1.945   .     S
Cu875  O893    1.956   .     S
Cu875  Cu876   2.689   .     S
Cu875  O896    1.952   .     S
Cu875  O900    1.923   .     S
Cu876  O898    1.945   .     S
Cu876  O894    1.956   .     S
Cu876  O899    1.923   .     S
Cu876  O895    1.952   .     S
Cu876  N891    2.021   .     S
H880   C573    1.088   1_565 S
H882   N792    1.029   1_655 S
H888   C755    1.084   1_655 S
N891   H781    1.029   1_655 S
N891   N792    1.286   1_655 S
