data_str_m1_o10_o16_pcu_sym.180
_audit_creation_date              2020-01-03
_audit_creation_method            'Materials Studio'
_symmetry_space_group_name_H-M    'P1'
_symmetry_Int_Tables_number       1
_symmetry_cell_setting            triclinic
loop_
_symmetry_equiv_pos_as_xyz
  x,y,z
_cell_length_a                    32.5022
_cell_length_b                    32.6445
_cell_length_c                    31.0208
_cell_angle_alpha                 97.1532
_cell_angle_beta                  74.9220
_cell_angle_gamma                 98.5310
loop_
_atom_site_label
_atom_site_type_symbol
_atom_site_fract_x
_atom_site_fract_y
_atom_site_fract_z
_atom_site_U_iso_or_equiv
_atom_site_adp_type
_atom_site_occupancy
Br1    Br    0.20930   0.05608   0.09389   0.00000  Uiso   1.00
Br2    Br    0.09629   0.32643   0.30397   0.00000  Uiso   1.00
Br3    Br    0.13486   0.28241   0.40310   0.00000  Uiso   1.00
C4     C     0.05268   0.15958   0.26002   0.00000  Uiso   1.00
C5     C     0.18168   0.16710   0.05696   0.00000  Uiso   1.00
C6     C     0.19551   0.09706   0.06223   0.00000  Uiso   1.00
C7     C     0.28069   0.17380   0.24008   0.00000  Uiso   1.00
C8     C     0.14605   0.19750   0.41927   0.00000  Uiso   1.00
C9     C     0.32654   0.17658   0.23623   0.00000  Uiso   1.00
C10    C     0.00741   0.15706   0.26380   0.00000  Uiso   1.00
C11    C     0.17980   0.32243   0.23866   0.00000  Uiso   1.00
C12    C     0.15014   0.01239   0.26417   0.00000  Uiso   1.00
C13    C     0.15651   0.05597   0.25955   0.00000  Uiso   1.00
C14    C     0.17622   0.27783   0.24050   0.00000  Uiso   1.00
C15    C     0.14734   0.25256   0.47957   0.00000  Uiso   1.00
C16    C     0.18521   0.14761   0.12937   0.00000  Uiso   1.00
C17    C     0.14894   0.18527   0.37100   0.00000  Uiso   1.00
C18    C     0.18829   0.08497   0.02000   0.00000  Uiso   1.00
C19    C     0.19098   0.13799   0.08124   0.00000  Uiso   1.00
C20    C     0.14251   0.23948   0.43663   0.00000  Uiso   1.00
C21    C     0.15749   0.22555   0.00529   0.00000  Uiso   1.00
C22    C     0.16131   0.18344   0.48950   0.00000  Uiso   1.00
C23    C     0.15298   0.16890   0.44700   0.00000  Uiso   1.00
C24    C     0.17328   0.15528   0.01444   0.00000  Uiso   1.00
C25    C     0.17585   0.11316   0.49674   0.00000  Uiso   1.00
C26    C     0.16422   0.09892   0.45688   0.00000  Uiso   1.00
C27    C     0.15177   0.12601   0.43311   0.00000  Uiso   1.00
H28    H     0.31914   0.13891   0.28945   0.00000  Uiso   1.00
H29    H     0.20792   0.00372   0.21578   0.00000  Uiso   1.00
H30    H     0.16408   0.06640   0.44430   0.00000  Uiso   1.00
H31    H     0.19070   0.05299   0.00616   0.00000  Uiso   1.00
H32    H     0.17819   0.19777   0.07372   0.00000  Uiso   1.00
H33    H     0.16226   0.23895   0.03737   0.00000  Uiso   1.00
H34    H     0.14493   0.28471   0.49265   0.00000  Uiso   1.00
H35    H     0.14076   0.11257   0.40386   0.00000  Uiso   1.00
H36    H     0.01553   0.19457   0.21083   0.00000  Uiso   1.00
O37    O     0.16667   0.16667   0.25000   0.00000  Uiso   1.00
O38    O     0.15451   0.12637   0.15458   0.00000  Uiso   1.00
O39    O     0.12940   0.20391   0.34968   0.00000  Uiso   1.00
O40    O     0.20824   0.17759   0.14606   0.00000  Uiso   1.00
O41    O     0.17451   0.15880   0.34968   0.00000  Uiso   1.00
O42    O     0.17930   0.08019   0.28213   0.00000  Uiso   1.00
O43    O     0.14632   0.26085   0.27013   0.00000  Uiso   1.00
O44    O     0.07412   0.13291   0.23413   0.00000  Uiso   1.00
O45    O     0.26693   0.19272   0.21360   0.00000  Uiso   1.00
O46    O     0.07071   0.18878   0.28213   0.00000  Uiso   1.00
O47    O     0.25491   0.15226   0.27013   0.00000  Uiso   1.00
O48    O     0.13760   0.06944   0.23413   0.00000  Uiso   1.00
O49    O     0.20345   0.25620   0.21360   0.00000  Uiso   1.00
Zn50   Zn    0.19338   0.13994   0.28734   0.00000  Uiso   1.00
Zn51   Zn    0.13379   0.12458   0.21875   0.00000  Uiso   1.00
Zn52   Zn    0.21056   0.19775   0.20657   0.00000  Uiso   1.00
Zn53   Zn    0.12893   0.20439   0.28733   0.00000  Uiso   1.00
Br54   Br    0.54263   0.05608   0.09389   0.00000  Uiso   1.00
Br55   Br    0.42962   0.32643   0.30397   0.00000  Uiso   1.00
Br56   Br    0.46820   0.28241   0.40310   0.00000  Uiso   1.00
C57    C     0.38601   0.15958   0.26002   0.00000  Uiso   1.00
C58    C     0.51502   0.16710   0.05696   0.00000  Uiso   1.00
C59    C     0.52884   0.09706   0.06223   0.00000  Uiso   1.00
C60    C     0.61402   0.17380   0.24008   0.00000  Uiso   1.00
C61    C     0.47939   0.19750   0.41927   0.00000  Uiso   1.00
C62    C     0.65987   0.17658   0.23623   0.00000  Uiso   1.00
C63    C     0.34074   0.15706   0.26380   0.00000  Uiso   1.00
C64    C     0.51313   0.32243   0.23866   0.00000  Uiso   1.00
C65    C     0.48347   0.01239   0.26417   0.00000  Uiso   1.00
C66    C     0.48984   0.05597   0.25955   0.00000  Uiso   1.00
C67    C     0.50955   0.27783   0.24050   0.00000  Uiso   1.00
C68    C     0.48067   0.25256   0.47957   0.00000  Uiso   1.00
C69    C     0.51854   0.14761   0.12937   0.00000  Uiso   1.00
C70    C     0.48228   0.18527   0.37100   0.00000  Uiso   1.00
C71    C     0.52162   0.08497   0.02000   0.00000  Uiso   1.00
C72    C     0.52431   0.13799   0.08124   0.00000  Uiso   1.00
C73    C     0.47585   0.23948   0.43663   0.00000  Uiso   1.00
C74    C     0.49082   0.22555   0.00529   0.00000  Uiso   1.00
C75    C     0.49465   0.18344   0.48950   0.00000  Uiso   1.00
C76    C     0.48631   0.16890   0.44700   0.00000  Uiso   1.00
C77    C     0.50662   0.15528   0.01444   0.00000  Uiso   1.00
C78    C     0.50918   0.11316   0.49674   0.00000  Uiso   1.00
C79    C     0.49756   0.09892   0.45688   0.00000  Uiso   1.00
C80    C     0.48511   0.12601   0.43311   0.00000  Uiso   1.00
H81    H     0.65248   0.13891   0.28945   0.00000  Uiso   1.00
H82    H     0.54125   0.00372   0.21578   0.00000  Uiso   1.00
H83    H     0.49742   0.06640   0.44430   0.00000  Uiso   1.00
H84    H     0.52403   0.05299   0.00616   0.00000  Uiso   1.00
H85    H     0.51152   0.19777   0.07372   0.00000  Uiso   1.00
H86    H     0.49559   0.23895   0.03737   0.00000  Uiso   1.00
H87    H     0.47826   0.28471   0.49265   0.00000  Uiso   1.00
H88    H     0.47409   0.11257   0.40386   0.00000  Uiso   1.00
H89    H     0.34886   0.19457   0.21083   0.00000  Uiso   1.00
O90    O     0.50000   0.16667   0.25000   0.00000  Uiso   1.00
O91    O     0.48784   0.12637   0.15458   0.00000  Uiso   1.00
O92    O     0.46274   0.20391   0.34968   0.00000  Uiso   1.00
O93    O     0.54157   0.17759   0.14606   0.00000  Uiso   1.00
O94    O     0.50785   0.15880   0.34968   0.00000  Uiso   1.00
O95    O     0.51264   0.08019   0.28213   0.00000  Uiso   1.00
O96    O     0.47965   0.26085   0.27013   0.00000  Uiso   1.00
O97    O     0.40745   0.13291   0.23413   0.00000  Uiso   1.00
O98    O     0.60026   0.19272   0.21360   0.00000  Uiso   1.00
O99    O     0.40405   0.18878   0.28213   0.00000  Uiso   1.00
O100   O     0.58824   0.15226   0.27013   0.00000  Uiso   1.00
O101   O     0.47093   0.06944   0.23413   0.00000  Uiso   1.00
O102   O     0.53678   0.25620   0.21360   0.00000  Uiso   1.00
Zn103  Zn    0.52672   0.13994   0.28734   0.00000  Uiso   1.00
Zn104  Zn    0.46713   0.12458   0.21875   0.00000  Uiso   1.00
Zn105  Zn    0.54389   0.19775   0.20657   0.00000  Uiso   1.00
Zn106  Zn    0.46226   0.20439   0.28733   0.00000  Uiso   1.00
Br107  Br    0.87597   0.05608   0.09389   0.00000  Uiso   1.00
Br108  Br    0.76296   0.32643   0.30397   0.00000  Uiso   1.00
Br109  Br    0.80153   0.28241   0.40310   0.00000  Uiso   1.00
C110   C     0.71934   0.15958   0.26002   0.00000  Uiso   1.00
C111   C     0.84835   0.16710   0.05696   0.00000  Uiso   1.00
C112   C     0.86218   0.09706   0.06223   0.00000  Uiso   1.00
C113   C     0.94735   0.17380   0.24008   0.00000  Uiso   1.00
C114   C     0.81272   0.19750   0.41927   0.00000  Uiso   1.00
C115   C     0.99321   0.17658   0.23623   0.00000  Uiso   1.00
C116   C     0.67408   0.15706   0.26380   0.00000  Uiso   1.00
C117   C     0.84647   0.32243   0.23866   0.00000  Uiso   1.00
C118   C     0.81681   0.01239   0.26417   0.00000  Uiso   1.00
C119   C     0.82318   0.05597   0.25955   0.00000  Uiso   1.00
C120   C     0.84289   0.27783   0.24050   0.00000  Uiso   1.00
C121   C     0.81400   0.25256   0.47957   0.00000  Uiso   1.00
C122   C     0.85187   0.14761   0.12937   0.00000  Uiso   1.00
C123   C     0.81561   0.18527   0.37100   0.00000  Uiso   1.00
C124   C     0.85495   0.08497   0.02000   0.00000  Uiso   1.00
C125   C     0.85764   0.13799   0.08124   0.00000  Uiso   1.00
C126   C     0.80918   0.23948   0.43663   0.00000  Uiso   1.00
C127   C     0.82415   0.22555   0.00529   0.00000  Uiso   1.00
C128   C     0.82798   0.18344   0.48950   0.00000  Uiso   1.00
C129   C     0.81965   0.16890   0.44700   0.00000  Uiso   1.00
C130   C     0.83995   0.15528   0.01444   0.00000  Uiso   1.00
C131   C     0.84251   0.11316   0.49674   0.00000  Uiso   1.00
C132   C     0.83089   0.09892   0.45688   0.00000  Uiso   1.00
C133   C     0.81844   0.12601   0.43311   0.00000  Uiso   1.00
H134   H     0.98581   0.13891   0.28945   0.00000  Uiso   1.00
H135   H     0.87458   0.00372   0.21578   0.00000  Uiso   1.00
H136   H     0.83075   0.06640   0.44430   0.00000  Uiso   1.00
H137   H     0.85737   0.05299   0.00616   0.00000  Uiso   1.00
H138   H     0.84486   0.19777   0.07372   0.00000  Uiso   1.00
H139   H     0.82892   0.23895   0.03737   0.00000  Uiso   1.00
H140   H     0.81159   0.28471   0.49265   0.00000  Uiso   1.00
H141   H     0.80742   0.11257   0.40386   0.00000  Uiso   1.00
H142   H     0.68219   0.19457   0.21083   0.00000  Uiso   1.00
O143   O     0.83333   0.16667   0.25000   0.00000  Uiso   1.00
O144   O     0.82118   0.12637   0.15458   0.00000  Uiso   1.00
O145   O     0.79607   0.20391   0.34968   0.00000  Uiso   1.00
O146   O     0.87491   0.17759   0.14606   0.00000  Uiso   1.00
O147   O     0.84118   0.15880   0.34968   0.00000  Uiso   1.00
O148   O     0.84597   0.08019   0.28213   0.00000  Uiso   1.00
O149   O     0.81298   0.26085   0.27013   0.00000  Uiso   1.00
O150   O     0.74078   0.13291   0.23413   0.00000  Uiso   1.00
O151   O     0.93360   0.19272   0.21360   0.00000  Uiso   1.00
O152   O     0.73738   0.18878   0.28213   0.00000  Uiso   1.00
O153   O     0.92158   0.15226   0.27013   0.00000  Uiso   1.00
O154   O     0.80426   0.06944   0.23413   0.00000  Uiso   1.00
O155   O     0.87012   0.25620   0.21360   0.00000  Uiso   1.00
Zn156  Zn    0.86005   0.13994   0.28734   0.00000  Uiso   1.00
Zn157  Zn    0.80046   0.12458   0.21875   0.00000  Uiso   1.00
Zn158  Zn    0.87723   0.19775   0.20657   0.00000  Uiso   1.00
Zn159  Zn    0.79560   0.20439   0.28733   0.00000  Uiso   1.00
Br160  Br    0.20930   0.38941   0.09389   0.00000  Uiso   1.00
Br161  Br    0.09629   0.65976   0.30397   0.00000  Uiso   1.00
Br162  Br    0.13486   0.61574   0.40310   0.00000  Uiso   1.00
C163   C     0.05268   0.49291   0.26002   0.00000  Uiso   1.00
C164   C     0.18168   0.50043   0.05696   0.00000  Uiso   1.00
C165   C     0.19551   0.43040   0.06223   0.00000  Uiso   1.00
C166   C     0.28069   0.50713   0.24008   0.00000  Uiso   1.00
C167   C     0.14605   0.53084   0.41927   0.00000  Uiso   1.00
C168   C     0.32654   0.50992   0.23623   0.00000  Uiso   1.00
C169   C     0.00741   0.49039   0.26380   0.00000  Uiso   1.00
C170   C     0.17980   0.65576   0.23866   0.00000  Uiso   1.00
C171   C     0.15014   0.34572   0.26417   0.00000  Uiso   1.00
C172   C     0.15651   0.38930   0.25955   0.00000  Uiso   1.00
C173   C     0.17622   0.61117   0.24050   0.00000  Uiso   1.00
C174   C     0.14734   0.58589   0.47957   0.00000  Uiso   1.00
C175   C     0.18521   0.48094   0.12937   0.00000  Uiso   1.00
C176   C     0.14894   0.51860   0.37100   0.00000  Uiso   1.00
C177   C     0.18829   0.41830   0.02000   0.00000  Uiso   1.00
C178   C     0.19098   0.47133   0.08124   0.00000  Uiso   1.00
C179   C     0.14251   0.57281   0.43663   0.00000  Uiso   1.00
C180   C     0.15749   0.55888   0.00529   0.00000  Uiso   1.00
C181   C     0.16131   0.51678   0.48950   0.00000  Uiso   1.00
C182   C     0.15298   0.50224   0.44700   0.00000  Uiso   1.00
C183   C     0.17328   0.48861   0.01444   0.00000  Uiso   1.00
C184   C     0.17585   0.44649   0.49674   0.00000  Uiso   1.00
C185   C     0.16422   0.43226   0.45688   0.00000  Uiso   1.00
C186   C     0.15177   0.45934   0.43311   0.00000  Uiso   1.00
H187   H     0.31914   0.47224   0.28945   0.00000  Uiso   1.00
H188   H     0.20792   0.33706   0.21578   0.00000  Uiso   1.00
H189   H     0.16408   0.39973   0.44430   0.00000  Uiso   1.00
H190   H     0.19070   0.38632   0.00616   0.00000  Uiso   1.00
H191   H     0.17819   0.53111   0.07372   0.00000  Uiso   1.00
H192   H     0.16226   0.57228   0.03737   0.00000  Uiso   1.00
H193   H     0.14493   0.61804   0.49265   0.00000  Uiso   1.00
H194   H     0.14076   0.44591   0.40386   0.00000  Uiso   1.00
H195   H     0.01553   0.52790   0.21083   0.00000  Uiso   1.00
O196   O     0.16667   0.50000   0.25000   0.00000  Uiso   1.00
O197   O     0.15451   0.45970   0.15458   0.00000  Uiso   1.00
O198   O     0.12940   0.53724   0.34968   0.00000  Uiso   1.00
O199   O     0.20824   0.51092   0.14606   0.00000  Uiso   1.00
O200   O     0.17451   0.49213   0.34968   0.00000  Uiso   1.00
O201   O     0.17930   0.41352   0.28213   0.00000  Uiso   1.00
O202   O     0.14632   0.59418   0.27013   0.00000  Uiso   1.00
O203   O     0.07412   0.46625   0.23413   0.00000  Uiso   1.00
O204   O     0.26693   0.52605   0.21360   0.00000  Uiso   1.00
O205   O     0.07071   0.52211   0.28213   0.00000  Uiso   1.00
O206   O     0.25491   0.48559   0.27013   0.00000  Uiso   1.00
O207   O     0.13760   0.40277   0.23413   0.00000  Uiso   1.00
O208   O     0.20345   0.58953   0.21360   0.00000  Uiso   1.00
Zn209  Zn    0.19338   0.47327   0.28734   0.00000  Uiso   1.00
Zn210  Zn    0.13379   0.45791   0.21875   0.00000  Uiso   1.00
Zn211  Zn    0.21056   0.53109   0.20657   0.00000  Uiso   1.00
Zn212  Zn    0.12893   0.53773   0.28733   0.00000  Uiso   1.00
Br213  Br    0.54263   0.38941   0.09389   0.00000  Uiso   1.00
Br214  Br    0.42962   0.65976   0.30397   0.00000  Uiso   1.00
Br215  Br    0.46820   0.61574   0.40310   0.00000  Uiso   1.00
C216   C     0.38601   0.49291   0.26002   0.00000  Uiso   1.00
C217   C     0.51502   0.50043   0.05696   0.00000  Uiso   1.00
C218   C     0.52884   0.43040   0.06223   0.00000  Uiso   1.00
C219   C     0.61402   0.50713   0.24008   0.00000  Uiso   1.00
C220   C     0.47939   0.53084   0.41927   0.00000  Uiso   1.00
C221   C     0.65987   0.50992   0.23623   0.00000  Uiso   1.00
C222   C     0.34074   0.49039   0.26380   0.00000  Uiso   1.00
C223   C     0.51313   0.65576   0.23866   0.00000  Uiso   1.00
C224   C     0.48347   0.34572   0.26417   0.00000  Uiso   1.00
C225   C     0.48984   0.38930   0.25955   0.00000  Uiso   1.00
C226   C     0.50955   0.61117   0.24050   0.00000  Uiso   1.00
C227   C     0.48067   0.58589   0.47957   0.00000  Uiso   1.00
C228   C     0.51854   0.48094   0.12937   0.00000  Uiso   1.00
C229   C     0.48228   0.51860   0.37100   0.00000  Uiso   1.00
C230   C     0.52162   0.41830   0.02000   0.00000  Uiso   1.00
C231   C     0.52431   0.47133   0.08124   0.00000  Uiso   1.00
C232   C     0.47585   0.57281   0.43663   0.00000  Uiso   1.00
C233   C     0.49082   0.55888   0.00529   0.00000  Uiso   1.00
C234   C     0.49465   0.51678   0.48950   0.00000  Uiso   1.00
C235   C     0.48631   0.50224   0.44700   0.00000  Uiso   1.00
C236   C     0.50662   0.48861   0.01444   0.00000  Uiso   1.00
C237   C     0.50918   0.44649   0.49674   0.00000  Uiso   1.00
C238   C     0.49756   0.43226   0.45688   0.00000  Uiso   1.00
C239   C     0.48511   0.45934   0.43311   0.00000  Uiso   1.00
H240   H     0.65248   0.47224   0.28945   0.00000  Uiso   1.00
H241   H     0.54125   0.33706   0.21578   0.00000  Uiso   1.00
H242   H     0.49742   0.39973   0.44430   0.00000  Uiso   1.00
H243   H     0.52403   0.38632   0.00616   0.00000  Uiso   1.00
H244   H     0.51152   0.53111   0.07372   0.00000  Uiso   1.00
H245   H     0.49559   0.57228   0.03737   0.00000  Uiso   1.00
H246   H     0.47826   0.61804   0.49265   0.00000  Uiso   1.00
H247   H     0.47409   0.44591   0.40386   0.00000  Uiso   1.00
H248   H     0.34886   0.52790   0.21083   0.00000  Uiso   1.00
O249   O     0.50000   0.50000   0.25000   0.00000  Uiso   1.00
O250   O     0.48784   0.45970   0.15458   0.00000  Uiso   1.00
O251   O     0.46274   0.53724   0.34968   0.00000  Uiso   1.00
O252   O     0.54157   0.51092   0.14606   0.00000  Uiso   1.00
O253   O     0.50785   0.49213   0.34968   0.00000  Uiso   1.00
O254   O     0.51264   0.41352   0.28213   0.00000  Uiso   1.00
O255   O     0.47965   0.59418   0.27013   0.00000  Uiso   1.00
O256   O     0.40745   0.46625   0.23413   0.00000  Uiso   1.00
O257   O     0.60026   0.52605   0.21360   0.00000  Uiso   1.00
O258   O     0.40405   0.52211   0.28213   0.00000  Uiso   1.00
O259   O     0.58824   0.48559   0.27013   0.00000  Uiso   1.00
O260   O     0.47093   0.40277   0.23413   0.00000  Uiso   1.00
O261   O     0.53678   0.58953   0.21360   0.00000  Uiso   1.00
Zn262  Zn    0.52672   0.47327   0.28734   0.00000  Uiso   1.00
Zn263  Zn    0.46713   0.45791   0.21875   0.00000  Uiso   1.00
Zn264  Zn    0.54389   0.53109   0.20657   0.00000  Uiso   1.00
Zn265  Zn    0.46226   0.53773   0.28733   0.00000  Uiso   1.00
Br266  Br    0.87597   0.38941   0.09389   0.00000  Uiso   1.00
Br267  Br    0.76296   0.65976   0.30397   0.00000  Uiso   1.00
Br268  Br    0.80153   0.61574   0.40310   0.00000  Uiso   1.00
C269   C     0.71934   0.49291   0.26002   0.00000  Uiso   1.00
C270   C     0.84835   0.50043   0.05696   0.00000  Uiso   1.00
C271   C     0.86218   0.43040   0.06223   0.00000  Uiso   1.00
C272   C     0.94735   0.50713   0.24008   0.00000  Uiso   1.00
C273   C     0.81272   0.53084   0.41927   0.00000  Uiso   1.00
C274   C     0.99321   0.50992   0.23623   0.00000  Uiso   1.00
C275   C     0.67408   0.49039   0.26380   0.00000  Uiso   1.00
C276   C     0.84647   0.65576   0.23866   0.00000  Uiso   1.00
C277   C     0.81681   0.34572   0.26417   0.00000  Uiso   1.00
C278   C     0.82318   0.38930   0.25955   0.00000  Uiso   1.00
C279   C     0.84289   0.61117   0.24050   0.00000  Uiso   1.00
C280   C     0.81400   0.58589   0.47957   0.00000  Uiso   1.00
C281   C     0.85187   0.48094   0.12937   0.00000  Uiso   1.00
C282   C     0.81561   0.51860   0.37100   0.00000  Uiso   1.00
C283   C     0.85495   0.41830   0.02000   0.00000  Uiso   1.00
C284   C     0.85764   0.47133   0.08124   0.00000  Uiso   1.00
C285   C     0.80918   0.57281   0.43663   0.00000  Uiso   1.00
C286   C     0.82415   0.55888   0.00529   0.00000  Uiso   1.00
C287   C     0.82798   0.51678   0.48950   0.00000  Uiso   1.00
C288   C     0.81965   0.50224   0.44700   0.00000  Uiso   1.00
C289   C     0.83995   0.48861   0.01444   0.00000  Uiso   1.00
C290   C     0.84251   0.44649   0.49674   0.00000  Uiso   1.00
C291   C     0.83089   0.43226   0.45688   0.00000  Uiso   1.00
C292   C     0.81844   0.45934   0.43311   0.00000  Uiso   1.00
H293   H     0.98581   0.47224   0.28945   0.00000  Uiso   1.00
H294   H     0.87458   0.33706   0.21578   0.00000  Uiso   1.00
H295   H     0.83075   0.39973   0.44430   0.00000  Uiso   1.00
H296   H     0.85737   0.38632   0.00616   0.00000  Uiso   1.00
H297   H     0.84486   0.53111   0.07372   0.00000  Uiso   1.00
H298   H     0.82892   0.57228   0.03737   0.00000  Uiso   1.00
H299   H     0.81159   0.61804   0.49265   0.00000  Uiso   1.00
H300   H     0.80742   0.44591   0.40386   0.00000  Uiso   1.00
H301   H     0.68219   0.52790   0.21083   0.00000  Uiso   1.00
O302   O     0.83333   0.50000   0.25000   0.00000  Uiso   1.00
O303   O     0.82118   0.45970   0.15458   0.00000  Uiso   1.00
O304   O     0.79607   0.53724   0.34968   0.00000  Uiso   1.00
O305   O     0.87491   0.51092   0.14606   0.00000  Uiso   1.00
O306   O     0.84118   0.49213   0.34968   0.00000  Uiso   1.00
O307   O     0.84597   0.41352   0.28213   0.00000  Uiso   1.00
O308   O     0.81298   0.59418   0.27013   0.00000  Uiso   1.00
O309   O     0.74078   0.46625   0.23413   0.00000  Uiso   1.00
O310   O     0.93360   0.52605   0.21360   0.00000  Uiso   1.00
O311   O     0.73738   0.52211   0.28213   0.00000  Uiso   1.00
O312   O     0.92158   0.48559   0.27013   0.00000  Uiso   1.00
O313   O     0.80426   0.40277   0.23413   0.00000  Uiso   1.00
O314   O     0.87012   0.58953   0.21360   0.00000  Uiso   1.00
Zn315  Zn    0.86005   0.47327   0.28734   0.00000  Uiso   1.00
Zn316  Zn    0.80046   0.45791   0.21875   0.00000  Uiso   1.00
Zn317  Zn    0.87723   0.53109   0.20657   0.00000  Uiso   1.00
Zn318  Zn    0.79560   0.53773   0.28733   0.00000  Uiso   1.00
Br319  Br    0.20930   0.72274   0.09389   0.00000  Uiso   1.00
Br320  Br    0.09629   0.99310   0.30397   0.00000  Uiso   1.00
Br321  Br    0.13486   0.94907   0.40310   0.00000  Uiso   1.00
C322   C     0.05268   0.82625   0.26002   0.00000  Uiso   1.00
C323   C     0.18168   0.83376   0.05696   0.00000  Uiso   1.00
C324   C     0.19551   0.76373   0.06223   0.00000  Uiso   1.00
C325   C     0.28069   0.84046   0.24008   0.00000  Uiso   1.00
C326   C     0.14605   0.86417   0.41927   0.00000  Uiso   1.00
C327   C     0.32654   0.84325   0.23623   0.00000  Uiso   1.00
C328   C     0.00741   0.82373   0.26380   0.00000  Uiso   1.00
C329   C     0.17980   0.98910   0.23866   0.00000  Uiso   1.00
C330   C     0.15014   0.67905   0.26417   0.00000  Uiso   1.00
C331   C     0.15651   0.72264   0.25955   0.00000  Uiso   1.00
C332   C     0.17622   0.94450   0.24050   0.00000  Uiso   1.00
C333   C     0.14734   0.91923   0.47957   0.00000  Uiso   1.00
C334   C     0.18521   0.81428   0.12937   0.00000  Uiso   1.00
C335   C     0.14894   0.85194   0.37100   0.00000  Uiso   1.00
C336   C     0.18829   0.75164   0.02000   0.00000  Uiso   1.00
C337   C     0.19098   0.80466   0.08124   0.00000  Uiso   1.00
C338   C     0.14251   0.90615   0.43663   0.00000  Uiso   1.00
C339   C     0.15749   0.89222   0.00529   0.00000  Uiso   1.00
C340   C     0.16131   0.85011   0.48950   0.00000  Uiso   1.00
C341   C     0.15298   0.83557   0.44700   0.00000  Uiso   1.00
C342   C     0.17328   0.82194   0.01444   0.00000  Uiso   1.00
C343   C     0.17585   0.77983   0.49674   0.00000  Uiso   1.00
C344   C     0.16422   0.76559   0.45688   0.00000  Uiso   1.00
C345   C     0.15177   0.79268   0.43311   0.00000  Uiso   1.00
H346   H     0.31914   0.80558   0.28945   0.00000  Uiso   1.00
H347   H     0.20792   0.67039   0.21578   0.00000  Uiso   1.00
H348   H     0.16408   0.73307   0.44430   0.00000  Uiso   1.00
H349   H     0.19070   0.71965   0.00616   0.00000  Uiso   1.00
H350   H     0.17819   0.86444   0.07372   0.00000  Uiso   1.00
H351   H     0.16226   0.90561   0.03737   0.00000  Uiso   1.00
H352   H     0.14493   0.95137   0.49265   0.00000  Uiso   1.00
H353   H     0.14076   0.77924   0.40386   0.00000  Uiso   1.00
H354   H     0.01553   0.86123   0.21083   0.00000  Uiso   1.00
O355   O     0.16667   0.83333   0.25000   0.00000  Uiso   1.00
O356   O     0.15451   0.79304   0.15458   0.00000  Uiso   1.00
O357   O     0.12940   0.87058   0.34968   0.00000  Uiso   1.00
O358   O     0.20824   0.84425   0.14606   0.00000  Uiso   1.00
O359   O     0.17451   0.82546   0.34968   0.00000  Uiso   1.00
O360   O     0.17930   0.74686   0.28213   0.00000  Uiso   1.00
O361   O     0.14632   0.92751   0.27013   0.00000  Uiso   1.00
O362   O     0.07412   0.79958   0.23413   0.00000  Uiso   1.00
O363   O     0.26693   0.85939   0.21360   0.00000  Uiso   1.00
O364   O     0.07071   0.85544   0.28213   0.00000  Uiso   1.00
O365   O     0.25491   0.81892   0.27013   0.00000  Uiso   1.00
O366   O     0.13760   0.73610   0.23413   0.00000  Uiso   1.00
O367   O     0.20345   0.92286   0.21360   0.00000  Uiso   1.00
Zn368  Zn    0.19338   0.80661   0.28734   0.00000  Uiso   1.00
Zn369  Zn    0.13379   0.79124   0.21875   0.00000  Uiso   1.00
Zn370  Zn    0.21056   0.86442   0.20657   0.00000  Uiso   1.00
Zn371  Zn    0.12893   0.87106   0.28733   0.00000  Uiso   1.00
Br372  Br    0.54263   0.72274   0.09389   0.00000  Uiso   1.00
Br373  Br    0.42962   0.99310   0.30397   0.00000  Uiso   1.00
Br374  Br    0.46820   0.94907   0.40310   0.00000  Uiso   1.00
C375   C     0.38601   0.82625   0.26002   0.00000  Uiso   1.00
C376   C     0.51502   0.83376   0.05696   0.00000  Uiso   1.00
C377   C     0.52884   0.76373   0.06223   0.00000  Uiso   1.00
C378   C     0.61402   0.84046   0.24008   0.00000  Uiso   1.00
C379   C     0.47939   0.86417   0.41927   0.00000  Uiso   1.00
C380   C     0.65987   0.84325   0.23623   0.00000  Uiso   1.00
C381   C     0.34074   0.82373   0.26380   0.00000  Uiso   1.00
C382   C     0.51313   0.98910   0.23866   0.00000  Uiso   1.00
C383   C     0.48347   0.67905   0.26417   0.00000  Uiso   1.00
C384   C     0.48984   0.72264   0.25955   0.00000  Uiso   1.00
C385   C     0.50955   0.94450   0.24050   0.00000  Uiso   1.00
C386   C     0.48067   0.91923   0.47957   0.00000  Uiso   1.00
C387   C     0.51854   0.81428   0.12937   0.00000  Uiso   1.00
C388   C     0.48228   0.85194   0.37100   0.00000  Uiso   1.00
C389   C     0.52162   0.75164   0.02000   0.00000  Uiso   1.00
C390   C     0.52431   0.80466   0.08124   0.00000  Uiso   1.00
C391   C     0.47585   0.90615   0.43663   0.00000  Uiso   1.00
C392   C     0.49082   0.89222   0.00529   0.00000  Uiso   1.00
C393   C     0.49465   0.85011   0.48950   0.00000  Uiso   1.00
C394   C     0.48631   0.83557   0.44700   0.00000  Uiso   1.00
C395   C     0.50662   0.82194   0.01444   0.00000  Uiso   1.00
C396   C     0.50918   0.77983   0.49674   0.00000  Uiso   1.00
C397   C     0.49756   0.76559   0.45688   0.00000  Uiso   1.00
C398   C     0.48511   0.79268   0.43311   0.00000  Uiso   1.00
H399   H     0.65248   0.80558   0.28945   0.00000  Uiso   1.00
H400   H     0.54125   0.67039   0.21578   0.00000  Uiso   1.00
H401   H     0.49742   0.73307   0.44430   0.00000  Uiso   1.00
H402   H     0.52403   0.71965   0.00616   0.00000  Uiso   1.00
H403   H     0.51152   0.86444   0.07372   0.00000  Uiso   1.00
H404   H     0.49559   0.90561   0.03737   0.00000  Uiso   1.00
H405   H     0.47826   0.95137   0.49265   0.00000  Uiso   1.00
H406   H     0.47409   0.77924   0.40386   0.00000  Uiso   1.00
H407   H     0.34886   0.86123   0.21083   0.00000  Uiso   1.00
O408   O     0.50000   0.83333   0.25000   0.00000  Uiso   1.00
O409   O     0.48784   0.79304   0.15458   0.00000  Uiso   1.00
O410   O     0.46274   0.87058   0.34968   0.00000  Uiso   1.00
O411   O     0.54157   0.84425   0.14606   0.00000  Uiso   1.00
O412   O     0.50785   0.82546   0.34968   0.00000  Uiso   1.00
O413   O     0.51264   0.74686   0.28213   0.00000  Uiso   1.00
O414   O     0.47965   0.92751   0.27013   0.00000  Uiso   1.00
O415   O     0.40745   0.79958   0.23413   0.00000  Uiso   1.00
O416   O     0.60026   0.85939   0.21360   0.00000  Uiso   1.00
O417   O     0.40405   0.85544   0.28213   0.00000  Uiso   1.00
O418   O     0.58824   0.81892   0.27013   0.00000  Uiso   1.00
O419   O     0.47093   0.73610   0.23413   0.00000  Uiso   1.00
O420   O     0.53678   0.92286   0.21360   0.00000  Uiso   1.00
Zn421  Zn    0.52672   0.80661   0.28734   0.00000  Uiso   1.00
Zn422  Zn    0.46713   0.79124   0.21875   0.00000  Uiso   1.00
Zn423  Zn    0.54389   0.86442   0.20657   0.00000  Uiso   1.00
Zn424  Zn    0.46226   0.87106   0.28733   0.00000  Uiso   1.00
Br425  Br    0.87597   0.72274   0.09389   0.00000  Uiso   1.00
Br426  Br    0.76296   0.99310   0.30397   0.00000  Uiso   1.00
Br427  Br    0.80153   0.94907   0.40310   0.00000  Uiso   1.00
C428   C     0.71934   0.82625   0.26002   0.00000  Uiso   1.00
C429   C     0.84835   0.83376   0.05696   0.00000  Uiso   1.00
C430   C     0.86218   0.76373   0.06223   0.00000  Uiso   1.00
C431   C     0.94735   0.84046   0.24008   0.00000  Uiso   1.00
C432   C     0.81272   0.86417   0.41927   0.00000  Uiso   1.00
C433   C     0.99321   0.84325   0.23623   0.00000  Uiso   1.00
C434   C     0.67408   0.82373   0.26380   0.00000  Uiso   1.00
C435   C     0.84647   0.98910   0.23866   0.00000  Uiso   1.00
C436   C     0.81681   0.67905   0.26417   0.00000  Uiso   1.00
C437   C     0.82318   0.72264   0.25955   0.00000  Uiso   1.00
C438   C     0.84289   0.94450   0.24050   0.00000  Uiso   1.00
C439   C     0.81400   0.91923   0.47957   0.00000  Uiso   1.00
C440   C     0.85187   0.81428   0.12937   0.00000  Uiso   1.00
C441   C     0.81561   0.85194   0.37100   0.00000  Uiso   1.00
C442   C     0.85495   0.75164   0.02000   0.00000  Uiso   1.00
C443   C     0.85764   0.80466   0.08124   0.00000  Uiso   1.00
C444   C     0.80918   0.90615   0.43663   0.00000  Uiso   1.00
C445   C     0.82415   0.89222   0.00529   0.00000  Uiso   1.00
C446   C     0.82798   0.85011   0.48950   0.00000  Uiso   1.00
C447   C     0.81965   0.83557   0.44700   0.00000  Uiso   1.00
C448   C     0.83995   0.82194   0.01444   0.00000  Uiso   1.00
C449   C     0.84251   0.77983   0.49674   0.00000  Uiso   1.00
C450   C     0.83089   0.76559   0.45688   0.00000  Uiso   1.00
C451   C     0.81844   0.79268   0.43311   0.00000  Uiso   1.00
H452   H     0.98581   0.80558   0.28945   0.00000  Uiso   1.00
H453   H     0.87458   0.67039   0.21578   0.00000  Uiso   1.00
H454   H     0.83075   0.73307   0.44430   0.00000  Uiso   1.00
H455   H     0.85737   0.71965   0.00616   0.00000  Uiso   1.00
H456   H     0.84486   0.86444   0.07372   0.00000  Uiso   1.00
H457   H     0.82892   0.90561   0.03737   0.00000  Uiso   1.00
H458   H     0.81159   0.95137   0.49265   0.00000  Uiso   1.00
H459   H     0.80742   0.77924   0.40386   0.00000  Uiso   1.00
H460   H     0.68219   0.86123   0.21083   0.00000  Uiso   1.00
O461   O     0.83333   0.83333   0.25000   0.00000  Uiso   1.00
O462   O     0.82118   0.79304   0.15458   0.00000  Uiso   1.00
O463   O     0.79607   0.87058   0.34968   0.00000  Uiso   1.00
O464   O     0.87491   0.84425   0.14606   0.00000  Uiso   1.00
O465   O     0.84118   0.82546   0.34968   0.00000  Uiso   1.00
O466   O     0.84597   0.74686   0.28213   0.00000  Uiso   1.00
O467   O     0.81298   0.92751   0.27013   0.00000  Uiso   1.00
O468   O     0.74078   0.79958   0.23413   0.00000  Uiso   1.00
O469   O     0.93360   0.85939   0.21360   0.00000  Uiso   1.00
O470   O     0.73738   0.85544   0.28213   0.00000  Uiso   1.00
O471   O     0.92158   0.81892   0.27013   0.00000  Uiso   1.00
O472   O     0.80426   0.73610   0.23413   0.00000  Uiso   1.00
O473   O     0.87012   0.92286   0.21360   0.00000  Uiso   1.00
Zn474  Zn    0.86005   0.80661   0.28734   0.00000  Uiso   1.00
Zn475  Zn    0.80046   0.79124   0.21875   0.00000  Uiso   1.00
Zn476  Zn    0.87723   0.86442   0.20657   0.00000  Uiso   1.00
Zn477  Zn    0.79560   0.87106   0.28733   0.00000  Uiso   1.00
Br478  Br    0.20930   0.05608   0.59389   0.00000  Uiso   1.00
Br479  Br    0.09629   0.32643   0.80397   0.00000  Uiso   1.00
Br480  Br    0.13486   0.28241   0.90310   0.00000  Uiso   1.00
C481   C     0.05268   0.15958   0.76002   0.00000  Uiso   1.00
C482   C     0.18168   0.16710   0.55696   0.00000  Uiso   1.00
C483   C     0.19551   0.09706   0.56223   0.00000  Uiso   1.00
C484   C     0.28069   0.17380   0.74008   0.00000  Uiso   1.00
C485   C     0.14605   0.19750   0.91927   0.00000  Uiso   1.00
C486   C     0.32654   0.17658   0.73623   0.00000  Uiso   1.00
C487   C     0.00741   0.15706   0.76380   0.00000  Uiso   1.00
C488   C     0.17980   0.32243   0.73866   0.00000  Uiso   1.00
C489   C     0.15014   0.01239   0.76417   0.00000  Uiso   1.00
C490   C     0.15651   0.05597   0.75955   0.00000  Uiso   1.00
C491   C     0.17622   0.27783   0.74050   0.00000  Uiso   1.00
C492   C     0.14734   0.25256   0.97957   0.00000  Uiso   1.00
C493   C     0.18521   0.14761   0.62937   0.00000  Uiso   1.00
C494   C     0.14894   0.18527   0.87100   0.00000  Uiso   1.00
C495   C     0.18829   0.08497   0.52000   0.00000  Uiso   1.00
C496   C     0.19098   0.13799   0.58124   0.00000  Uiso   1.00
C497   C     0.14251   0.23948   0.93663   0.00000  Uiso   1.00
C498   C     0.15749   0.22555   0.50529   0.00000  Uiso   1.00
C499   C     0.16131   0.18344   0.98950   0.00000  Uiso   1.00
C500   C     0.15298   0.16890   0.94700   0.00000  Uiso   1.00
C501   C     0.17328   0.15528   0.51444   0.00000  Uiso   1.00
C502   C     0.17585   0.11316   0.99674   0.00000  Uiso   1.00
C503   C     0.16422   0.09892   0.95688   0.00000  Uiso   1.00
C504   C     0.15177   0.12601   0.93311   0.00000  Uiso   1.00
H505   H     0.31914   0.13891   0.78945   0.00000  Uiso   1.00
H506   H     0.20792   0.00372   0.71578   0.00000  Uiso   1.00
H507   H     0.16408   0.06640   0.94430   0.00000  Uiso   1.00
H508   H     0.19070   0.05299   0.50616   0.00000  Uiso   1.00
H509   H     0.17819   0.19777   0.57372   0.00000  Uiso   1.00
H510   H     0.16226   0.23895   0.53737   0.00000  Uiso   1.00
H511   H     0.14493   0.28471   0.99265   0.00000  Uiso   1.00
H512   H     0.14076   0.11257   0.90386   0.00000  Uiso   1.00
H513   H     0.01553   0.19457   0.71083   0.00000  Uiso   1.00
O514   O     0.16667   0.16667   0.75000   0.00000  Uiso   1.00
O515   O     0.15451   0.12637   0.65458   0.00000  Uiso   1.00
O516   O     0.12940   0.20391   0.84968   0.00000  Uiso   1.00
O517   O     0.20824   0.17759   0.64606   0.00000  Uiso   1.00
O518   O     0.17451   0.15880   0.84968   0.00000  Uiso   1.00
O519   O     0.17930   0.08019   0.78213   0.00000  Uiso   1.00
O520   O     0.14632   0.26085   0.77013   0.00000  Uiso   1.00
O521   O     0.07412   0.13291   0.73413   0.00000  Uiso   1.00
O522   O     0.26693   0.19272   0.71360   0.00000  Uiso   1.00
O523   O     0.07071   0.18878   0.78213   0.00000  Uiso   1.00
O524   O     0.25491   0.15226   0.77013   0.00000  Uiso   1.00
O525   O     0.13760   0.06944   0.73413   0.00000  Uiso   1.00
O526   O     0.20345   0.25620   0.71360   0.00000  Uiso   1.00
Zn527  Zn    0.19338   0.13994   0.78734   0.00000  Uiso   1.00
Zn528  Zn    0.13379   0.12458   0.71875   0.00000  Uiso   1.00
Zn529  Zn    0.21056   0.19775   0.70657   0.00000  Uiso   1.00
Zn530  Zn    0.12893   0.20439   0.78733   0.00000  Uiso   1.00
Br531  Br    0.54263   0.05608   0.59389   0.00000  Uiso   1.00
Br532  Br    0.42962   0.32643   0.80397   0.00000  Uiso   1.00
Br533  Br    0.46820   0.28241   0.90310   0.00000  Uiso   1.00
C534   C     0.38601   0.15958   0.76002   0.00000  Uiso   1.00
C535   C     0.51502   0.16710   0.55696   0.00000  Uiso   1.00
C536   C     0.52884   0.09706   0.56223   0.00000  Uiso   1.00
C537   C     0.61402   0.17380   0.74008   0.00000  Uiso   1.00
C538   C     0.47939   0.19750   0.91927   0.00000  Uiso   1.00
C539   C     0.65987   0.17658   0.73623   0.00000  Uiso   1.00
C540   C     0.34074   0.15706   0.76380   0.00000  Uiso   1.00
C541   C     0.51313   0.32243   0.73866   0.00000  Uiso   1.00
C542   C     0.48347   0.01239   0.76417   0.00000  Uiso   1.00
C543   C     0.48984   0.05597   0.75955   0.00000  Uiso   1.00
C544   C     0.50955   0.27783   0.74050   0.00000  Uiso   1.00
C545   C     0.48067   0.25256   0.97957   0.00000  Uiso   1.00
C546   C     0.51854   0.14761   0.62937   0.00000  Uiso   1.00
C547   C     0.48228   0.18527   0.87100   0.00000  Uiso   1.00
C548   C     0.52162   0.08497   0.52000   0.00000  Uiso   1.00
C549   C     0.52431   0.13799   0.58124   0.00000  Uiso   1.00
C550   C     0.47585   0.23948   0.93663   0.00000  Uiso   1.00
C551   C     0.49082   0.22555   0.50529   0.00000  Uiso   1.00
C552   C     0.49465   0.18344   0.98950   0.00000  Uiso   1.00
C553   C     0.48631   0.16890   0.94700   0.00000  Uiso   1.00
C554   C     0.50662   0.15528   0.51444   0.00000  Uiso   1.00
C555   C     0.50918   0.11316   0.99674   0.00000  Uiso   1.00
C556   C     0.49756   0.09892   0.95688   0.00000  Uiso   1.00
C557   C     0.48511   0.12601   0.93311   0.00000  Uiso   1.00
H558   H     0.65248   0.13891   0.78945   0.00000  Uiso   1.00
H559   H     0.54125   0.00372   0.71578   0.00000  Uiso   1.00
H560   H     0.49742   0.06640   0.94430   0.00000  Uiso   1.00
H561   H     0.52403   0.05299   0.50616   0.00000  Uiso   1.00
H562   H     0.51152   0.19777   0.57372   0.00000  Uiso   1.00
H563   H     0.49559   0.23895   0.53737   0.00000  Uiso   1.00
H564   H     0.47826   0.28471   0.99265   0.00000  Uiso   1.00
H565   H     0.47409   0.11257   0.90386   0.00000  Uiso   1.00
H566   H     0.34886   0.19457   0.71083   0.00000  Uiso   1.00
O567   O     0.50000   0.16667   0.75000   0.00000  Uiso   1.00
O568   O     0.48784   0.12637   0.65458   0.00000  Uiso   1.00
O569   O     0.46274   0.20391   0.84968   0.00000  Uiso   1.00
O570   O     0.54157   0.17759   0.64606   0.00000  Uiso   1.00
O571   O     0.50785   0.15880   0.84968   0.00000  Uiso   1.00
O572   O     0.51264   0.08019   0.78213   0.00000  Uiso   1.00
O573   O     0.47965   0.26085   0.77013   0.00000  Uiso   1.00
O574   O     0.40745   0.13291   0.73413   0.00000  Uiso   1.00
O575   O     0.60026   0.19272   0.71360   0.00000  Uiso   1.00
O576   O     0.40405   0.18878   0.78213   0.00000  Uiso   1.00
O577   O     0.58824   0.15226   0.77013   0.00000  Uiso   1.00
O578   O     0.47093   0.06944   0.73413   0.00000  Uiso   1.00
O579   O     0.53678   0.25620   0.71360   0.00000  Uiso   1.00
Zn580  Zn    0.52672   0.13994   0.78734   0.00000  Uiso   1.00
Zn581  Zn    0.46713   0.12458   0.71875   0.00000  Uiso   1.00
Zn582  Zn    0.54389   0.19775   0.70657   0.00000  Uiso   1.00
Zn583  Zn    0.46226   0.20439   0.78733   0.00000  Uiso   1.00
Br584  Br    0.87597   0.05608   0.59389   0.00000  Uiso   1.00
Br585  Br    0.76296   0.32643   0.80397   0.00000  Uiso   1.00
Br586  Br    0.80153   0.28241   0.90310   0.00000  Uiso   1.00
C587   C     0.71934   0.15958   0.76002   0.00000  Uiso   1.00
C588   C     0.84835   0.16710   0.55696   0.00000  Uiso   1.00
C589   C     0.86218   0.09706   0.56223   0.00000  Uiso   1.00
C590   C     0.94735   0.17380   0.74008   0.00000  Uiso   1.00
C591   C     0.81272   0.19750   0.91927   0.00000  Uiso   1.00
C592   C     0.99321   0.17658   0.73623   0.00000  Uiso   1.00
C593   C     0.67408   0.15706   0.76380   0.00000  Uiso   1.00
C594   C     0.84647   0.32243   0.73866   0.00000  Uiso   1.00
C595   C     0.81681   0.01239   0.76417   0.00000  Uiso   1.00
C596   C     0.82318   0.05597   0.75955   0.00000  Uiso   1.00
C597   C     0.84289   0.27783   0.74050   0.00000  Uiso   1.00
C598   C     0.81400   0.25256   0.97957   0.00000  Uiso   1.00
C599   C     0.85187   0.14761   0.62937   0.00000  Uiso   1.00
C600   C     0.81561   0.18527   0.87100   0.00000  Uiso   1.00
C601   C     0.85495   0.08497   0.52000   0.00000  Uiso   1.00
C602   C     0.85764   0.13799   0.58124   0.00000  Uiso   1.00
C603   C     0.80918   0.23948   0.93663   0.00000  Uiso   1.00
C604   C     0.82415   0.22555   0.50529   0.00000  Uiso   1.00
C605   C     0.82798   0.18344   0.98950   0.00000  Uiso   1.00
C606   C     0.81965   0.16890   0.94700   0.00000  Uiso   1.00
C607   C     0.83995   0.15528   0.51444   0.00000  Uiso   1.00
C608   C     0.84251   0.11316   0.99674   0.00000  Uiso   1.00
C609   C     0.83089   0.09892   0.95688   0.00000  Uiso   1.00
C610   C     0.81844   0.12601   0.93311   0.00000  Uiso   1.00
H611   H     0.98581   0.13891   0.78945   0.00000  Uiso   1.00
H612   H     0.87458   0.00372   0.71578   0.00000  Uiso   1.00
H613   H     0.83075   0.06640   0.94430   0.00000  Uiso   1.00
H614   H     0.85737   0.05299   0.50616   0.00000  Uiso   1.00
H615   H     0.84486   0.19777   0.57372   0.00000  Uiso   1.00
H616   H     0.82892   0.23895   0.53737   0.00000  Uiso   1.00
H617   H     0.81159   0.28471   0.99265   0.00000  Uiso   1.00
H618   H     0.80742   0.11257   0.90386   0.00000  Uiso   1.00
H619   H     0.68219   0.19457   0.71083   0.00000  Uiso   1.00
O620   O     0.83333   0.16667   0.75000   0.00000  Uiso   1.00
O621   O     0.82118   0.12637   0.65458   0.00000  Uiso   1.00
O622   O     0.79607   0.20391   0.84968   0.00000  Uiso   1.00
O623   O     0.87491   0.17759   0.64606   0.00000  Uiso   1.00
O624   O     0.84118   0.15880   0.84968   0.00000  Uiso   1.00
O625   O     0.84597   0.08019   0.78213   0.00000  Uiso   1.00
O626   O     0.81298   0.26085   0.77013   0.00000  Uiso   1.00
O627   O     0.74078   0.13291   0.73413   0.00000  Uiso   1.00
O628   O     0.93360   0.19272   0.71360   0.00000  Uiso   1.00
O629   O     0.73738   0.18878   0.78213   0.00000  Uiso   1.00
O630   O     0.92158   0.15226   0.77013   0.00000  Uiso   1.00
O631   O     0.80426   0.06944   0.73413   0.00000  Uiso   1.00
O632   O     0.87012   0.25620   0.71360   0.00000  Uiso   1.00
Zn633  Zn    0.86005   0.13994   0.78734   0.00000  Uiso   1.00
Zn634  Zn    0.80046   0.12458   0.71875   0.00000  Uiso   1.00
Zn635  Zn    0.87723   0.19775   0.70657   0.00000  Uiso   1.00
Zn636  Zn    0.79560   0.20439   0.78733   0.00000  Uiso   1.00
Br637  Br    0.20930   0.38941   0.59389   0.00000  Uiso   1.00
Br638  Br    0.09629   0.65976   0.80397   0.00000  Uiso   1.00
Br639  Br    0.13486   0.61574   0.90310   0.00000  Uiso   1.00
C640   C     0.05268   0.49291   0.76002   0.00000  Uiso   1.00
C641   C     0.18168   0.50043   0.55696   0.00000  Uiso   1.00
C642   C     0.19551   0.43040   0.56223   0.00000  Uiso   1.00
C643   C     0.28069   0.50713   0.74008   0.00000  Uiso   1.00
C644   C     0.14605   0.53084   0.91927   0.00000  Uiso   1.00
C645   C     0.32654   0.50992   0.73623   0.00000  Uiso   1.00
C646   C     0.00741   0.49039   0.76380   0.00000  Uiso   1.00
C647   C     0.17980   0.65576   0.73866   0.00000  Uiso   1.00
C648   C     0.15014   0.34572   0.76417   0.00000  Uiso   1.00
C649   C     0.15651   0.38930   0.75955   0.00000  Uiso   1.00
C650   C     0.17622   0.61117   0.74050   0.00000  Uiso   1.00
C651   C     0.14734   0.58589   0.97957   0.00000  Uiso   1.00
C652   C     0.18521   0.48094   0.62937   0.00000  Uiso   1.00
C653   C     0.14894   0.51860   0.87100   0.00000  Uiso   1.00
C654   C     0.18829   0.41830   0.52000   0.00000  Uiso   1.00
C655   C     0.19098   0.47133   0.58124   0.00000  Uiso   1.00
C656   C     0.14251   0.57281   0.93663   0.00000  Uiso   1.00
C657   C     0.15749   0.55888   0.50529   0.00000  Uiso   1.00
C658   C     0.16131   0.51678   0.98950   0.00000  Uiso   1.00
C659   C     0.15298   0.50224   0.94700   0.00000  Uiso   1.00
C660   C     0.17328   0.48861   0.51444   0.00000  Uiso   1.00
C661   C     0.17585   0.44649   0.99674   0.00000  Uiso   1.00
C662   C     0.16422   0.43226   0.95688   0.00000  Uiso   1.00
C663   C     0.15177   0.45934   0.93311   0.00000  Uiso   1.00
H664   H     0.31914   0.47224   0.78945   0.00000  Uiso   1.00
H665   H     0.20792   0.33706   0.71578   0.00000  Uiso   1.00
H666   H     0.16408   0.39973   0.94430   0.00000  Uiso   1.00
H667   H     0.19070   0.38632   0.50616   0.00000  Uiso   1.00
H668   H     0.17819   0.53111   0.57372   0.00000  Uiso   1.00
H669   H     0.16226   0.57228   0.53737   0.00000  Uiso   1.00
H670   H     0.14493   0.61804   0.99265   0.00000  Uiso   1.00
H671   H     0.14076   0.44591   0.90386   0.00000  Uiso   1.00
H672   H     0.01553   0.52790   0.71083   0.00000  Uiso   1.00
O673   O     0.16667   0.50000   0.75000   0.00000  Uiso   1.00
O674   O     0.15451   0.45970   0.65458   0.00000  Uiso   1.00
O675   O     0.12940   0.53724   0.84968   0.00000  Uiso   1.00
O676   O     0.20824   0.51092   0.64606   0.00000  Uiso   1.00
O677   O     0.17451   0.49213   0.84968   0.00000  Uiso   1.00
O678   O     0.17930   0.41352   0.78213   0.00000  Uiso   1.00
O679   O     0.14632   0.59418   0.77013   0.00000  Uiso   1.00
O680   O     0.07412   0.46625   0.73413   0.00000  Uiso   1.00
O681   O     0.26693   0.52605   0.71360   0.00000  Uiso   1.00
O682   O     0.07071   0.52211   0.78213   0.00000  Uiso   1.00
O683   O     0.25491   0.48559   0.77013   0.00000  Uiso   1.00
O684   O     0.13760   0.40277   0.73413   0.00000  Uiso   1.00
O685   O     0.20345   0.58953   0.71360   0.00000  Uiso   1.00
Zn686  Zn    0.19338   0.47327   0.78734   0.00000  Uiso   1.00
Zn687  Zn    0.13379   0.45791   0.71875   0.00000  Uiso   1.00
Zn688  Zn    0.21056   0.53109   0.70657   0.00000  Uiso   1.00
Zn689  Zn    0.12893   0.53773   0.78733   0.00000  Uiso   1.00
Br690  Br    0.54263   0.38941   0.59389   0.00000  Uiso   1.00
Br691  Br    0.42962   0.65976   0.80397   0.00000  Uiso   1.00
Br692  Br    0.46820   0.61574   0.90310   0.00000  Uiso   1.00
C693   C     0.38601   0.49291   0.76002   0.00000  Uiso   1.00
C694   C     0.51502   0.50043   0.55696   0.00000  Uiso   1.00
C695   C     0.52884   0.43040   0.56223   0.00000  Uiso   1.00
C696   C     0.61402   0.50713   0.74008   0.00000  Uiso   1.00
C697   C     0.47939   0.53084   0.91927   0.00000  Uiso   1.00
C698   C     0.65987   0.50992   0.73623   0.00000  Uiso   1.00
C699   C     0.34074   0.49039   0.76380   0.00000  Uiso   1.00
C700   C     0.51313   0.65576   0.73866   0.00000  Uiso   1.00
C701   C     0.48347   0.34572   0.76417   0.00000  Uiso   1.00
C702   C     0.48984   0.38930   0.75955   0.00000  Uiso   1.00
C703   C     0.50955   0.61117   0.74050   0.00000  Uiso   1.00
C704   C     0.48067   0.58589   0.97957   0.00000  Uiso   1.00
C705   C     0.51854   0.48094   0.62937   0.00000  Uiso   1.00
C706   C     0.48228   0.51860   0.87100   0.00000  Uiso   1.00
C707   C     0.52162   0.41830   0.52000   0.00000  Uiso   1.00
C708   C     0.52431   0.47133   0.58124   0.00000  Uiso   1.00
C709   C     0.47585   0.57281   0.93663   0.00000  Uiso   1.00
C710   C     0.49082   0.55888   0.50529   0.00000  Uiso   1.00
C711   C     0.49465   0.51678   0.98950   0.00000  Uiso   1.00
C712   C     0.48631   0.50224   0.94700   0.00000  Uiso   1.00
C713   C     0.50662   0.48861   0.51444   0.00000  Uiso   1.00
C714   C     0.50918   0.44649   0.99674   0.00000  Uiso   1.00
C715   C     0.49756   0.43226   0.95688   0.00000  Uiso   1.00
C716   C     0.48511   0.45934   0.93311   0.00000  Uiso   1.00
H717   H     0.65248   0.47224   0.78945   0.00000  Uiso   1.00
H718   H     0.54125   0.33706   0.71578   0.00000  Uiso   1.00
H719   H     0.49742   0.39973   0.94430   0.00000  Uiso   1.00
H720   H     0.52403   0.38632   0.50616   0.00000  Uiso   1.00
H721   H     0.51152   0.53111   0.57372   0.00000  Uiso   1.00
H722   H     0.49559   0.57228   0.53737   0.00000  Uiso   1.00
H723   H     0.47826   0.61804   0.99265   0.00000  Uiso   1.00
H724   H     0.47409   0.44591   0.90386   0.00000  Uiso   1.00
H725   H     0.34886   0.52790   0.71083   0.00000  Uiso   1.00
O726   O     0.50000   0.50000   0.75000   0.00000  Uiso   1.00
O727   O     0.48784   0.45970   0.65458   0.00000  Uiso   1.00
O728   O     0.46274   0.53724   0.84968   0.00000  Uiso   1.00
O729   O     0.54157   0.51092   0.64606   0.00000  Uiso   1.00
O730   O     0.50785   0.49213   0.84968   0.00000  Uiso   1.00
O731   O     0.51264   0.41352   0.78213   0.00000  Uiso   1.00
O732   O     0.47965   0.59418   0.77013   0.00000  Uiso   1.00
O733   O     0.40745   0.46625   0.73413   0.00000  Uiso   1.00
O734   O     0.60026   0.52605   0.71360   0.00000  Uiso   1.00
O735   O     0.40405   0.52211   0.78213   0.00000  Uiso   1.00
O736   O     0.58824   0.48559   0.77013   0.00000  Uiso   1.00
O737   O     0.47093   0.40277   0.73413   0.00000  Uiso   1.00
O738   O     0.53678   0.58953   0.71360   0.00000  Uiso   1.00
Zn739  Zn    0.52672   0.47327   0.78734   0.00000  Uiso   1.00
Zn740  Zn    0.46713   0.45791   0.71875   0.00000  Uiso   1.00
Zn741  Zn    0.54389   0.53109   0.70657   0.00000  Uiso   1.00
Zn742  Zn    0.46226   0.53773   0.78733   0.00000  Uiso   1.00
Br743  Br    0.87597   0.38941   0.59389   0.00000  Uiso   1.00
Br744  Br    0.76296   0.65976   0.80397   0.00000  Uiso   1.00
Br745  Br    0.80153   0.61574   0.90310   0.00000  Uiso   1.00
C746   C     0.71934   0.49291   0.76002   0.00000  Uiso   1.00
C747   C     0.84835   0.50043   0.55696   0.00000  Uiso   1.00
C748   C     0.86218   0.43040   0.56223   0.00000  Uiso   1.00
C749   C     0.94735   0.50713   0.74008   0.00000  Uiso   1.00
C750   C     0.81272   0.53084   0.91927   0.00000  Uiso   1.00
C751   C     0.99321   0.50992   0.73623   0.00000  Uiso   1.00
C752   C     0.67408   0.49039   0.76380   0.00000  Uiso   1.00
C753   C     0.84647   0.65576   0.73866   0.00000  Uiso   1.00
C754   C     0.81681   0.34572   0.76417   0.00000  Uiso   1.00
C755   C     0.82318   0.38930   0.75955   0.00000  Uiso   1.00
C756   C     0.84289   0.61117   0.74050   0.00000  Uiso   1.00
C757   C     0.81400   0.58589   0.97957   0.00000  Uiso   1.00
C758   C     0.85187   0.48094   0.62937   0.00000  Uiso   1.00
C759   C     0.81561   0.51860   0.87100   0.00000  Uiso   1.00
C760   C     0.85495   0.41830   0.52000   0.00000  Uiso   1.00
C761   C     0.85764   0.47133   0.58124   0.00000  Uiso   1.00
C762   C     0.80918   0.57281   0.93663   0.00000  Uiso   1.00
C763   C     0.82415   0.55888   0.50529   0.00000  Uiso   1.00
C764   C     0.82798   0.51678   0.98950   0.00000  Uiso   1.00
C765   C     0.81965   0.50224   0.94700   0.00000  Uiso   1.00
C766   C     0.83995   0.48861   0.51444   0.00000  Uiso   1.00
C767   C     0.84251   0.44649   0.99674   0.00000  Uiso   1.00
C768   C     0.83089   0.43226   0.95688   0.00000  Uiso   1.00
C769   C     0.81844   0.45934   0.93311   0.00000  Uiso   1.00
H770   H     0.98581   0.47224   0.78945   0.00000  Uiso   1.00
H771   H     0.87458   0.33706   0.71578   0.00000  Uiso   1.00
H772   H     0.83075   0.39973   0.94430   0.00000  Uiso   1.00
H773   H     0.85737   0.38632   0.50616   0.00000  Uiso   1.00
H774   H     0.84486   0.53111   0.57372   0.00000  Uiso   1.00
H775   H     0.82892   0.57228   0.53737   0.00000  Uiso   1.00
H776   H     0.81159   0.61804   0.99265   0.00000  Uiso   1.00
H777   H     0.80742   0.44591   0.90386   0.00000  Uiso   1.00
H778   H     0.68219   0.52790   0.71083   0.00000  Uiso   1.00
O779   O     0.83333   0.50000   0.75000   0.00000  Uiso   1.00
O780   O     0.82118   0.45970   0.65458   0.00000  Uiso   1.00
O781   O     0.79607   0.53724   0.84968   0.00000  Uiso   1.00
O782   O     0.87491   0.51092   0.64606   0.00000  Uiso   1.00
O783   O     0.84118   0.49213   0.84968   0.00000  Uiso   1.00
O784   O     0.84597   0.41352   0.78213   0.00000  Uiso   1.00
O785   O     0.81298   0.59418   0.77013   0.00000  Uiso   1.00
O786   O     0.74078   0.46625   0.73413   0.00000  Uiso   1.00
O787   O     0.93360   0.52605   0.71360   0.00000  Uiso   1.00
O788   O     0.73738   0.52211   0.78213   0.00000  Uiso   1.00
O789   O     0.92158   0.48559   0.77013   0.00000  Uiso   1.00
O790   O     0.80426   0.40277   0.73413   0.00000  Uiso   1.00
O791   O     0.87012   0.58953   0.71360   0.00000  Uiso   1.00
Zn792  Zn    0.86005   0.47327   0.78734   0.00000  Uiso   1.00
Zn793  Zn    0.80046   0.45791   0.71875   0.00000  Uiso   1.00
Zn794  Zn    0.87723   0.53109   0.70657   0.00000  Uiso   1.00
Zn795  Zn    0.79560   0.53773   0.78733   0.00000  Uiso   1.00
Br796  Br    0.20930   0.72274   0.59389   0.00000  Uiso   1.00
Br797  Br    0.09629   0.99310   0.80397   0.00000  Uiso   1.00
Br798  Br    0.13486   0.94907   0.90310   0.00000  Uiso   1.00
C799   C     0.05268   0.82625   0.76002   0.00000  Uiso   1.00
C800   C     0.18168   0.83376   0.55696   0.00000  Uiso   1.00
C801   C     0.19551   0.76373   0.56223   0.00000  Uiso   1.00
C802   C     0.28069   0.84046   0.74008   0.00000  Uiso   1.00
C803   C     0.14605   0.86417   0.91927   0.00000  Uiso   1.00
C804   C     0.32654   0.84325   0.73623   0.00000  Uiso   1.00
C805   C     0.00741   0.82373   0.76380   0.00000  Uiso   1.00
C806   C     0.17980   0.98910   0.73866   0.00000  Uiso   1.00
C807   C     0.15014   0.67905   0.76417   0.00000  Uiso   1.00
C808   C     0.15651   0.72264   0.75955   0.00000  Uiso   1.00
C809   C     0.17622   0.94450   0.74050   0.00000  Uiso   1.00
C810   C     0.14734   0.91923   0.97957   0.00000  Uiso   1.00
C811   C     0.18521   0.81428   0.62937   0.00000  Uiso   1.00
C812   C     0.14894   0.85194   0.87100   0.00000  Uiso   1.00
C813   C     0.18829   0.75164   0.52000   0.00000  Uiso   1.00
C814   C     0.19098   0.80466   0.58124   0.00000  Uiso   1.00
C815   C     0.14251   0.90615   0.93663   0.00000  Uiso   1.00
C816   C     0.15749   0.89222   0.50529   0.00000  Uiso   1.00
C817   C     0.16131   0.85011   0.98950   0.00000  Uiso   1.00
C818   C     0.15298   0.83557   0.94700   0.00000  Uiso   1.00
C819   C     0.17328   0.82194   0.51444   0.00000  Uiso   1.00
C820   C     0.17585   0.77983   0.99674   0.00000  Uiso   1.00
C821   C     0.16422   0.76559   0.95688   0.00000  Uiso   1.00
C822   C     0.15177   0.79268   0.93311   0.00000  Uiso   1.00
H823   H     0.31914   0.80558   0.78945   0.00000  Uiso   1.00
H824   H     0.20792   0.67039   0.71578   0.00000  Uiso   1.00
H825   H     0.16408   0.73307   0.94430   0.00000  Uiso   1.00
H826   H     0.19070   0.71965   0.50616   0.00000  Uiso   1.00
H827   H     0.17819   0.86444   0.57372   0.00000  Uiso   1.00
H828   H     0.16226   0.90561   0.53737   0.00000  Uiso   1.00
H829   H     0.14493   0.95137   0.99265   0.00000  Uiso   1.00
H830   H     0.14076   0.77924   0.90386   0.00000  Uiso   1.00
H831   H     0.01553   0.86123   0.71083   0.00000  Uiso   1.00
O832   O     0.16667   0.83333   0.75000   0.00000  Uiso   1.00
O833   O     0.15451   0.79304   0.65458   0.00000  Uiso   1.00
O834   O     0.12940   0.87058   0.84968   0.00000  Uiso   1.00
O835   O     0.20824   0.84425   0.64606   0.00000  Uiso   1.00
O836   O     0.17451   0.82546   0.84968   0.00000  Uiso   1.00
O837   O     0.17930   0.74686   0.78213   0.00000  Uiso   1.00
O838   O     0.14632   0.92751   0.77013   0.00000  Uiso   1.00
O839   O     0.07412   0.79958   0.73413   0.00000  Uiso   1.00
O840   O     0.26693   0.85939   0.71360   0.00000  Uiso   1.00
O841   O     0.07071   0.85544   0.78213   0.00000  Uiso   1.00
O842   O     0.25491   0.81892   0.77013   0.00000  Uiso   1.00
O843   O     0.13760   0.73610   0.73413   0.00000  Uiso   1.00
O844   O     0.20345   0.92286   0.71360   0.00000  Uiso   1.00
Zn845  Zn    0.19338   0.80661   0.78734   0.00000  Uiso   1.00
Zn846  Zn    0.13379   0.79124   0.71875   0.00000  Uiso   1.00
Zn847  Zn    0.21056   0.86442   0.70657   0.00000  Uiso   1.00
Zn848  Zn    0.12893   0.87106   0.78733   0.00000  Uiso   1.00
Br849  Br    0.54263   0.72274   0.59389   0.00000  Uiso   1.00
Br850  Br    0.42962   0.99310   0.80397   0.00000  Uiso   1.00
Br851  Br    0.46820   0.94907   0.90310   0.00000  Uiso   1.00
C852   C     0.38601   0.82625   0.76002   0.00000  Uiso   1.00
C853   C     0.51502   0.83376   0.55696   0.00000  Uiso   1.00
C854   C     0.52884   0.76373   0.56223   0.00000  Uiso   1.00
C855   C     0.61402   0.84046   0.74008   0.00000  Uiso   1.00
C856   C     0.47939   0.86417   0.91927   0.00000  Uiso   1.00
C857   C     0.65987   0.84325   0.73623   0.00000  Uiso   1.00
C858   C     0.34074   0.82373   0.76380   0.00000  Uiso   1.00
C859   C     0.51313   0.98910   0.73866   0.00000  Uiso   1.00
C860   C     0.48347   0.67905   0.76417   0.00000  Uiso   1.00
C861   C     0.48984   0.72264   0.75955   0.00000  Uiso   1.00
C862   C     0.50955   0.94450   0.74050   0.00000  Uiso   1.00
C863   C     0.48067   0.91923   0.97957   0.00000  Uiso   1.00
C864   C     0.51854   0.81428   0.62937   0.00000  Uiso   1.00
C865   C     0.48228   0.85194   0.87100   0.00000  Uiso   1.00
C866   C     0.52162   0.75164   0.52000   0.00000  Uiso   1.00
C867   C     0.52431   0.80466   0.58124   0.00000  Uiso   1.00
C868   C     0.47585   0.90615   0.93663   0.00000  Uiso   1.00
C869   C     0.49082   0.89222   0.50529   0.00000  Uiso   1.00
C870   C     0.49465   0.85011   0.98950   0.00000  Uiso   1.00
C871   C     0.48631   0.83557   0.94700   0.00000  Uiso   1.00
C872   C     0.50662   0.82194   0.51444   0.00000  Uiso   1.00
C873   C     0.50918   0.77983   0.99674   0.00000  Uiso   1.00
C874   C     0.49756   0.76559   0.95688   0.00000  Uiso   1.00
C875   C     0.48511   0.79268   0.93311   0.00000  Uiso   1.00
H876   H     0.65248   0.80558   0.78945   0.00000  Uiso   1.00
H877   H     0.54125   0.67039   0.71578   0.00000  Uiso   1.00
H878   H     0.49742   0.73307   0.94430   0.00000  Uiso   1.00
H879   H     0.52403   0.71965   0.50616   0.00000  Uiso   1.00
H880   H     0.51152   0.86444   0.57372   0.00000  Uiso   1.00
H881   H     0.49559   0.90561   0.53737   0.00000  Uiso   1.00
H882   H     0.47826   0.95137   0.99265   0.00000  Uiso   1.00
H883   H     0.47409   0.77924   0.90386   0.00000  Uiso   1.00
H884   H     0.34886   0.86123   0.71083   0.00000  Uiso   1.00
O885   O     0.50000   0.83333   0.75000   0.00000  Uiso   1.00
O886   O     0.48784   0.79304   0.65458   0.00000  Uiso   1.00
O887   O     0.46274   0.87058   0.84968   0.00000  Uiso   1.00
O888   O     0.54157   0.84425   0.64606   0.00000  Uiso   1.00
O889   O     0.50785   0.82546   0.84968   0.00000  Uiso   1.00
O890   O     0.51264   0.74686   0.78213   0.00000  Uiso   1.00
O891   O     0.47965   0.92751   0.77013   0.00000  Uiso   1.00
O892   O     0.40745   0.79958   0.73413   0.00000  Uiso   1.00
O893   O     0.60026   0.85939   0.71360   0.00000  Uiso   1.00
O894   O     0.40405   0.85544   0.78213   0.00000  Uiso   1.00
O895   O     0.58824   0.81892   0.77013   0.00000  Uiso   1.00
O896   O     0.47093   0.73610   0.73413   0.00000  Uiso   1.00
O897   O     0.53678   0.92286   0.71360   0.00000  Uiso   1.00
Zn898  Zn    0.52672   0.80661   0.78734   0.00000  Uiso   1.00
Zn899  Zn    0.46713   0.79124   0.71875   0.00000  Uiso   1.00
Zn900  Zn    0.54389   0.86442   0.70657   0.00000  Uiso   1.00
Zn901  Zn    0.46226   0.87106   0.78733   0.00000  Uiso   1.00
Br902  Br    0.87597   0.72274   0.59389   0.00000  Uiso   1.00
Br903  Br    0.76296   0.99310   0.80397   0.00000  Uiso   1.00
Br904  Br    0.80153   0.94907   0.90310   0.00000  Uiso   1.00
C905   C     0.71934   0.82625   0.76002   0.00000  Uiso   1.00
C906   C     0.84835   0.83376   0.55696   0.00000  Uiso   1.00
C907   C     0.86218   0.76373   0.56223   0.00000  Uiso   1.00
C908   C     0.94735   0.84046   0.74008   0.00000  Uiso   1.00
C909   C     0.81272   0.86417   0.91927   0.00000  Uiso   1.00
C910   C     0.99321   0.84325   0.73623   0.00000  Uiso   1.00
C911   C     0.67408   0.82373   0.76380   0.00000  Uiso   1.00
C912   C     0.84647   0.98910   0.73866   0.00000  Uiso   1.00
C913   C     0.81681   0.67905   0.76417   0.00000  Uiso   1.00
C914   C     0.82318   0.72264   0.75955   0.00000  Uiso   1.00
C915   C     0.84289   0.94450   0.74050   0.00000  Uiso   1.00
C916   C     0.81400   0.91923   0.97957   0.00000  Uiso   1.00
C917   C     0.85187   0.81428   0.62937   0.00000  Uiso   1.00
C918   C     0.81561   0.85194   0.87100   0.00000  Uiso   1.00
C919   C     0.85495   0.75164   0.52000   0.00000  Uiso   1.00
C920   C     0.85764   0.80466   0.58124   0.00000  Uiso   1.00
C921   C     0.80918   0.90615   0.93663   0.00000  Uiso   1.00
C922   C     0.82415   0.89222   0.50529   0.00000  Uiso   1.00
C923   C     0.82798   0.85011   0.98950   0.00000  Uiso   1.00
C924   C     0.81965   0.83557   0.94700   0.00000  Uiso   1.00
C925   C     0.83995   0.82194   0.51444   0.00000  Uiso   1.00
C926   C     0.84251   0.77983   0.99674   0.00000  Uiso   1.00
C927   C     0.83089   0.76559   0.95688   0.00000  Uiso   1.00
C928   C     0.81844   0.79268   0.93311   0.00000  Uiso   1.00
H929   H     0.98581   0.80558   0.78945   0.00000  Uiso   1.00
H930   H     0.87458   0.67039   0.71578   0.00000  Uiso   1.00
H931   H     0.83075   0.73307   0.94430   0.00000  Uiso   1.00
H932   H     0.85737   0.71965   0.50616   0.00000  Uiso   1.00
H933   H     0.84486   0.86444   0.57372   0.00000  Uiso   1.00
H934   H     0.82892   0.90561   0.53737   0.00000  Uiso   1.00
H935   H     0.81159   0.95137   0.99265   0.00000  Uiso   1.00
H936   H     0.80742   0.77924   0.90386   0.00000  Uiso   1.00
H937   H     0.68219   0.86123   0.71083   0.00000  Uiso   1.00
O938   O     0.83333   0.83333   0.75000   0.00000  Uiso   1.00
O939   O     0.82118   0.79304   0.65458   0.00000  Uiso   1.00
O940   O     0.79607   0.87058   0.84968   0.00000  Uiso   1.00
O941   O     0.87491   0.84425   0.64606   0.00000  Uiso   1.00
O942   O     0.84118   0.82546   0.84968   0.00000  Uiso   1.00
O943   O     0.84597   0.74686   0.78213   0.00000  Uiso   1.00
O944   O     0.81298   0.92751   0.77013   0.00000  Uiso   1.00
O945   O     0.74078   0.79958   0.73413   0.00000  Uiso   1.00
O946   O     0.93360   0.85939   0.71360   0.00000  Uiso   1.00
O947   O     0.73738   0.85544   0.78213   0.00000  Uiso   1.00
O948   O     0.92158   0.81892   0.77013   0.00000  Uiso   1.00
O949   O     0.80426   0.73610   0.73413   0.00000  Uiso   1.00
O950   O     0.87012   0.92286   0.71360   0.00000  Uiso   1.00
Zn951  Zn    0.86005   0.80661   0.78734   0.00000  Uiso   1.00
Zn952  Zn    0.80046   0.79124   0.71875   0.00000  Uiso   1.00
Zn953  Zn    0.87723   0.86442   0.70657   0.00000  Uiso   1.00
Zn954  Zn    0.79560   0.87106   0.78733   0.00000  Uiso   1.00
loop_
_geom_bond_atom_site_label_1
_geom_bond_atom_site_label_2
_geom_bond_distance
_geom_bond_site_symmetry_2
_ccdc_geom_bond_type
Br1    C6      1.921   .     S
Br2    C171    1.931   .     S
Br3    C20     1.926   .     S
C4     C10     1.436   .     S
C4     O46     1.266   .     A
C4     O44     1.266   .     A
C5     H32     1.077   .     S
C5     C24     1.412   .     A
C5     C19     1.394   .     A
C6     C19     1.404   .     A
C6     C18     1.389   .     A
C7     O45     1.287   .     A
C7     C9      1.454   .     S
C7     O47     1.284   .     A
C8     C17     1.483   .     S
C8     C20     1.418   .     A
C8     C23     1.423   .     A
C9     C63     1.334   .     S
C9     H89     1.088   .     S
C10    C115    1.334   1_455 S
C10    H134    1.086   1_455 S
C11    C14     1.450   .     S
C11    C171    1.343   .     S
C11    H188    1.088   .     S
C12    C13     1.427   .     S
C12    Br320   1.931   1_545 S
C12    C329    1.343   1_545 S
C13    O48     1.270   .     A
C13    O42     1.274   .     A
C14    O49     1.278   .     A
C14    O43     1.265   .     A
C15    H34     1.083   .     S
C15    C20     1.389   .     A
C15    C498    1.386   .     S
C16    C19     1.455   .     S
C16    O40     1.282   .     A
C16    O38     1.270   .     A
C17    O41     1.288   .     A
C17    O39     1.282   .     A
C18    H31     1.084   .     S
C18    C502    1.400   1_554 S
C21    H33     1.076   .     S
C21    C492    1.386   1_554 S
C21    C499    1.413   1_554 S
C22    C23     1.424   .     A
C22    C498    1.413   .     S
C22    C501    1.427   .     S
C23    C27     1.411   .     A
C24    C499    1.427   1_554 S
C24    C502    1.422   1_554 S
C25    C26     1.391   .     A
C25    C501    1.422   .     S
C25    C495    1.400   .     S
C26    C27     1.383   .     A
C26    H30     1.084   .     S
C27    H35     1.080   .     S
H28    C63     1.086   .     S
H29    C329    1.088   1_545 S
H36    C115    1.088   1_455 S
O37    Zn53    1.928   .     S
O37    Zn50    1.964   .     S
O37    Zn51    1.934   .     S
O37    Zn52    1.947   .     S
O38    Zn51    1.934   .     S
O39    Zn53    1.940   .     S
O40    Zn52    1.927   .     S
O41    Zn50    1.922   .     S
O42    Zn50    1.933   .     S
O43    Zn53    1.944   .     S
O44    Zn51    1.925   .     S
O45    Zn52    1.933   .     S
O46    Zn53    1.928   .     S
O47    Zn50    1.925   .     S
O48    Zn51    1.948   .     S
O49    Zn52    1.934   .     S
Br54   C59     1.921   .     S
Br55   C224    1.931   .     S
Br56   C73     1.926   .     S
C57    C63     1.436   .     S
C57    O99     1.266   .     A
C57    O97     1.266   .     A
C58    H85     1.077   .     S
C58    C77     1.412   .     A
C58    C72     1.394   .     A
C59    C72     1.404   .     A
C59    C71     1.389   .     A
C60    O98     1.287   .     A
C60    C62     1.454   .     S
C60    O100    1.284   .     A
C61    C70     1.483   .     S
C61    C73     1.418   .     A
C61    C76     1.423   .     A
C62    C116    1.334   .     S
C62    H142    1.088   .     S
C64    C67     1.450   .     S
C64    C224    1.343   .     S
C64    H241    1.088   .     S
C65    C66     1.427   .     S
C65    Br373   1.931   1_545 S
C65    C382    1.343   1_545 S
C66    O101    1.270   .     A
C66    O95     1.274   .     A
C67    O102    1.278   .     A
C67    O96     1.265   .     A
C68    H87     1.083   .     S
C68    C73     1.389   .     A
C68    C551    1.386   .     S
C69    C72     1.455   .     S
C69    O93     1.282   .     A
C69    O91     1.270   .     A
C70    O94     1.288   .     A
C70    O92     1.282   .     A
C71    H84     1.084   .     S
C71    C555    1.400   1_554 S
C74    H86     1.076   .     S
C74    C545    1.386   1_554 S
C74    C552    1.413   1_554 S
C75    C76     1.424   .     A
C75    C551    1.413   .     S
C75    C554    1.427   .     S
C76    C80     1.411   .     A
C77    C552    1.427   1_554 S
C77    C555    1.422   1_554 S
C78    C79     1.391   .     A
C78    C554    1.422   .     S
C78    C548    1.400   .     S
C79    C80     1.383   .     A
C79    H83     1.084   .     S
C80    H88     1.080   .     S
H81    C116    1.086   .     S
H82    C382    1.088   1_545 S
O90    Zn106   1.928   .     S
O90    Zn103   1.964   .     S
O90    Zn104   1.934   .     S
O90    Zn105   1.947   .     S
O91    Zn104   1.934   .     S
O92    Zn106   1.940   .     S
O93    Zn105   1.927   .     S
O94    Zn103   1.922   .     S
O95    Zn103   1.933   .     S
O96    Zn106   1.944   .     S
O97    Zn104   1.925   .     S
O98    Zn105   1.933   .     S
O99    Zn106   1.928   .     S
O100   Zn103   1.925   .     S
O101   Zn104   1.948   .     S
O102   Zn105   1.934   .     S
Br107  C112    1.921   .     S
Br108  C277    1.931   .     S
Br109  C126    1.926   .     S
C110   C116    1.436   .     S
C110   O152    1.266   .     A
C110   O150    1.266   .     A
C111   H138    1.077   .     S
C111   C130    1.412   .     A
C111   C125    1.394   .     A
C112   C125    1.404   .     A
C112   C124    1.389   .     A
C113   O151    1.287   .     A
C113   C115    1.454   .     S
C113   O153    1.284   .     A
C114   C123    1.483   .     S
C114   C126    1.418   .     A
C114   C129    1.423   .     A
C115   C10     1.334   1_655 S
C115   H36     1.088   1_655 S
C117   C120    1.450   .     S
C117   C277    1.343   .     S
C117   H294    1.088   .     S
C118   C119    1.427   .     S
C118   Br426   1.931   1_545 S
C118   C435    1.343   1_545 S
C119   O154    1.270   .     A
C119   O148    1.274   .     A
C120   O155    1.278   .     A
C120   O149    1.265   .     A
C121   H140    1.083   .     S
C121   C126    1.389   .     A
C121   C604    1.386   .     S
C122   C125    1.455   .     S
C122   O146    1.282   .     A
C122   O144    1.270   .     A
C123   O147    1.288   .     A
C123   O145    1.282   .     A
C124   H137    1.084   .     S
C124   C608    1.400   1_554 S
C127   H139    1.076   .     S
C127   C598    1.386   1_554 S
C127   C605    1.413   1_554 S
C128   C129    1.424   .     A
C128   C604    1.413   .     S
C128   C607    1.427   .     S
C129   C133    1.411   .     A
C130   C605    1.427   1_554 S
C130   C608    1.422   1_554 S
C131   C132    1.391   .     A
C131   C607    1.422   .     S
C131   C601    1.400   .     S
C132   C133    1.383   .     A
C132   H136    1.084   .     S
C133   H141    1.080   .     S
H134   C10     1.086   1_655 S
H135   C435    1.088   1_545 S
O143   Zn159   1.928   .     S
O143   Zn156   1.964   .     S
O143   Zn157   1.934   .     S
O143   Zn158   1.947   .     S
O144   Zn157   1.934   .     S
O145   Zn159   1.940   .     S
O146   Zn158   1.927   .     S
O147   Zn156   1.922   .     S
O148   Zn156   1.933   .     S
O149   Zn159   1.944   .     S
O150   Zn157   1.925   .     S
O151   Zn158   1.933   .     S
O152   Zn159   1.928   .     S
O153   Zn156   1.925   .     S
O154   Zn157   1.948   .     S
O155   Zn158   1.934   .     S
Br160  C165    1.921   .     S
Br161  C330    1.931   .     S
Br162  C179    1.926   .     S
C163   C169    1.436   .     S
C163   O205    1.266   .     A
C163   O203    1.266   .     A
C164   H191    1.077   .     S
C164   C183    1.412   .     A
C164   C178    1.394   .     A
C165   C178    1.404   .     A
C165   C177    1.389   .     A
C166   O204    1.287   .     A
C166   C168    1.454   .     S
C166   O206    1.284   .     A
C167   C176    1.483   .     S
C167   C179    1.418   .     A
C167   C182    1.423   .     A
C168   C222    1.334   .     S
C168   H248    1.088   .     S
C169   C274    1.334   1_455 S
C169   H293    1.086   1_455 S
C170   C173    1.450   .     S
C170   C330    1.343   .     S
C170   H347    1.088   .     S
C171   C172    1.427   .     S
C172   O207    1.270   .     A
C172   O201    1.274   .     A
C173   O208    1.278   .     A
C173   O202    1.265   .     A
C174   H193    1.083   .     S
C174   C179    1.389   .     A
C174   C657    1.386   .     S
C175   C178    1.455   .     S
C175   O199    1.282   .     A
C175   O197    1.270   .     A
C176   O200    1.288   .     A
C176   O198    1.282   .     A
C177   H190    1.084   .     S
C177   C661    1.400   1_554 S
C180   H192    1.076   .     S
C180   C651    1.386   1_554 S
C180   C658    1.413   1_554 S
C181   C182    1.424   .     A
C181   C657    1.413   .     S
C181   C660    1.427   .     S
C182   C186    1.411   .     A
C183   C658    1.427   1_554 S
C183   C661    1.422   1_554 S
C184   C185    1.391   .     A
C184   C660    1.422   .     S
C184   C654    1.400   .     S
C185   C186    1.383   .     A
C185   H189    1.084   .     S
C186   H194    1.080   .     S
H187   C222    1.086   .     S
H195   C274    1.088   1_455 S
O196   Zn212   1.928   .     S
O196   Zn209   1.964   .     S
O196   Zn210   1.934   .     S
O196   Zn211   1.947   .     S
O197   Zn210   1.934   .     S
O198   Zn212   1.940   .     S
O199   Zn211   1.927   .     S
O200   Zn209   1.922   .     S
O201   Zn209   1.933   .     S
O202   Zn212   1.944   .     S
O203   Zn210   1.925   .     S
O204   Zn211   1.933   .     S
O205   Zn212   1.928   .     S
O206   Zn209   1.925   .     S
O207   Zn210   1.948   .     S
O208   Zn211   1.934   .     S
Br213  C218    1.921   .     S
Br214  C383    1.931   .     S
Br215  C232    1.926   .     S
C216   C222    1.436   .     S
C216   O258    1.266   .     A
C216   O256    1.266   .     A
C217   H244    1.077   .     S
C217   C236    1.412   .     A
C217   C231    1.394   .     A
C218   C231    1.404   .     A
C218   C230    1.389   .     A
C219   O257    1.287   .     A
C219   C221    1.454   .     S
C219   O259    1.284   .     A
C220   C229    1.483   .     S
C220   C232    1.418   .     A
C220   C235    1.423   .     A
C221   C275    1.334   .     S
C221   H301    1.088   .     S
C223   C226    1.450   .     S
C223   C383    1.343   .     S
C223   H400    1.088   .     S
C224   C225    1.427   .     S
C225   O260    1.270   .     A
C225   O254    1.274   .     A
C226   O261    1.278   .     A
C226   O255    1.265   .     A
C227   H246    1.083   .     S
C227   C232    1.389   .     A
C227   C710    1.386   .     S
C228   C231    1.455   .     S
C228   O252    1.282   .     A
C228   O250    1.270   .     A
C229   O253    1.288   .     A
C229   O251    1.282   .     A
C230   H243    1.084   .     S
C230   C714    1.400   1_554 S
C233   H245    1.076   .     S
C233   C704    1.386   1_554 S
C233   C711    1.413   1_554 S
C234   C235    1.424   .     A
C234   C710    1.413   .     S
C234   C713    1.427   .     S
C235   C239    1.411   .     A
C236   C711    1.427   1_554 S
C236   C714    1.422   1_554 S
C237   C238    1.391   .     A
C237   C713    1.422   .     S
C237   C707    1.400   .     S
C238   C239    1.383   .     A
C238   H242    1.084   .     S
C239   H247    1.080   .     S
H240   C275    1.086   .     S
O249   Zn265   1.928   .     S
O249   Zn262   1.964   .     S
O249   Zn263   1.934   .     S
O249   Zn264   1.947   .     S
O250   Zn263   1.934   .     S
O251   Zn265   1.940   .     S
O252   Zn264   1.927   .     S
O253   Zn262   1.922   .     S
O254   Zn262   1.933   .     S
O255   Zn265   1.944   .     S
O256   Zn263   1.925   .     S
O257   Zn264   1.933   .     S
O258   Zn265   1.928   .     S
O259   Zn262   1.925   .     S
O260   Zn263   1.948   .     S
O261   Zn264   1.934   .     S
Br266  C271    1.921   .     S
Br267  C436    1.931   .     S
Br268  C285    1.926   .     S
C269   C275    1.436   .     S
C269   O311    1.266   .     A
C269   O309    1.266   .     A
C270   H297    1.077   .     S
C270   C289    1.412   .     A
C270   C284    1.394   .     A
C271   C284    1.404   .     A
C271   C283    1.389   .     A
C272   O310    1.287   .     A
C272   C274    1.454   .     S
C272   O312    1.284   .     A
C273   C282    1.483   .     S
C273   C285    1.418   .     A
C273   C288    1.423   .     A
C274   C169    1.334   1_655 S
C274   H195    1.088   1_655 S
C276   C279    1.450   .     S
C276   C436    1.343   .     S
C276   H453    1.088   .     S
C277   C278    1.427   .     S
C278   O313    1.270   .     A
C278   O307    1.274   .     A
C279   O314    1.278   .     A
C279   O308    1.265   .     A
C280   H299    1.083   .     S
C280   C285    1.389   .     A
C280   C763    1.386   .     S
C281   C284    1.455   .     S
C281   O305    1.282   .     A
C281   O303    1.270   .     A
C282   O306    1.288   .     A
C282   O304    1.282   .     A
C283   H296    1.084   .     S
C283   C767    1.400   1_554 S
C286   H298    1.076   .     S
C286   C757    1.386   1_554 S
C286   C764    1.413   1_554 S
C287   C288    1.424   .     A
C287   C763    1.413   .     S
C287   C766    1.427   .     S
C288   C292    1.411   .     A
C289   C764    1.427   1_554 S
C289   C767    1.422   1_554 S
C290   C291    1.391   .     A
C290   C766    1.422   .     S
C290   C760    1.400   .     S
C291   C292    1.383   .     A
C291   H295    1.084   .     S
C292   H300    1.080   .     S
H293   C169    1.086   1_655 S
O302   Zn318   1.928   .     S
O302   Zn315   1.964   .     S
O302   Zn316   1.934   .     S
O302   Zn317   1.947   .     S
O303   Zn316   1.934   .     S
O304   Zn318   1.940   .     S
O305   Zn317   1.927   .     S
O306   Zn315   1.922   .     S
O307   Zn315   1.933   .     S
O308   Zn318   1.944   .     S
O309   Zn316   1.925   .     S
O310   Zn317   1.933   .     S
O311   Zn318   1.928   .     S
O312   Zn315   1.925   .     S
O313   Zn316   1.948   .     S
O314   Zn317   1.934   .     S
Br319  C324    1.921   .     S
Br320  C12     1.931   1_565 S
Br321  C338    1.926   .     S
C322   C328    1.436   .     S
C322   O364    1.266   .     A
C322   O362    1.266   .     A
C323   H350    1.077   .     S
C323   C342    1.412   .     A
C323   C337    1.394   .     A
C324   C337    1.404   .     A
C324   C336    1.389   .     A
C325   O363    1.287   .     A
C325   C327    1.454   .     S
C325   O365    1.284   .     A
C326   C335    1.483   .     S
C326   C338    1.418   .     A
C326   C341    1.423   .     A
C327   C381    1.334   .     S
C327   H407    1.088   .     S
C328   C433    1.334   1_455 S
C328   H452    1.086   1_455 S
C329   C332    1.450   .     S
C329   C12     1.343   1_565 S
C329   H29     1.088   1_565 S
C330   C331    1.427   .     S
C331   O366    1.270   .     A
C331   O360    1.274   .     A
C332   O367    1.278   .     A
C332   O361    1.265   .     A
C333   H352    1.083   .     S
C333   C338    1.389   .     A
C333   C816    1.386   .     S
C334   C337    1.455   .     S
C334   O358    1.282   .     A
C334   O356    1.270   .     A
C335   O359    1.288   .     A
C335   O357    1.282   .     A
C336   H349    1.084   .     S
C336   C820    1.400   1_554 S
C339   H351    1.076   .     S
C339   C810    1.386   1_554 S
C339   C817    1.413   1_554 S
C340   C341    1.424   .     A
C340   C816    1.413   .     S
C340   C819    1.427   .     S
C341   C345    1.411   .     A
C342   C817    1.427   1_554 S
C342   C820    1.422   1_554 S
C343   C344    1.391   .     A
C343   C819    1.422   .     S
C343   C813    1.400   .     S
C344   C345    1.383   .     A
C344   H348    1.084   .     S
C345   H353    1.080   .     S
H346   C381    1.086   .     S
H354   C433    1.088   1_455 S
O355   Zn371   1.928   .     S
O355   Zn368   1.964   .     S
O355   Zn369   1.934   .     S
O355   Zn370   1.947   .     S
O356   Zn369   1.934   .     S
O357   Zn371   1.940   .     S
O358   Zn370   1.927   .     S
O359   Zn368   1.922   .     S
O360   Zn368   1.933   .     S
O361   Zn371   1.944   .     S
O362   Zn369   1.925   .     S
O363   Zn370   1.933   .     S
O364   Zn371   1.928   .     S
O365   Zn368   1.925   .     S
O366   Zn369   1.948   .     S
O367   Zn370   1.934   .     S
Br372  C377    1.921   .     S
Br373  C65     1.931   1_565 S
Br374  C391    1.926   .     S
C375   C381    1.436   .     S
C375   O417    1.266   .     A
C375   O415    1.266   .     A
C376   H403    1.077   .     S
C376   C395    1.412   .     A
C376   C390    1.394   .     A
C377   C390    1.404   .     A
C377   C389    1.389   .     A
C378   O416    1.287   .     A
C378   C380    1.454   .     S
C378   O418    1.284   .     A
C379   C388    1.483   .     S
C379   C391    1.418   .     A
C379   C394    1.423   .     A
C380   C434    1.334   .     S
C380   H460    1.088   .     S
C382   C385    1.450   .     S
C382   C65     1.343   1_565 S
C382   H82     1.088   1_565 S
C383   C384    1.427   .     S
C384   O419    1.270   .     A
C384   O413    1.274   .     A
C385   O420    1.278   .     A
C385   O414    1.265   .     A
C386   H405    1.083   .     S
C386   C391    1.389   .     A
C386   C869    1.386   .     S
C387   C390    1.455   .     S
C387   O411    1.282   .     A
C387   O409    1.270   .     A
C388   O412    1.288   .     A
C388   O410    1.282   .     A
C389   H402    1.084   .     S
C389   C873    1.400   1_554 S
C392   H404    1.076   .     S
C392   C863    1.386   1_554 S
C392   C870    1.413   1_554 S
C393   C394    1.424   .     A
C393   C869    1.413   .     S
C393   C872    1.427   .     S
C394   C398    1.411   .     A
C395   C870    1.427   1_554 S
C395   C873    1.422   1_554 S
C396   C397    1.391   .     A
C396   C872    1.422   .     S
C396   C866    1.400   .     S
C397   C398    1.383   .     A
C397   H401    1.084   .     S
C398   H406    1.080   .     S
H399   C434    1.086   .     S
O408   Zn424   1.928   .     S
O408   Zn421   1.964   .     S
O408   Zn422   1.934   .     S
O408   Zn423   1.947   .     S
O409   Zn422   1.934   .     S
O410   Zn424   1.940   .     S
O411   Zn423   1.927   .     S
O412   Zn421   1.922   .     S
O413   Zn421   1.933   .     S
O414   Zn424   1.944   .     S
O415   Zn422   1.925   .     S
O416   Zn423   1.933   .     S
O417   Zn424   1.928   .     S
O418   Zn421   1.925   .     S
O419   Zn422   1.948   .     S
O420   Zn423   1.934   .     S
Br425  C430    1.921   .     S
Br426  C118    1.931   1_565 S
Br427  C444    1.926   .     S
C428   C434    1.436   .     S
C428   O470    1.266   .     A
C428   O468    1.266   .     A
C429   H456    1.077   .     S
C429   C448    1.412   .     A
C429   C443    1.394   .     A
C430   C443    1.404   .     A
C430   C442    1.389   .     A
C431   O469    1.287   .     A
C431   C433    1.454   .     S
C431   O471    1.284   .     A
C432   C441    1.483   .     S
C432   C444    1.418   .     A
C432   C447    1.423   .     A
C433   C328    1.334   1_655 S
C433   H354    1.088   1_655 S
C435   C438    1.450   .     S
C435   C118    1.343   1_565 S
C435   H135    1.088   1_565 S
C436   C437    1.427   .     S
C437   O472    1.270   .     A
C437   O466    1.274   .     A
C438   O473    1.278   .     A
C438   O467    1.265   .     A
C439   H458    1.083   .     S
C439   C444    1.389   .     A
C439   C922    1.386   .     S
C440   C443    1.455   .     S
C440   O464    1.282   .     A
C440   O462    1.270   .     A
C441   O465    1.288   .     A
C441   O463    1.282   .     A
C442   H455    1.084   .     S
C442   C926    1.400   1_554 S
C445   H457    1.076   .     S
C445   C916    1.386   1_554 S
C445   C923    1.413   1_554 S
C446   C447    1.424   .     A
C446   C922    1.413   .     S
C446   C925    1.427   .     S
C447   C451    1.411   .     A
C448   C923    1.427   1_554 S
C448   C926    1.422   1_554 S
C449   C450    1.391   .     A
C449   C925    1.422   .     S
C449   C919    1.400   .     S
C450   C451    1.383   .     A
C450   H454    1.084   .     S
C451   H459    1.080   .     S
H452   C328    1.086   1_655 S
O461   Zn477   1.928   .     S
O461   Zn474   1.964   .     S
O461   Zn475   1.934   .     S
O461   Zn476   1.947   .     S
O462   Zn475   1.934   .     S
O463   Zn477   1.940   .     S
O464   Zn476   1.927   .     S
O465   Zn474   1.922   .     S
O466   Zn474   1.933   .     S
O467   Zn477   1.944   .     S
O468   Zn475   1.925   .     S
O469   Zn476   1.933   .     S
O470   Zn477   1.928   .     S
O471   Zn474   1.925   .     S
O472   Zn475   1.948   .     S
O473   Zn476   1.934   .     S
Br478  C483    1.921   .     S
Br479  C648    1.931   .     S
Br480  C497    1.926   .     S
C481   C487    1.436   .     S
C481   O523    1.266   .     A
C481   O521    1.266   .     A
C482   H509    1.077   .     S
C482   C501    1.412   .     A
C482   C496    1.394   .     A
C483   C496    1.404   .     A
C483   C495    1.389   .     A
C484   O522    1.287   .     A
C484   C486    1.454   .     S
C484   O524    1.284   .     A
C485   C494    1.483   .     S
C485   C497    1.418   .     A
C485   C500    1.423   .     A
C486   C540    1.334   .     S
C486   H566    1.088   .     S
C487   C592    1.334   1_455 S
C487   H611    1.086   1_455 S
C488   C491    1.450   .     S
C488   C648    1.343   .     S
C488   H665    1.088   .     S
C489   C490    1.427   .     S
C489   Br797   1.931   1_545 S
C489   C806    1.343   1_545 S
C490   O525    1.270   .     A
C490   O519    1.274   .     A
C491   O526    1.278   .     A
C491   O520    1.265   .     A
C492   H511    1.083   .     S
C492   C497    1.389   .     A
C492   C21     1.386   1_556 S
C493   C496    1.455   .     S
C493   O517    1.282   .     A
C493   O515    1.270   .     A
C494   O518    1.288   .     A
C494   O516    1.282   .     A
C495   H508    1.084   .     S
C498   H510    1.076   .     S
C499   C500    1.424   .     A
C499   C21     1.413   1_556 S
C499   C24     1.427   1_556 S
C500   C504    1.411   .     A
C502   C503    1.391   .     A
C502   C24     1.422   1_556 S
C502   C18     1.400   1_556 S
C503   C504    1.383   .     A
C503   H507    1.084   .     S
C504   H512    1.080   .     S
H505   C540    1.086   .     S
H506   C806    1.088   1_545 S
H513   C592    1.088   1_455 S
O514   Zn530   1.928   .     S
O514   Zn527   1.964   .     S
O514   Zn528   1.934   .     S
O514   Zn529   1.947   .     S
O515   Zn528   1.934   .     S
O516   Zn530   1.940   .     S
O517   Zn529   1.927   .     S
O518   Zn527   1.922   .     S
O519   Zn527   1.933   .     S
O520   Zn530   1.944   .     S
O521   Zn528   1.925   .     S
O522   Zn529   1.933   .     S
O523   Zn530   1.928   .     S
O524   Zn527   1.925   .     S
O525   Zn528   1.948   .     S
O526   Zn529   1.934   .     S
Br531  C536    1.921   .     S
Br532  C701    1.931   .     S
Br533  C550    1.926   .     S
C534   C540    1.436   .     S
C534   O576    1.266   .     A
C534   O574    1.266   .     A
C535   H562    1.077   .     S
C535   C554    1.412   .     A
C535   C549    1.394   .     A
C536   C549    1.404   .     A
C536   C548    1.389   .     A
C537   O575    1.287   .     A
C537   C539    1.454   .     S
C537   O577    1.284   .     A
C538   C547    1.483   .     S
C538   C550    1.418   .     A
C538   C553    1.423   .     A
C539   C593    1.334   .     S
C539   H619    1.088   .     S
C541   C544    1.450   .     S
C541   C701    1.343   .     S
C541   H718    1.088   .     S
C542   C543    1.427   .     S
C542   Br850   1.931   1_545 S
C542   C859    1.343   1_545 S
C543   O578    1.270   .     A
C543   O572    1.274   .     A
C544   O579    1.278   .     A
C544   O573    1.265   .     A
C545   H564    1.083   .     S
C545   C550    1.389   .     A
C545   C74     1.386   1_556 S
C546   C549    1.455   .     S
C546   O570    1.282   .     A
C546   O568    1.270   .     A
C547   O571    1.288   .     A
C547   O569    1.282   .     A
C548   H561    1.084   .     S
C551   H563    1.076   .     S
C552   C553    1.424   .     A
C552   C74     1.413   1_556 S
C552   C77     1.427   1_556 S
C553   C557    1.411   .     A
C555   C556    1.391   .     A
C555   C77     1.422   1_556 S
C555   C71     1.400   1_556 S
C556   C557    1.383   .     A
C556   H560    1.084   .     S
C557   H565    1.080   .     S
H558   C593    1.086   .     S
H559   C859    1.088   1_545 S
O567   Zn583   1.928   .     S
O567   Zn580   1.964   .     S
O567   Zn581   1.934   .     S
O567   Zn582   1.947   .     S
O568   Zn581   1.934   .     S
O569   Zn583   1.940   .     S
O570   Zn582   1.927   .     S
O571   Zn580   1.922   .     S
O572   Zn580   1.933   .     S
O573   Zn583   1.944   .     S
O574   Zn581   1.925   .     S
O575   Zn582   1.933   .     S
O576   Zn583   1.928   .     S
O577   Zn580   1.925   .     S
O578   Zn581   1.948   .     S
O579   Zn582   1.934   .     S
Br584  C589    1.921   .     S
Br585  C754    1.931   .     S
Br586  C603    1.926   .     S
C587   C593    1.436   .     S
C587   O629    1.266   .     A
C587   O627    1.266   .     A
C588   H615    1.077   .     S
C588   C607    1.412   .     A
C588   C602    1.394   .     A
C589   C602    1.404   .     A
C589   C601    1.389   .     A
C590   O628    1.287   .     A
C590   C592    1.454   .     S
C590   O630    1.284   .     A
C591   C600    1.483   .     S
C591   C603    1.418   .     A
C591   C606    1.423   .     A
C592   C487    1.334   1_655 S
C592   H513    1.088   1_655 S
C594   C597    1.450   .     S
C594   C754    1.343   .     S
C594   H771    1.088   .     S
C595   C596    1.427   .     S
C595   Br903   1.931   1_545 S
C595   C912    1.343   1_545 S
C596   O631    1.270   .     A
C596   O625    1.274   .     A
C597   O632    1.278   .     A
C597   O626    1.265   .     A
C598   H617    1.083   .     S
C598   C603    1.389   .     A
C598   C127    1.386   1_556 S
C599   C602    1.455   .     S
C599   O623    1.282   .     A
C599   O621    1.270   .     A
C600   O624    1.288   .     A
C600   O622    1.282   .     A
C601   H614    1.084   .     S
C604   H616    1.076   .     S
C605   C606    1.424   .     A
C605   C127    1.413   1_556 S
C605   C130    1.427   1_556 S
C606   C610    1.411   .     A
C608   C609    1.391   .     A
C608   C130    1.422   1_556 S
C608   C124    1.400   1_556 S
C609   C610    1.383   .     A
C609   H613    1.084   .     S
C610   H618    1.080   .     S
H611   C487    1.086   1_655 S
H612   C912    1.088   1_545 S
O620   Zn636   1.928   .     S
O620   Zn633   1.964   .     S
O620   Zn634   1.934   .     S
O620   Zn635   1.947   .     S
O621   Zn634   1.934   .     S
O622   Zn636   1.940   .     S
O623   Zn635   1.927   .     S
O624   Zn633   1.922   .     S
O625   Zn633   1.933   .     S
O626   Zn636   1.944   .     S
O627   Zn634   1.925   .     S
O628   Zn635   1.933   .     S
O629   Zn636   1.928   .     S
O630   Zn633   1.925   .     S
O631   Zn634   1.948   .     S
O632   Zn635   1.934   .     S
Br637  C642    1.921   .     S
Br638  C807    1.931   .     S
Br639  C656    1.926   .     S
C640   C646    1.436   .     S
C640   O682    1.266   .     A
C640   O680    1.266   .     A
C641   H668    1.077   .     S
C641   C660    1.412   .     A
C641   C655    1.394   .     A
C642   C655    1.404   .     A
C642   C654    1.389   .     A
C643   O681    1.287   .     A
C643   C645    1.454   .     S
C643   O683    1.284   .     A
C644   C653    1.483   .     S
C644   C656    1.418   .     A
C644   C659    1.423   .     A
C645   C699    1.334   .     S
C645   H725    1.088   .     S
C646   C751    1.334   1_455 S
C646   H770    1.086   1_455 S
C647   C650    1.450   .     S
C647   C807    1.343   .     S
C647   H824    1.088   .     S
C648   C649    1.427   .     S
C649   O684    1.270   .     A
C649   O678    1.274   .     A
C650   O685    1.278   .     A
C650   O679    1.265   .     A
C651   H670    1.083   .     S
C651   C656    1.389   .     A
C651   C180    1.386   1_556 S
C652   C655    1.455   .     S
C652   O676    1.282   .     A
C652   O674    1.270   .     A
C653   O677    1.288   .     A
C653   O675    1.282   .     A
C654   H667    1.084   .     S
C657   H669    1.076   .     S
C658   C659    1.424   .     A
C658   C180    1.413   1_556 S
C658   C183    1.427   1_556 S
C659   C663    1.411   .     A
C661   C662    1.391   .     A
C661   C183    1.422   1_556 S
C661   C177    1.400   1_556 S
C662   C663    1.383   .     A
C662   H666    1.084   .     S
C663   H671    1.080   .     S
H664   C699    1.086   .     S
H672   C751    1.088   1_455 S
O673   Zn689   1.928   .     S
O673   Zn686   1.964   .     S
O673   Zn687   1.934   .     S
O673   Zn688   1.947   .     S
O674   Zn687   1.934   .     S
O675   Zn689   1.940   .     S
O676   Zn688   1.927   .     S
O677   Zn686   1.922   .     S
O678   Zn686   1.933   .     S
O679   Zn689   1.944   .     S
O680   Zn687   1.925   .     S
O681   Zn688   1.933   .     S
O682   Zn689   1.928   .     S
O683   Zn686   1.925   .     S
O684   Zn687   1.948   .     S
O685   Zn688   1.934   .     S
Br690  C695    1.921   .     S
Br691  C860    1.931   .     S
Br692  C709    1.926   .     S
C693   C699    1.436   .     S
C693   O735    1.266   .     A
C693   O733    1.266   .     A
C694   H721    1.077   .     S
C694   C713    1.412   .     A
C694   C708    1.394   .     A
C695   C708    1.404   .     A
C695   C707    1.389   .     A
C696   O734    1.287   .     A
C696   C698    1.454   .     S
C696   O736    1.284   .     A
C697   C706    1.483   .     S
C697   C709    1.418   .     A
C697   C712    1.423   .     A
C698   C752    1.334   .     S
C698   H778    1.088   .     S
C700   C703    1.450   .     S
C700   C860    1.343   .     S
C700   H877    1.088   .     S
C701   C702    1.427   .     S
C702   O737    1.270   .     A
C702   O731    1.274   .     A
C703   O738    1.278   .     A
C703   O732    1.265   .     A
C704   H723    1.083   .     S
C704   C709    1.389   .     A
C704   C233    1.386   1_556 S
C705   C708    1.455   .     S
C705   O729    1.282   .     A
C705   O727    1.270   .     A
C706   O730    1.288   .     A
C706   O728    1.282   .     A
C707   H720    1.084   .     S
C710   H722    1.076   .     S
C711   C712    1.424   .     A
C711   C233    1.413   1_556 S
C711   C236    1.427   1_556 S
C712   C716    1.411   .     A
C714   C715    1.391   .     A
C714   C236    1.422   1_556 S
C714   C230    1.400   1_556 S
C715   C716    1.383   .     A
C715   H719    1.084   .     S
C716   H724    1.080   .     S
H717   C752    1.086   .     S
O726   Zn742   1.928   .     S
O726   Zn739   1.964   .     S
O726   Zn740   1.934   .     S
O726   Zn741   1.947   .     S
O727   Zn740   1.934   .     S
O728   Zn742   1.940   .     S
O729   Zn741   1.927   .     S
O730   Zn739   1.922   .     S
O731   Zn739   1.933   .     S
O732   Zn742   1.944   .     S
O733   Zn740   1.925   .     S
O734   Zn741   1.933   .     S
O735   Zn742   1.928   .     S
O736   Zn739   1.925   .     S
O737   Zn740   1.948   .     S
O738   Zn741   1.934   .     S
Br743  C748    1.921   .     S
Br744  C913    1.931   .     S
Br745  C762    1.926   .     S
C746   C752    1.436   .     S
C746   O788    1.266   .     A
C746   O786    1.266   .     A
C747   H774    1.077   .     S
C747   C766    1.412   .     A
C747   C761    1.394   .     A
C748   C761    1.404   .     A
C748   C760    1.389   .     A
C749   O787    1.287   .     A
C749   C751    1.454   .     S
C749   O789    1.284   .     A
C750   C759    1.483   .     S
C750   C762    1.418   .     A
C750   C765    1.423   .     A
C751   C646    1.334   1_655 S
C751   H672    1.088   1_655 S
C753   C756    1.450   .     S
C753   C913    1.343   .     S
C753   H930    1.088   .     S
C754   C755    1.427   .     S
C755   O790    1.270   .     A
C755   O784    1.274   .     A
C756   O791    1.278   .     A
C756   O785    1.265   .     A
C757   H776    1.083   .     S
C757   C762    1.389   .     A
C757   C286    1.386   1_556 S
C758   C761    1.455   .     S
C758   O782    1.282   .     A
C758   O780    1.270   .     A
C759   O783    1.288   .     A
C759   O781    1.282   .     A
C760   H773    1.084   .     S
C763   H775    1.076   .     S
C764   C765    1.424   .     A
C764   C286    1.413   1_556 S
C764   C289    1.427   1_556 S
C765   C769    1.411   .     A
C767   C768    1.391   .     A
C767   C289    1.422   1_556 S
C767   C283    1.400   1_556 S
C768   C769    1.383   .     A
C768   H772    1.084   .     S
C769   H777    1.080   .     S
H770   C646    1.086   1_655 S
O779   Zn795   1.928   .     S
O779   Zn792   1.964   .     S
O779   Zn793   1.934   .     S
O779   Zn794   1.947   .     S
O780   Zn793   1.934   .     S
O781   Zn795   1.940   .     S
O782   Zn794   1.927   .     S
O783   Zn792   1.922   .     S
O784   Zn792   1.933   .     S
O785   Zn795   1.944   .     S
O786   Zn793   1.925   .     S
O787   Zn794   1.933   .     S
O788   Zn795   1.928   .     S
O789   Zn792   1.925   .     S
O790   Zn793   1.948   .     S
O791   Zn794   1.934   .     S
Br796  C801    1.921   .     S
Br797  C489    1.931   1_565 S
Br798  C815    1.926   .     S
C799   C805    1.436   .     S
C799   O841    1.266   .     A
C799   O839    1.266   .     A
C800   H827    1.077   .     S
C800   C819    1.412   .     A
C800   C814    1.394   .     A
C801   C814    1.404   .     A
C801   C813    1.389   .     A
C802   O840    1.287   .     A
C802   C804    1.454   .     S
C802   O842    1.284   .     A
C803   C812    1.483   .     S
C803   C815    1.418   .     A
C803   C818    1.423   .     A
C804   C858    1.334   .     S
C804   H884    1.088   .     S
C805   C910    1.334   1_455 S
C805   H929    1.086   1_455 S
C806   C809    1.450   .     S
C806   C489    1.343   1_565 S
C806   H506    1.088   1_565 S
C807   C808    1.427   .     S
C808   O843    1.270   .     A
C808   O837    1.274   .     A
C809   O844    1.278   .     A
C809   O838    1.265   .     A
C810   H829    1.083   .     S
C810   C815    1.389   .     A
C810   C339    1.386   1_556 S
C811   C814    1.455   .     S
C811   O835    1.282   .     A
C811   O833    1.270   .     A
C812   O836    1.288   .     A
C812   O834    1.282   .     A
C813   H826    1.084   .     S
C816   H828    1.076   .     S
C817   C818    1.424   .     A
C817   C339    1.413   1_556 S
C817   C342    1.427   1_556 S
C818   C822    1.411   .     A
C820   C821    1.391   .     A
C820   C342    1.422   1_556 S
C820   C336    1.400   1_556 S
C821   C822    1.383   .     A
C821   H825    1.084   .     S
C822   H830    1.080   .     S
H823   C858    1.086   .     S
H831   C910    1.088   1_455 S
O832   Zn848   1.928   .     S
O832   Zn845   1.964   .     S
O832   Zn846   1.934   .     S
O832   Zn847   1.947   .     S
O833   Zn846   1.934   .     S
O834   Zn848   1.940   .     S
O835   Zn847   1.927   .     S
O836   Zn845   1.922   .     S
O837   Zn845   1.933   .     S
O838   Zn848   1.944   .     S
O839   Zn846   1.925   .     S
O840   Zn847   1.933   .     S
O841   Zn848   1.928   .     S
O842   Zn845   1.925   .     S
O843   Zn846   1.948   .     S
O844   Zn847   1.934   .     S
Br849  C854    1.921   .     S
Br850  C542    1.931   1_565 S
Br851  C868    1.926   .     S
C852   C858    1.436   .     S
C852   O894    1.266   .     A
C852   O892    1.266   .     A
C853   H880    1.077   .     S
C853   C872    1.412   .     A
C853   C867    1.394   .     A
C854   C867    1.404   .     A
C854   C866    1.389   .     A
C855   O893    1.287   .     A
C855   C857    1.454   .     S
C855   O895    1.284   .     A
C856   C865    1.483   .     S
C856   C868    1.418   .     A
C856   C871    1.423   .     A
C857   C911    1.334   .     S
C857   H937    1.088   .     S
C859   C862    1.450   .     S
C859   C542    1.343   1_565 S
C859   H559    1.088   1_565 S
C860   C861    1.427   .     S
C861   O896    1.270   .     A
C861   O890    1.274   .     A
C862   O897    1.278   .     A
C862   O891    1.265   .     A
C863   H882    1.083   .     S
C863   C868    1.389   .     A
C863   C392    1.386   1_556 S
C864   C867    1.455   .     S
C864   O888    1.282   .     A
C864   O886    1.270   .     A
C865   O889    1.288   .     A
C865   O887    1.282   .     A
C866   H879    1.084   .     S
C869   H881    1.076   .     S
C870   C871    1.424   .     A
C870   C392    1.413   1_556 S
C870   C395    1.427   1_556 S
C871   C875    1.411   .     A
C873   C874    1.391   .     A
C873   C395    1.422   1_556 S
C873   C389    1.400   1_556 S
C874   C875    1.383   .     A
C874   H878    1.084   .     S
C875   H883    1.080   .     S
H876   C911    1.086   .     S
O885   Zn901   1.928   .     S
O885   Zn898   1.964   .     S
O885   Zn899   1.934   .     S
O885   Zn900   1.947   .     S
O886   Zn899   1.934   .     S
O887   Zn901   1.940   .     S
O888   Zn900   1.927   .     S
O889   Zn898   1.922   .     S
O890   Zn898   1.933   .     S
O891   Zn901   1.944   .     S
O892   Zn899   1.925   .     S
O893   Zn900   1.933   .     S
O894   Zn901   1.928   .     S
O895   Zn898   1.925   .     S
O896   Zn899   1.948   .     S
O897   Zn900   1.934   .     S
Br902  C907    1.921   .     S
Br903  C595    1.931   1_565 S
Br904  C921    1.926   .     S
C905   C911    1.436   .     S
C905   O947    1.266   .     A
C905   O945    1.266   .     A
C906   H933    1.077   .     S
C906   C925    1.412   .     A
C906   C920    1.394   .     A
C907   C920    1.404   .     A
C907   C919    1.389   .     A
C908   O946    1.287   .     A
C908   C910    1.454   .     S
C908   O948    1.284   .     A
C909   C918    1.483   .     S
C909   C921    1.418   .     A
C909   C924    1.423   .     A
C910   C805    1.334   1_655 S
C910   H831    1.088   1_655 S
C912   C915    1.450   .     S
C912   C595    1.343   1_565 S
C912   H612    1.088   1_565 S
C913   C914    1.427   .     S
C914   O949    1.270   .     A
C914   O943    1.274   .     A
C915   O950    1.278   .     A
C915   O944    1.265   .     A
C916   H935    1.083   .     S
C916   C921    1.389   .     A
C916   C445    1.386   1_556 S
C917   C920    1.455   .     S
C917   O941    1.282   .     A
C917   O939    1.270   .     A
C918   O942    1.288   .     A
C918   O940    1.282   .     A
C919   H932    1.084   .     S
C922   H934    1.076   .     S
C923   C924    1.424   .     A
C923   C445    1.413   1_556 S
C923   C448    1.427   1_556 S
C924   C928    1.411   .     A
C926   C927    1.391   .     A
C926   C448    1.422   1_556 S
C926   C442    1.400   1_556 S
C927   C928    1.383   .     A
C927   H931    1.084   .     S
C928   H936    1.080   .     S
H929   C805    1.086   1_655 S
O938   Zn954   1.928   .     S
O938   Zn951   1.964   .     S
O938   Zn952   1.934   .     S
O938   Zn953   1.947   .     S
O939   Zn952   1.934   .     S
O940   Zn954   1.940   .     S
O941   Zn953   1.927   .     S
O942   Zn951   1.922   .     S
O943   Zn951   1.933   .     S
O944   Zn954   1.944   .     S
O945   Zn952   1.925   .     S
O946   Zn953   1.933   .     S
O947   Zn954   1.928   .     S
O948   Zn951   1.925   .     S
O949   Zn952   1.948   .     S
O950   Zn953   1.934   .     S
