data_str_m3_o1_o17_pcu_sym.120
_audit_creation_date              2020-01-03
_audit_creation_method            'Materials Studio'
_symmetry_space_group_name_H-M    'P1'
_symmetry_Int_Tables_number       1
_symmetry_cell_setting            triclinic
loop_
_symmetry_equiv_pos_as_xyz
  x,y,z
_cell_length_a                    32.2076
_cell_length_b                    29.4707
_cell_length_c                    29.8314
_cell_angle_alpha                 90.0065
_cell_angle_beta                  91.0404
_cell_angle_gamma                 89.9953
loop_
_atom_site_label
_atom_site_type_symbol
_atom_site_fract_x
_atom_site_fract_y
_atom_site_fract_z
_atom_site_U_iso_or_equiv
_atom_site_adp_type
_atom_site_occupancy
C1     C     0.08660   0.16666   0.25018   0.00000  Uiso   1.00
C2     C     0.24673   0.16665   0.24971   0.00000  Uiso   1.00
C3     C     0.09093   0.17430   0.02142   0.00000  Uiso   1.00
C4     C     0.24229   0.17411   0.47859   0.00000  Uiso   1.00
C5     C     0.02132   0.12529   0.25266   0.00000  Uiso   1.00
C6     C     0.31202   0.20786   0.24680   0.00000  Uiso   1.00
C7     C     0.31211   0.12526   0.25217   0.00000  Uiso   1.00
C8     C     0.02122   0.20787   0.24710   0.00000  Uiso   1.00
C9     C     0.29088   0.16657   0.24944   0.00000  Uiso   1.00
C10    C     0.04245   0.16661   0.25010   0.00000  Uiso   1.00
C11    C     0.19336   0.02402   0.27740   0.00000  Uiso   1.00
C12    C     0.13997   0.30934   0.22260   0.00000  Uiso   1.00
C13    C     0.13997   0.02402   0.22260   0.00000  Uiso   1.00
C14    C     0.19336   0.30934   0.27740   0.00000  Uiso   1.00
C15    C     0.16656   0.16654   0.16353   0.00000  Uiso   1.00
C16    C     0.16671   0.16654   0.33647   0.00000  Uiso   1.00
C17    C     0.20492   0.16774   0.40752   0.00000  Uiso   1.00
C18    C     0.12828   0.16782   0.09251   0.00000  Uiso   1.00
C19    C     0.16682   0.16589   0.38415   0.00000  Uiso   1.00
C20    C     0.16640   0.16586   0.11586   0.00000  Uiso   1.00
C21    C     0.12889   0.16228   0.40587   0.00000  Uiso   1.00
C22    C     0.20431   0.16213   0.09412   0.00000  Uiso   1.00
C23    C     0.12849   0.16814   0.45236   0.00000  Uiso   1.00
C24    C     0.20472   0.16801   0.04764   0.00000  Uiso   1.00
C25    C     0.16664   0.17007   0.47657   0.00000  Uiso   1.00
C26    C     0.16656   0.17006   0.02344   0.00000  Uiso   1.00
C27    C     0.20489   0.17066   0.45408   0.00000  Uiso   1.00
C28    C     0.12832   0.17074   0.04594   0.00000  Uiso   1.00
C29    C     0.09097   0.17258   0.47502   0.00000  Uiso   1.00
C30    C     0.24224   0.17236   0.02499   0.00000  Uiso   1.00
H31    H     0.06141   0.17735   0.03795   0.00000  Uiso   1.00
H32    H     0.27181   0.17708   0.46207   0.00000  Uiso   1.00
N33    N     0.16667   0.28573   0.25000   0.00000  Uiso   1.00
N34    N     0.16667   0.04760   0.25000   0.00000  Uiso   1.00
O35    O     0.10559   0.20487   0.25000   0.00000  Uiso   1.00
O36    O     0.22774   0.12846   0.25000   0.00000  Uiso   1.00
O37    O     0.22774   0.20487   0.25001   0.00000  Uiso   1.00
O38    O     0.10559   0.12846   0.25000   0.00000  Uiso   1.00
O39    O     0.16666   0.20489   0.18393   0.00000  Uiso   1.00
O40    O     0.16667   0.12844   0.31608   0.00000  Uiso   1.00
O41    O     0.16667   0.20489   0.31608   0.00000  Uiso   1.00
O42    O     0.16666   0.12844   0.18393   0.00000  Uiso   1.00
Zn43   Zn    0.16667   0.21771   0.25000   0.00000  Uiso   1.00
Zn44   Zn    0.16667   0.11563   0.25000   0.00000  Uiso   1.00
O45    O     0.24215   0.16757   0.38479   0.00000  Uiso   1.00
C46    C     0.25187   0.12280   0.37091   0.00000  Uiso   1.00
H47    H     0.26529   0.12512   0.33701   0.00000  Uiso   1.00
H48    H     0.22454   0.09964   0.36798   0.00000  Uiso   1.00
C49    C     0.28409   0.10137   0.40268   0.00000  Uiso   1.00
H50    H     0.31089   0.12476   0.40713   0.00000  Uiso   1.00
H51    H     0.27006   0.09542   0.43590   0.00000  Uiso   1.00
C52    C     0.29925   0.05605   0.38445   0.00000  Uiso   1.00
H53    H     0.27299   0.03173   0.38132   0.00000  Uiso   1.00
H54    H     0.32306   0.04160   0.40774   0.00000  Uiso   1.00
H55    H     0.31324   0.06084   0.35101   0.00000  Uiso   1.00
O56    O     0.09107   0.16784   0.11526   0.00000  Uiso   1.00
C57    C     0.08118   0.12315   0.12923   0.00000  Uiso   1.00
H58    H     0.06750   0.12562   0.16300   0.00000  Uiso   1.00
H59    H     0.10847   0.09998   0.13247   0.00000  Uiso   1.00
C60    C     0.04917   0.10161   0.09729   0.00000  Uiso   1.00
H61    H     0.02234   0.12493   0.09268   0.00000  Uiso   1.00
H62    H     0.06338   0.09568   0.06416   0.00000  Uiso   1.00
C63    C     0.03403   0.05626   0.11545   0.00000  Uiso   1.00
H64    H     0.06031   0.03197   0.11863   0.00000  Uiso   1.00
H65    H     0.01029   0.04180   0.09209   0.00000  Uiso   1.00
H66    H     0.01997   0.06100   0.14886   0.00000  Uiso   1.00
O67    O     0.09264   0.15564   0.38065   0.00000  Uiso   1.00
C68    C     0.07675   0.11121   0.38755   0.00000  Uiso   1.00
H69    H     0.04406   0.11117   0.37523   0.00000  Uiso   1.00
H70    H     0.07607   0.10146   0.42356   0.00000  Uiso   1.00
C71    C     0.10046   0.07514   0.36111   0.00000  Uiso   1.00
H72    H     0.09964   0.08402   0.32499   0.00000  Uiso   1.00
H73    H     0.13322   0.07368   0.37327   0.00000  Uiso   1.00
C74    C     0.08144   0.02810   0.36644   0.00000  Uiso   1.00
H75    H     0.08033   0.01858   0.40242   0.00000  Uiso   1.00
H76    H     0.10064   0.00277   0.34862   0.00000  Uiso   1.00
H77    H     0.04961   0.02733   0.35161   0.00000  Uiso   1.00
O78    O     0.24056   0.15537   0.11932   0.00000  Uiso   1.00
C79    C     0.25637   0.11092   0.11234   0.00000  Uiso   1.00
H80    H     0.28912   0.11085   0.12446   0.00000  Uiso   1.00
H81    H     0.25686   0.10113   0.07634   0.00000  Uiso   1.00
C82    C     0.23277   0.07491   0.13896   0.00000  Uiso   1.00
H83    H     0.23378   0.08383   0.17506   0.00000  Uiso   1.00
H84    H     0.19994   0.07350   0.12698   0.00000  Uiso   1.00
C85    C     0.25170   0.02783   0.13353   0.00000  Uiso   1.00
H86    H     0.25254   0.01826   0.09754   0.00000  Uiso   1.00
H87    H     0.23259   0.00256   0.15153   0.00000  Uiso   1.00
H88    H     0.28362   0.02704   0.14809   0.00000  Uiso   1.00
H89    H     0.06151   0.17430   0.45700   0.00000  Uiso   1.00
H90    H     0.27171   0.17401   0.04301   0.00000  Uiso   1.00
H91    H     0.03751   0.09311   0.25503   0.00000  Uiso   1.00
H92    H     0.29584   0.24004   0.24450   0.00000  Uiso   1.00
H93    H     0.29600   0.09307   0.25427   0.00000  Uiso   1.00
H94    H     0.03732   0.24006   0.24493   0.00000  Uiso   1.00
H95    H     0.21470   0.04226   0.29926   0.00000  Uiso   1.00
H96    H     0.11864   0.29112   0.20071   0.00000  Uiso   1.00
H97    H     0.11863   0.04226   0.20073   0.00000  Uiso   1.00
H98    H     0.21469   0.29112   0.29929   0.00000  Uiso   1.00
C99    C     0.41993   0.16666   0.25018   0.00000  Uiso   1.00
C100   C     0.58007   0.16665   0.24971   0.00000  Uiso   1.00
C101   C     0.42426   0.17430   0.02142   0.00000  Uiso   1.00
C102   C     0.57562   0.17411   0.47859   0.00000  Uiso   1.00
C103   C     0.35465   0.12529   0.25266   0.00000  Uiso   1.00
C104   C     0.64535   0.20786   0.24680   0.00000  Uiso   1.00
C105   C     0.64544   0.12526   0.25217   0.00000  Uiso   1.00
C106   C     0.35455   0.20787   0.24710   0.00000  Uiso   1.00
C107   C     0.62421   0.16657   0.24944   0.00000  Uiso   1.00
C108   C     0.37579   0.16661   0.25010   0.00000  Uiso   1.00
C109   C     0.52670   0.02402   0.27740   0.00000  Uiso   1.00
C110   C     0.47331   0.30934   0.22260   0.00000  Uiso   1.00
C111   C     0.47330   0.02402   0.22260   0.00000  Uiso   1.00
C112   C     0.52669   0.30934   0.27740   0.00000  Uiso   1.00
C113   C     0.49989   0.16654   0.16353   0.00000  Uiso   1.00
C114   C     0.50004   0.16654   0.33647   0.00000  Uiso   1.00
C115   C     0.53826   0.16774   0.40752   0.00000  Uiso   1.00
C116   C     0.46162   0.16782   0.09251   0.00000  Uiso   1.00
C117   C     0.50016   0.16589   0.38415   0.00000  Uiso   1.00
C118   C     0.49973   0.16586   0.11586   0.00000  Uiso   1.00
C119   C     0.46222   0.16228   0.40587   0.00000  Uiso   1.00
C120   C     0.53765   0.16213   0.09412   0.00000  Uiso   1.00
C121   C     0.46182   0.16814   0.45236   0.00000  Uiso   1.00
C122   C     0.53805   0.16801   0.04764   0.00000  Uiso   1.00
C123   C     0.49997   0.17007   0.47657   0.00000  Uiso   1.00
C124   C     0.49990   0.17006   0.02344   0.00000  Uiso   1.00
C125   C     0.53822   0.17066   0.45408   0.00000  Uiso   1.00
C126   C     0.46165   0.17074   0.04594   0.00000  Uiso   1.00
C127   C     0.42430   0.17258   0.47502   0.00000  Uiso   1.00
C128   C     0.57558   0.17236   0.02499   0.00000  Uiso   1.00
H129   H     0.39474   0.17735   0.03795   0.00000  Uiso   1.00
H130   H     0.60515   0.17708   0.46207   0.00000  Uiso   1.00
N131   N     0.50000   0.28573   0.25000   0.00000  Uiso   1.00
N132   N     0.50000   0.04760   0.25000   0.00000  Uiso   1.00
O133   O     0.43892   0.20487   0.25000   0.00000  Uiso   1.00
O134   O     0.56108   0.12846   0.25000   0.00000  Uiso   1.00
O135   O     0.56108   0.20487   0.25001   0.00000  Uiso   1.00
O136   O     0.43892   0.12846   0.25000   0.00000  Uiso   1.00
O137   O     0.49999   0.20489   0.18393   0.00000  Uiso   1.00
O138   O     0.50001   0.12844   0.31608   0.00000  Uiso   1.00
O139   O     0.50001   0.20489   0.31608   0.00000  Uiso   1.00
O140   O     0.49999   0.12844   0.18393   0.00000  Uiso   1.00
Zn141  Zn    0.50000   0.21771   0.25000   0.00000  Uiso   1.00
Zn142  Zn    0.50000   0.11563   0.25000   0.00000  Uiso   1.00
O143   O     0.57548   0.16757   0.38479   0.00000  Uiso   1.00
C144   C     0.58521   0.12280   0.37091   0.00000  Uiso   1.00
H145   H     0.59862   0.12512   0.33701   0.00000  Uiso   1.00
H146   H     0.55787   0.09964   0.36798   0.00000  Uiso   1.00
C147   C     0.61743   0.10137   0.40268   0.00000  Uiso   1.00
H148   H     0.64423   0.12476   0.40713   0.00000  Uiso   1.00
H149   H     0.60339   0.09542   0.43590   0.00000  Uiso   1.00
C150   C     0.63258   0.05605   0.38445   0.00000  Uiso   1.00
H151   H     0.60632   0.03173   0.38132   0.00000  Uiso   1.00
H152   H     0.65639   0.04160   0.40774   0.00000  Uiso   1.00
H153   H     0.64657   0.06084   0.35101   0.00000  Uiso   1.00
O154   O     0.42440   0.16784   0.11526   0.00000  Uiso   1.00
C155   C     0.41451   0.12315   0.12923   0.00000  Uiso   1.00
H156   H     0.40084   0.12562   0.16300   0.00000  Uiso   1.00
H157   H     0.44180   0.09998   0.13247   0.00000  Uiso   1.00
C158   C     0.38251   0.10161   0.09729   0.00000  Uiso   1.00
H159   H     0.35568   0.12493   0.09268   0.00000  Uiso   1.00
H160   H     0.39672   0.09568   0.06416   0.00000  Uiso   1.00
C161   C     0.36737   0.05626   0.11545   0.00000  Uiso   1.00
H162   H     0.39364   0.03197   0.11863   0.00000  Uiso   1.00
H163   H     0.34363   0.04180   0.09209   0.00000  Uiso   1.00
H164   H     0.35330   0.06100   0.14886   0.00000  Uiso   1.00
O165   O     0.42597   0.15564   0.38065   0.00000  Uiso   1.00
C166   C     0.41008   0.11121   0.38755   0.00000  Uiso   1.00
H167   H     0.37740   0.11117   0.37523   0.00000  Uiso   1.00
H168   H     0.40940   0.10146   0.42356   0.00000  Uiso   1.00
C169   C     0.43379   0.07514   0.36111   0.00000  Uiso   1.00
H170   H     0.43297   0.08402   0.32499   0.00000  Uiso   1.00
H171   H     0.46656   0.07368   0.37327   0.00000  Uiso   1.00
C172   C     0.41477   0.02810   0.36644   0.00000  Uiso   1.00
H173   H     0.41367   0.01858   0.40242   0.00000  Uiso   1.00
H174   H     0.43398   0.00277   0.34862   0.00000  Uiso   1.00
H175   H     0.38295   0.02733   0.35161   0.00000  Uiso   1.00
O176   O     0.57389   0.15537   0.11932   0.00000  Uiso   1.00
C177   C     0.58971   0.11092   0.11234   0.00000  Uiso   1.00
H178   H     0.62245   0.11085   0.12446   0.00000  Uiso   1.00
H179   H     0.59019   0.10113   0.07634   0.00000  Uiso   1.00
C180   C     0.56610   0.07491   0.13896   0.00000  Uiso   1.00
H181   H     0.56711   0.08383   0.17506   0.00000  Uiso   1.00
H182   H     0.53327   0.07350   0.12698   0.00000  Uiso   1.00
C183   C     0.58503   0.02783   0.13353   0.00000  Uiso   1.00
H184   H     0.58587   0.01826   0.09754   0.00000  Uiso   1.00
H185   H     0.56592   0.00256   0.15153   0.00000  Uiso   1.00
H186   H     0.61695   0.02704   0.14809   0.00000  Uiso   1.00
H187   H     0.39484   0.17430   0.45700   0.00000  Uiso   1.00
H188   H     0.60504   0.17401   0.04301   0.00000  Uiso   1.00
H189   H     0.37084   0.09311   0.25503   0.00000  Uiso   1.00
H190   H     0.62918   0.24004   0.24450   0.00000  Uiso   1.00
H191   H     0.62933   0.09307   0.25427   0.00000  Uiso   1.00
H192   H     0.37065   0.24006   0.24493   0.00000  Uiso   1.00
H193   H     0.54804   0.04226   0.29926   0.00000  Uiso   1.00
H194   H     0.45198   0.29112   0.20071   0.00000  Uiso   1.00
H195   H     0.45197   0.04226   0.20073   0.00000  Uiso   1.00
H196   H     0.54802   0.29112   0.29929   0.00000  Uiso   1.00
C197   C     0.75327   0.16666   0.25018   0.00000  Uiso   1.00
C198   C     0.91340   0.16665   0.24971   0.00000  Uiso   1.00
C199   C     0.75759   0.17430   0.02142   0.00000  Uiso   1.00
C200   C     0.90896   0.17411   0.47859   0.00000  Uiso   1.00
C201   C     0.68799   0.12529   0.25266   0.00000  Uiso   1.00
C202   C     0.97868   0.20786   0.24680   0.00000  Uiso   1.00
C203   C     0.97877   0.12526   0.25217   0.00000  Uiso   1.00
C204   C     0.68789   0.20787   0.24710   0.00000  Uiso   1.00
C205   C     0.95754   0.16657   0.24944   0.00000  Uiso   1.00
C206   C     0.70912   0.16661   0.25010   0.00000  Uiso   1.00
C207   C     0.86003   0.02402   0.27740   0.00000  Uiso   1.00
C208   C     0.80664   0.30934   0.22260   0.00000  Uiso   1.00
C209   C     0.80664   0.02402   0.22260   0.00000  Uiso   1.00
C210   C     0.86003   0.30934   0.27740   0.00000  Uiso   1.00
C211   C     0.83323   0.16654   0.16353   0.00000  Uiso   1.00
C212   C     0.83338   0.16654   0.33647   0.00000  Uiso   1.00
C213   C     0.87159   0.16774   0.40752   0.00000  Uiso   1.00
C214   C     0.79495   0.16782   0.09251   0.00000  Uiso   1.00
C215   C     0.83349   0.16589   0.38415   0.00000  Uiso   1.00
C216   C     0.83306   0.16586   0.11586   0.00000  Uiso   1.00
C217   C     0.79555   0.16228   0.40587   0.00000  Uiso   1.00
C218   C     0.87098   0.16213   0.09412   0.00000  Uiso   1.00
C219   C     0.79515   0.16814   0.45236   0.00000  Uiso   1.00
C220   C     0.87138   0.16801   0.04764   0.00000  Uiso   1.00
C221   C     0.83331   0.17007   0.47657   0.00000  Uiso   1.00
C222   C     0.83323   0.17006   0.02344   0.00000  Uiso   1.00
C223   C     0.87155   0.17066   0.45408   0.00000  Uiso   1.00
C224   C     0.79499   0.17074   0.04594   0.00000  Uiso   1.00
C225   C     0.75764   0.17258   0.47502   0.00000  Uiso   1.00
C226   C     0.90891   0.17236   0.02499   0.00000  Uiso   1.00
H227   H     0.72808   0.17735   0.03795   0.00000  Uiso   1.00
H228   H     0.93848   0.17708   0.46207   0.00000  Uiso   1.00
N229   N     0.83333   0.28573   0.25000   0.00000  Uiso   1.00
N230   N     0.83333   0.04760   0.25000   0.00000  Uiso   1.00
O231   O     0.77226   0.20487   0.25000   0.00000  Uiso   1.00
O232   O     0.89441   0.12846   0.25000   0.00000  Uiso   1.00
O233   O     0.89441   0.20487   0.25001   0.00000  Uiso   1.00
O234   O     0.77226   0.12846   0.25000   0.00000  Uiso   1.00
O235   O     0.83333   0.20489   0.18393   0.00000  Uiso   1.00
O236   O     0.83334   0.12844   0.31608   0.00000  Uiso   1.00
O237   O     0.83334   0.20489   0.31608   0.00000  Uiso   1.00
O238   O     0.83333   0.12844   0.18393   0.00000  Uiso   1.00
Zn239  Zn    0.83333   0.21771   0.25000   0.00000  Uiso   1.00
Zn240  Zn    0.83333   0.11563   0.25000   0.00000  Uiso   1.00
O241   O     0.90881   0.16757   0.38479   0.00000  Uiso   1.00
C242   C     0.91854   0.12280   0.37091   0.00000  Uiso   1.00
H243   H     0.93196   0.12512   0.33701   0.00000  Uiso   1.00
H244   H     0.89121   0.09964   0.36798   0.00000  Uiso   1.00
C245   C     0.95076   0.10137   0.40268   0.00000  Uiso   1.00
H246   H     0.97756   0.12476   0.40713   0.00000  Uiso   1.00
H247   H     0.93672   0.09542   0.43590   0.00000  Uiso   1.00
C248   C     0.96591   0.05605   0.38445   0.00000  Uiso   1.00
H249   H     0.93966   0.03173   0.38132   0.00000  Uiso   1.00
H250   H     0.98973   0.04160   0.40774   0.00000  Uiso   1.00
H251   H     0.97990   0.06084   0.35101   0.00000  Uiso   1.00
O252   O     0.75773   0.16784   0.11526   0.00000  Uiso   1.00
C253   C     0.74785   0.12315   0.12923   0.00000  Uiso   1.00
H254   H     0.73417   0.12562   0.16300   0.00000  Uiso   1.00
H255   H     0.77514   0.09998   0.13247   0.00000  Uiso   1.00
C256   C     0.71584   0.10161   0.09729   0.00000  Uiso   1.00
H257   H     0.68901   0.12493   0.09268   0.00000  Uiso   1.00
H258   H     0.73005   0.09568   0.06416   0.00000  Uiso   1.00
C259   C     0.70070   0.05626   0.11545   0.00000  Uiso   1.00
H260   H     0.72697   0.03197   0.11863   0.00000  Uiso   1.00
H261   H     0.67696   0.04180   0.09209   0.00000  Uiso   1.00
H262   H     0.68663   0.06100   0.14886   0.00000  Uiso   1.00
O263   O     0.75931   0.15564   0.38065   0.00000  Uiso   1.00
C264   C     0.74342   0.11121   0.38755   0.00000  Uiso   1.00
H265   H     0.71073   0.11117   0.37523   0.00000  Uiso   1.00
H266   H     0.74273   0.10146   0.42356   0.00000  Uiso   1.00
C267   C     0.76712   0.07514   0.36111   0.00000  Uiso   1.00
H268   H     0.76630   0.08402   0.32499   0.00000  Uiso   1.00
H269   H     0.79989   0.07368   0.37327   0.00000  Uiso   1.00
C270   C     0.74810   0.02810   0.36644   0.00000  Uiso   1.00
H271   H     0.74700   0.01858   0.40242   0.00000  Uiso   1.00
H272   H     0.76731   0.00277   0.34862   0.00000  Uiso   1.00
H273   H     0.71628   0.02733   0.35161   0.00000  Uiso   1.00
O274   O     0.90723   0.15537   0.11932   0.00000  Uiso   1.00
C275   C     0.92304   0.11092   0.11234   0.00000  Uiso   1.00
H276   H     0.95578   0.11085   0.12446   0.00000  Uiso   1.00
H277   H     0.92352   0.10113   0.07634   0.00000  Uiso   1.00
C278   C     0.89943   0.07491   0.13896   0.00000  Uiso   1.00
H279   H     0.90044   0.08383   0.17506   0.00000  Uiso   1.00
H280   H     0.86660   0.07350   0.12698   0.00000  Uiso   1.00
C281   C     0.91836   0.02783   0.13353   0.00000  Uiso   1.00
H282   H     0.91920   0.01826   0.09754   0.00000  Uiso   1.00
H283   H     0.89926   0.00256   0.15153   0.00000  Uiso   1.00
H284   H     0.95029   0.02704   0.14809   0.00000  Uiso   1.00
H285   H     0.72817   0.17430   0.45700   0.00000  Uiso   1.00
H286   H     0.93838   0.17401   0.04301   0.00000  Uiso   1.00
H287   H     0.70417   0.09311   0.25503   0.00000  Uiso   1.00
H288   H     0.96251   0.24004   0.24450   0.00000  Uiso   1.00
H289   H     0.96266   0.09307   0.25427   0.00000  Uiso   1.00
H290   H     0.70398   0.24006   0.24493   0.00000  Uiso   1.00
H291   H     0.88137   0.04226   0.29926   0.00000  Uiso   1.00
H292   H     0.78531   0.29112   0.20071   0.00000  Uiso   1.00
H293   H     0.78530   0.04226   0.20073   0.00000  Uiso   1.00
H294   H     0.88136   0.29112   0.29929   0.00000  Uiso   1.00
C295   C     0.08660   0.49999   0.25018   0.00000  Uiso   1.00
C296   C     0.24673   0.49998   0.24971   0.00000  Uiso   1.00
C297   C     0.09093   0.50764   0.02142   0.00000  Uiso   1.00
C298   C     0.24229   0.50744   0.47859   0.00000  Uiso   1.00
C299   C     0.02132   0.45862   0.25266   0.00000  Uiso   1.00
C300   C     0.31202   0.54119   0.24680   0.00000  Uiso   1.00
C301   C     0.31211   0.45860   0.25217   0.00000  Uiso   1.00
C302   C     0.02122   0.54120   0.24710   0.00000  Uiso   1.00
C303   C     0.29088   0.49991   0.24944   0.00000  Uiso   1.00
C304   C     0.04245   0.49994   0.25010   0.00000  Uiso   1.00
C305   C     0.19336   0.35735   0.27740   0.00000  Uiso   1.00
C306   C     0.13997   0.64267   0.22260   0.00000  Uiso   1.00
C307   C     0.13997   0.35735   0.22260   0.00000  Uiso   1.00
C308   C     0.19336   0.64268   0.27740   0.00000  Uiso   1.00
C309   C     0.16656   0.49987   0.16353   0.00000  Uiso   1.00
C310   C     0.16671   0.49988   0.33647   0.00000  Uiso   1.00
C311   C     0.20492   0.50107   0.40752   0.00000  Uiso   1.00
C312   C     0.12828   0.50115   0.09251   0.00000  Uiso   1.00
C313   C     0.16682   0.49923   0.38415   0.00000  Uiso   1.00
C314   C     0.16640   0.49919   0.11586   0.00000  Uiso   1.00
C315   C     0.12889   0.49562   0.40587   0.00000  Uiso   1.00
C316   C     0.20431   0.49546   0.09412   0.00000  Uiso   1.00
C317   C     0.12849   0.50147   0.45236   0.00000  Uiso   1.00
C318   C     0.20472   0.50135   0.04764   0.00000  Uiso   1.00
C319   C     0.16664   0.50341   0.47657   0.00000  Uiso   1.00
C320   C     0.16656   0.50339   0.02344   0.00000  Uiso   1.00
C321   C     0.20489   0.50399   0.45408   0.00000  Uiso   1.00
C322   C     0.12832   0.50407   0.04594   0.00000  Uiso   1.00
C323   C     0.09097   0.50591   0.47502   0.00000  Uiso   1.00
C324   C     0.24224   0.50570   0.02499   0.00000  Uiso   1.00
H325   H     0.06141   0.51068   0.03795   0.00000  Uiso   1.00
H326   H     0.27181   0.51041   0.46207   0.00000  Uiso   1.00
N327   N     0.16667   0.61907   0.25000   0.00000  Uiso   1.00
N328   N     0.16667   0.38093   0.25000   0.00000  Uiso   1.00
O329   O     0.10559   0.53821   0.25000   0.00000  Uiso   1.00
O330   O     0.22774   0.46179   0.25000   0.00000  Uiso   1.00
O331   O     0.22774   0.53821   0.25001   0.00000  Uiso   1.00
O332   O     0.10559   0.46179   0.25000   0.00000  Uiso   1.00
O333   O     0.16666   0.53823   0.18393   0.00000  Uiso   1.00
O334   O     0.16667   0.46177   0.31608   0.00000  Uiso   1.00
O335   O     0.16667   0.53823   0.31608   0.00000  Uiso   1.00
O336   O     0.16666   0.46177   0.18393   0.00000  Uiso   1.00
Zn337  Zn    0.16667   0.55104   0.25000   0.00000  Uiso   1.00
Zn338  Zn    0.16667   0.44896   0.25000   0.00000  Uiso   1.00
O339   O     0.24215   0.50090   0.38479   0.00000  Uiso   1.00
C340   C     0.25187   0.45613   0.37091   0.00000  Uiso   1.00
H341   H     0.26529   0.45846   0.33701   0.00000  Uiso   1.00
H342   H     0.22454   0.43297   0.36798   0.00000  Uiso   1.00
C343   C     0.28409   0.43470   0.40268   0.00000  Uiso   1.00
H344   H     0.31089   0.45809   0.40713   0.00000  Uiso   1.00
H345   H     0.27006   0.42876   0.43590   0.00000  Uiso   1.00
C346   C     0.29925   0.38938   0.38445   0.00000  Uiso   1.00
H347   H     0.27299   0.36506   0.38132   0.00000  Uiso   1.00
H348   H     0.32306   0.37493   0.40774   0.00000  Uiso   1.00
H349   H     0.31324   0.39417   0.35101   0.00000  Uiso   1.00
O350   O     0.09107   0.50118   0.11526   0.00000  Uiso   1.00
C351   C     0.08118   0.45648   0.12923   0.00000  Uiso   1.00
H352   H     0.06750   0.45895   0.16300   0.00000  Uiso   1.00
H353   H     0.10847   0.43331   0.13247   0.00000  Uiso   1.00
C354   C     0.04917   0.43494   0.09729   0.00000  Uiso   1.00
H355   H     0.02234   0.45827   0.09268   0.00000  Uiso   1.00
H356   H     0.06338   0.42901   0.06416   0.00000  Uiso   1.00
C357   C     0.03403   0.38959   0.11545   0.00000  Uiso   1.00
H358   H     0.06031   0.36531   0.11863   0.00000  Uiso   1.00
H359   H     0.01029   0.37513   0.09209   0.00000  Uiso   1.00
H360   H     0.01997   0.39434   0.14886   0.00000  Uiso   1.00
O361   O     0.09264   0.48897   0.38065   0.00000  Uiso   1.00
C362   C     0.07675   0.44454   0.38755   0.00000  Uiso   1.00
H363   H     0.04406   0.44450   0.37523   0.00000  Uiso   1.00
H364   H     0.07607   0.43479   0.42356   0.00000  Uiso   1.00
C365   C     0.10046   0.40847   0.36111   0.00000  Uiso   1.00
H366   H     0.09964   0.41736   0.32499   0.00000  Uiso   1.00
H367   H     0.13322   0.40701   0.37327   0.00000  Uiso   1.00
C368   C     0.08144   0.36143   0.36644   0.00000  Uiso   1.00
H369   H     0.08033   0.35191   0.40242   0.00000  Uiso   1.00
H370   H     0.10064   0.33610   0.34862   0.00000  Uiso   1.00
H371   H     0.04961   0.36067   0.35161   0.00000  Uiso   1.00
O372   O     0.24056   0.48871   0.11932   0.00000  Uiso   1.00
C373   C     0.25637   0.44425   0.11234   0.00000  Uiso   1.00
H374   H     0.28912   0.44418   0.12446   0.00000  Uiso   1.00
H375   H     0.25686   0.43446   0.07634   0.00000  Uiso   1.00
C376   C     0.23277   0.40825   0.13896   0.00000  Uiso   1.00
H377   H     0.23378   0.41717   0.17506   0.00000  Uiso   1.00
H378   H     0.19994   0.40683   0.12698   0.00000  Uiso   1.00
C379   C     0.25170   0.36117   0.13353   0.00000  Uiso   1.00
H380   H     0.25254   0.35160   0.09754   0.00000  Uiso   1.00
H381   H     0.23259   0.33589   0.15153   0.00000  Uiso   1.00
H382   H     0.28362   0.36038   0.14809   0.00000  Uiso   1.00
H383   H     0.06151   0.50764   0.45700   0.00000  Uiso   1.00
H384   H     0.27171   0.50734   0.04301   0.00000  Uiso   1.00
H385   H     0.03751   0.42645   0.25503   0.00000  Uiso   1.00
H386   H     0.29584   0.57337   0.24450   0.00000  Uiso   1.00
H387   H     0.29600   0.42641   0.25427   0.00000  Uiso   1.00
H388   H     0.03732   0.57339   0.24493   0.00000  Uiso   1.00
H389   H     0.21470   0.37559   0.29926   0.00000  Uiso   1.00
H390   H     0.11864   0.62445   0.20071   0.00000  Uiso   1.00
H391   H     0.11863   0.37559   0.20073   0.00000  Uiso   1.00
H392   H     0.21469   0.62445   0.29929   0.00000  Uiso   1.00
C393   C     0.41993   0.49999   0.25018   0.00000  Uiso   1.00
C394   C     0.58007   0.49998   0.24971   0.00000  Uiso   1.00
C395   C     0.42426   0.50764   0.02142   0.00000  Uiso   1.00
C396   C     0.57562   0.50744   0.47859   0.00000  Uiso   1.00
C397   C     0.35465   0.45862   0.25266   0.00000  Uiso   1.00
C398   C     0.64535   0.54119   0.24680   0.00000  Uiso   1.00
C399   C     0.64544   0.45860   0.25217   0.00000  Uiso   1.00
C400   C     0.35455   0.54120   0.24710   0.00000  Uiso   1.00
C401   C     0.62421   0.49991   0.24944   0.00000  Uiso   1.00
C402   C     0.37579   0.49994   0.25010   0.00000  Uiso   1.00
C403   C     0.52670   0.35735   0.27740   0.00000  Uiso   1.00
C404   C     0.47331   0.64267   0.22260   0.00000  Uiso   1.00
C405   C     0.47330   0.35735   0.22260   0.00000  Uiso   1.00
C406   C     0.52669   0.64268   0.27740   0.00000  Uiso   1.00
C407   C     0.49989   0.49987   0.16353   0.00000  Uiso   1.00
C408   C     0.50004   0.49988   0.33647   0.00000  Uiso   1.00
C409   C     0.53826   0.50107   0.40752   0.00000  Uiso   1.00
C410   C     0.46162   0.50115   0.09251   0.00000  Uiso   1.00
C411   C     0.50016   0.49923   0.38415   0.00000  Uiso   1.00
C412   C     0.49973   0.49919   0.11586   0.00000  Uiso   1.00
C413   C     0.46222   0.49562   0.40587   0.00000  Uiso   1.00
C414   C     0.53765   0.49546   0.09412   0.00000  Uiso   1.00
C415   C     0.46182   0.50147   0.45236   0.00000  Uiso   1.00
C416   C     0.53805   0.50135   0.04764   0.00000  Uiso   1.00
C417   C     0.49997   0.50341   0.47657   0.00000  Uiso   1.00
C418   C     0.49990   0.50339   0.02344   0.00000  Uiso   1.00
C419   C     0.53822   0.50399   0.45408   0.00000  Uiso   1.00
C420   C     0.46165   0.50407   0.04594   0.00000  Uiso   1.00
C421   C     0.42430   0.50591   0.47502   0.00000  Uiso   1.00
C422   C     0.57558   0.50570   0.02499   0.00000  Uiso   1.00
H423   H     0.39474   0.51068   0.03795   0.00000  Uiso   1.00
H424   H     0.60515   0.51041   0.46207   0.00000  Uiso   1.00
N425   N     0.50000   0.61907   0.25000   0.00000  Uiso   1.00
N426   N     0.50000   0.38093   0.25000   0.00000  Uiso   1.00
O427   O     0.43892   0.53821   0.25000   0.00000  Uiso   1.00
O428   O     0.56108   0.46179   0.25000   0.00000  Uiso   1.00
O429   O     0.56108   0.53821   0.25001   0.00000  Uiso   1.00
O430   O     0.43892   0.46179   0.25000   0.00000  Uiso   1.00
O431   O     0.49999   0.53823   0.18393   0.00000  Uiso   1.00
O432   O     0.50001   0.46177   0.31608   0.00000  Uiso   1.00
O433   O     0.50001   0.53823   0.31608   0.00000  Uiso   1.00
O434   O     0.49999   0.46177   0.18393   0.00000  Uiso   1.00
Zn435  Zn    0.50000   0.55104   0.25000   0.00000  Uiso   1.00
Zn436  Zn    0.50000   0.44896   0.25000   0.00000  Uiso   1.00
O437   O     0.57548   0.50090   0.38479   0.00000  Uiso   1.00
C438   C     0.58521   0.45613   0.37091   0.00000  Uiso   1.00
H439   H     0.59862   0.45846   0.33701   0.00000  Uiso   1.00
H440   H     0.55787   0.43297   0.36798   0.00000  Uiso   1.00
C441   C     0.61743   0.43470   0.40268   0.00000  Uiso   1.00
H442   H     0.64423   0.45809   0.40713   0.00000  Uiso   1.00
H443   H     0.60339   0.42876   0.43590   0.00000  Uiso   1.00
C444   C     0.63258   0.38938   0.38445   0.00000  Uiso   1.00
H445   H     0.60632   0.36506   0.38132   0.00000  Uiso   1.00
H446   H     0.65639   0.37493   0.40774   0.00000  Uiso   1.00
H447   H     0.64657   0.39417   0.35101   0.00000  Uiso   1.00
O448   O     0.42440   0.50118   0.11526   0.00000  Uiso   1.00
C449   C     0.41451   0.45648   0.12923   0.00000  Uiso   1.00
H450   H     0.40084   0.45895   0.16300   0.00000  Uiso   1.00
H451   H     0.44180   0.43331   0.13247   0.00000  Uiso   1.00
C452   C     0.38251   0.43494   0.09729   0.00000  Uiso   1.00
H453   H     0.35568   0.45827   0.09268   0.00000  Uiso   1.00
H454   H     0.39672   0.42901   0.06416   0.00000  Uiso   1.00
C455   C     0.36737   0.38959   0.11545   0.00000  Uiso   1.00
H456   H     0.39364   0.36531   0.11863   0.00000  Uiso   1.00
H457   H     0.34363   0.37513   0.09209   0.00000  Uiso   1.00
H458   H     0.35330   0.39434   0.14886   0.00000  Uiso   1.00
O459   O     0.42597   0.48897   0.38065   0.00000  Uiso   1.00
C460   C     0.41008   0.44454   0.38755   0.00000  Uiso   1.00
H461   H     0.37740   0.44450   0.37523   0.00000  Uiso   1.00
H462   H     0.40940   0.43479   0.42356   0.00000  Uiso   1.00
C463   C     0.43379   0.40847   0.36111   0.00000  Uiso   1.00
H464   H     0.43297   0.41736   0.32499   0.00000  Uiso   1.00
H465   H     0.46656   0.40701   0.37327   0.00000  Uiso   1.00
C466   C     0.41477   0.36143   0.36644   0.00000  Uiso   1.00
H467   H     0.41367   0.35191   0.40242   0.00000  Uiso   1.00
H468   H     0.43398   0.33610   0.34862   0.00000  Uiso   1.00
H469   H     0.38295   0.36067   0.35161   0.00000  Uiso   1.00
O470   O     0.57389   0.48871   0.11932   0.00000  Uiso   1.00
C471   C     0.58971   0.44425   0.11234   0.00000  Uiso   1.00
H472   H     0.62245   0.44418   0.12446   0.00000  Uiso   1.00
H473   H     0.59019   0.43446   0.07634   0.00000  Uiso   1.00
C474   C     0.56610   0.40825   0.13896   0.00000  Uiso   1.00
H475   H     0.56711   0.41717   0.17506   0.00000  Uiso   1.00
H476   H     0.53327   0.40683   0.12698   0.00000  Uiso   1.00
C477   C     0.58503   0.36117   0.13353   0.00000  Uiso   1.00
H478   H     0.58587   0.35160   0.09754   0.00000  Uiso   1.00
H479   H     0.56592   0.33589   0.15153   0.00000  Uiso   1.00
H480   H     0.61695   0.36038   0.14809   0.00000  Uiso   1.00
H481   H     0.39484   0.50764   0.45700   0.00000  Uiso   1.00
H482   H     0.60504   0.50734   0.04301   0.00000  Uiso   1.00
H483   H     0.37084   0.42645   0.25503   0.00000  Uiso   1.00
H484   H     0.62918   0.57337   0.24450   0.00000  Uiso   1.00
H485   H     0.62933   0.42641   0.25427   0.00000  Uiso   1.00
H486   H     0.37065   0.57339   0.24493   0.00000  Uiso   1.00
H487   H     0.54804   0.37559   0.29926   0.00000  Uiso   1.00
H488   H     0.45198   0.62445   0.20071   0.00000  Uiso   1.00
H489   H     0.45197   0.37559   0.20073   0.00000  Uiso   1.00
H490   H     0.54802   0.62445   0.29929   0.00000  Uiso   1.00
C491   C     0.75327   0.49999   0.25018   0.00000  Uiso   1.00
C492   C     0.91340   0.49998   0.24971   0.00000  Uiso   1.00
C493   C     0.75759   0.50764   0.02142   0.00000  Uiso   1.00
C494   C     0.90896   0.50744   0.47859   0.00000  Uiso   1.00
C495   C     0.68799   0.45862   0.25266   0.00000  Uiso   1.00
C496   C     0.97868   0.54119   0.24680   0.00000  Uiso   1.00
C497   C     0.97877   0.45860   0.25217   0.00000  Uiso   1.00
C498   C     0.68789   0.54120   0.24710   0.00000  Uiso   1.00
C499   C     0.95754   0.49991   0.24944   0.00000  Uiso   1.00
C500   C     0.70912   0.49994   0.25010   0.00000  Uiso   1.00
C501   C     0.86003   0.35735   0.27740   0.00000  Uiso   1.00
C502   C     0.80664   0.64267   0.22260   0.00000  Uiso   1.00
C503   C     0.80664   0.35735   0.22260   0.00000  Uiso   1.00
C504   C     0.86003   0.64268   0.27740   0.00000  Uiso   1.00
C505   C     0.83323   0.49987   0.16353   0.00000  Uiso   1.00
C506   C     0.83338   0.49988   0.33647   0.00000  Uiso   1.00
C507   C     0.87159   0.50107   0.40752   0.00000  Uiso   1.00
C508   C     0.79495   0.50115   0.09251   0.00000  Uiso   1.00
C509   C     0.83349   0.49923   0.38415   0.00000  Uiso   1.00
C510   C     0.83306   0.49919   0.11586   0.00000  Uiso   1.00
C511   C     0.79555   0.49562   0.40587   0.00000  Uiso   1.00
C512   C     0.87098   0.49546   0.09412   0.00000  Uiso   1.00
C513   C     0.79515   0.50147   0.45236   0.00000  Uiso   1.00
C514   C     0.87138   0.50135   0.04764   0.00000  Uiso   1.00
C515   C     0.83331   0.50341   0.47657   0.00000  Uiso   1.00
C516   C     0.83323   0.50339   0.02344   0.00000  Uiso   1.00
C517   C     0.87155   0.50399   0.45408   0.00000  Uiso   1.00
C518   C     0.79499   0.50407   0.04594   0.00000  Uiso   1.00
C519   C     0.75764   0.50591   0.47502   0.00000  Uiso   1.00
C520   C     0.90891   0.50570   0.02499   0.00000  Uiso   1.00
H521   H     0.72808   0.51068   0.03795   0.00000  Uiso   1.00
H522   H     0.93848   0.51041   0.46207   0.00000  Uiso   1.00
N523   N     0.83333   0.61907   0.25000   0.00000  Uiso   1.00
N524   N     0.83333   0.38093   0.25000   0.00000  Uiso   1.00
O525   O     0.77226   0.53821   0.25000   0.00000  Uiso   1.00
O526   O     0.89441   0.46179   0.25000   0.00000  Uiso   1.00
O527   O     0.89441   0.53821   0.25001   0.00000  Uiso   1.00
O528   O     0.77226   0.46179   0.25000   0.00000  Uiso   1.00
O529   O     0.83333   0.53823   0.18393   0.00000  Uiso   1.00
O530   O     0.83334   0.46177   0.31608   0.00000  Uiso   1.00
O531   O     0.83334   0.53823   0.31608   0.00000  Uiso   1.00
O532   O     0.83333   0.46177   0.18393   0.00000  Uiso   1.00
Zn533  Zn    0.83333   0.55104   0.25000   0.00000  Uiso   1.00
Zn534  Zn    0.83333   0.44896   0.25000   0.00000  Uiso   1.00
O535   O     0.90881   0.50090   0.38479   0.00000  Uiso   1.00
C536   C     0.91854   0.45613   0.37091   0.00000  Uiso   1.00
H537   H     0.93196   0.45846   0.33701   0.00000  Uiso   1.00
H538   H     0.89121   0.43297   0.36798   0.00000  Uiso   1.00
C539   C     0.95076   0.43470   0.40268   0.00000  Uiso   1.00
H540   H     0.97756   0.45809   0.40713   0.00000  Uiso   1.00
H541   H     0.93672   0.42876   0.43590   0.00000  Uiso   1.00
C542   C     0.96591   0.38938   0.38445   0.00000  Uiso   1.00
H543   H     0.93966   0.36506   0.38132   0.00000  Uiso   1.00
H544   H     0.98973   0.37493   0.40774   0.00000  Uiso   1.00
H545   H     0.97990   0.39417   0.35101   0.00000  Uiso   1.00
O546   O     0.75773   0.50118   0.11526   0.00000  Uiso   1.00
C547   C     0.74785   0.45648   0.12923   0.00000  Uiso   1.00
H548   H     0.73417   0.45895   0.16300   0.00000  Uiso   1.00
H549   H     0.77514   0.43331   0.13247   0.00000  Uiso   1.00
C550   C     0.71584   0.43494   0.09729   0.00000  Uiso   1.00
H551   H     0.68901   0.45827   0.09268   0.00000  Uiso   1.00
H552   H     0.73005   0.42901   0.06416   0.00000  Uiso   1.00
C553   C     0.70070   0.38959   0.11545   0.00000  Uiso   1.00
H554   H     0.72697   0.36531   0.11863   0.00000  Uiso   1.00
H555   H     0.67696   0.37513   0.09209   0.00000  Uiso   1.00
H556   H     0.68663   0.39434   0.14886   0.00000  Uiso   1.00
O557   O     0.75931   0.48897   0.38065   0.00000  Uiso   1.00
C558   C     0.74342   0.44454   0.38755   0.00000  Uiso   1.00
H559   H     0.71073   0.44450   0.37523   0.00000  Uiso   1.00
H560   H     0.74273   0.43479   0.42356   0.00000  Uiso   1.00
C561   C     0.76712   0.40847   0.36111   0.00000  Uiso   1.00
H562   H     0.76630   0.41736   0.32499   0.00000  Uiso   1.00
H563   H     0.79989   0.40701   0.37327   0.00000  Uiso   1.00
C564   C     0.74810   0.36143   0.36644   0.00000  Uiso   1.00
H565   H     0.74700   0.35191   0.40242   0.00000  Uiso   1.00
H566   H     0.76731   0.33610   0.34862   0.00000  Uiso   1.00
H567   H     0.71628   0.36067   0.35161   0.00000  Uiso   1.00
O568   O     0.90723   0.48871   0.11932   0.00000  Uiso   1.00
C569   C     0.92304   0.44425   0.11234   0.00000  Uiso   1.00
H570   H     0.95578   0.44418   0.12446   0.00000  Uiso   1.00
H571   H     0.92352   0.43446   0.07634   0.00000  Uiso   1.00
C572   C     0.89943   0.40825   0.13896   0.00000  Uiso   1.00
H573   H     0.90044   0.41717   0.17506   0.00000  Uiso   1.00
H574   H     0.86660   0.40683   0.12698   0.00000  Uiso   1.00
C575   C     0.91836   0.36117   0.13353   0.00000  Uiso   1.00
H576   H     0.91920   0.35160   0.09754   0.00000  Uiso   1.00
H577   H     0.89926   0.33589   0.15153   0.00000  Uiso   1.00
H578   H     0.95029   0.36038   0.14809   0.00000  Uiso   1.00
H579   H     0.72817   0.50764   0.45700   0.00000  Uiso   1.00
H580   H     0.93838   0.50734   0.04301   0.00000  Uiso   1.00
H581   H     0.70417   0.42645   0.25503   0.00000  Uiso   1.00
H582   H     0.96251   0.57337   0.24450   0.00000  Uiso   1.00
H583   H     0.96266   0.42641   0.25427   0.00000  Uiso   1.00
H584   H     0.70398   0.57339   0.24493   0.00000  Uiso   1.00
H585   H     0.88137   0.37559   0.29926   0.00000  Uiso   1.00
H586   H     0.78531   0.62445   0.20071   0.00000  Uiso   1.00
H587   H     0.78530   0.37559   0.20073   0.00000  Uiso   1.00
H588   H     0.88136   0.62445   0.29929   0.00000  Uiso   1.00
C589   C     0.08660   0.83332   0.25018   0.00000  Uiso   1.00
C590   C     0.24673   0.83332   0.24971   0.00000  Uiso   1.00
C591   C     0.09093   0.84097   0.02142   0.00000  Uiso   1.00
C592   C     0.24229   0.84077   0.47859   0.00000  Uiso   1.00
C593   C     0.02132   0.79195   0.25266   0.00000  Uiso   1.00
C594   C     0.31202   0.87452   0.24680   0.00000  Uiso   1.00
C595   C     0.31211   0.79193   0.25217   0.00000  Uiso   1.00
C596   C     0.02122   0.87454   0.24710   0.00000  Uiso   1.00
C597   C     0.29088   0.83324   0.24944   0.00000  Uiso   1.00
C598   C     0.04245   0.83327   0.25010   0.00000  Uiso   1.00
C599   C     0.19336   0.69069   0.27740   0.00000  Uiso   1.00
C600   C     0.13997   0.97601   0.22260   0.00000  Uiso   1.00
C601   C     0.13997   0.69068   0.22260   0.00000  Uiso   1.00
C602   C     0.19336   0.97601   0.27740   0.00000  Uiso   1.00
C603   C     0.16656   0.83320   0.16353   0.00000  Uiso   1.00
C604   C     0.16671   0.83321   0.33647   0.00000  Uiso   1.00
C605   C     0.20492   0.83441   0.40752   0.00000  Uiso   1.00
C606   C     0.12828   0.83448   0.09251   0.00000  Uiso   1.00
C607   C     0.16682   0.83256   0.38415   0.00000  Uiso   1.00
C608   C     0.16640   0.83253   0.11586   0.00000  Uiso   1.00
C609   C     0.12889   0.82895   0.40587   0.00000  Uiso   1.00
C610   C     0.20431   0.82879   0.09412   0.00000  Uiso   1.00
C611   C     0.12849   0.83481   0.45236   0.00000  Uiso   1.00
C612   C     0.20472   0.83468   0.04764   0.00000  Uiso   1.00
C613   C     0.16664   0.83674   0.47657   0.00000  Uiso   1.00
C614   C     0.16656   0.83673   0.02344   0.00000  Uiso   1.00
C615   C     0.20489   0.83733   0.45408   0.00000  Uiso   1.00
C616   C     0.12832   0.83741   0.04594   0.00000  Uiso   1.00
C617   C     0.09097   0.83924   0.47502   0.00000  Uiso   1.00
C618   C     0.24224   0.83903   0.02499   0.00000  Uiso   1.00
H619   H     0.06141   0.84402   0.03795   0.00000  Uiso   1.00
H620   H     0.27181   0.84375   0.46207   0.00000  Uiso   1.00
N621   N     0.16667   0.95240   0.25000   0.00000  Uiso   1.00
N622   N     0.16667   0.71427   0.25000   0.00000  Uiso   1.00
O623   O     0.10559   0.87154   0.25000   0.00000  Uiso   1.00
O624   O     0.22774   0.79513   0.25000   0.00000  Uiso   1.00
O625   O     0.22774   0.87154   0.25001   0.00000  Uiso   1.00
O626   O     0.10559   0.79513   0.25000   0.00000  Uiso   1.00
O627   O     0.16666   0.87156   0.18393   0.00000  Uiso   1.00
O628   O     0.16667   0.79511   0.31608   0.00000  Uiso   1.00
O629   O     0.16667   0.87156   0.31608   0.00000  Uiso   1.00
O630   O     0.16666   0.79511   0.18393   0.00000  Uiso   1.00
Zn631  Zn    0.16667   0.88437   0.25000   0.00000  Uiso   1.00
Zn632  Zn    0.16667   0.78229   0.25000   0.00000  Uiso   1.00
O633   O     0.24215   0.83424   0.38479   0.00000  Uiso   1.00
C634   C     0.25187   0.78946   0.37091   0.00000  Uiso   1.00
H635   H     0.26529   0.79179   0.33701   0.00000  Uiso   1.00
H636   H     0.22454   0.76630   0.36798   0.00000  Uiso   1.00
C637   C     0.28409   0.76803   0.40268   0.00000  Uiso   1.00
H638   H     0.31089   0.79142   0.40713   0.00000  Uiso   1.00
H639   H     0.27006   0.76209   0.43590   0.00000  Uiso   1.00
C640   C     0.29925   0.72271   0.38445   0.00000  Uiso   1.00
H641   H     0.27299   0.69839   0.38132   0.00000  Uiso   1.00
H642   H     0.32306   0.70826   0.40774   0.00000  Uiso   1.00
H643   H     0.31324   0.72750   0.35101   0.00000  Uiso   1.00
O644   O     0.09107   0.83451   0.11526   0.00000  Uiso   1.00
C645   C     0.08118   0.78981   0.12923   0.00000  Uiso   1.00
H646   H     0.06750   0.79229   0.16300   0.00000  Uiso   1.00
H647   H     0.10847   0.76665   0.13247   0.00000  Uiso   1.00
C648   C     0.04917   0.76828   0.09729   0.00000  Uiso   1.00
H649   H     0.02234   0.79160   0.09268   0.00000  Uiso   1.00
H650   H     0.06338   0.76234   0.06416   0.00000  Uiso   1.00
C651   C     0.03403   0.72293   0.11545   0.00000  Uiso   1.00
H652   H     0.06031   0.69864   0.11863   0.00000  Uiso   1.00
H653   H     0.01029   0.70846   0.09209   0.00000  Uiso   1.00
H654   H     0.01997   0.72767   0.14886   0.00000  Uiso   1.00
O655   O     0.09264   0.82231   0.38065   0.00000  Uiso   1.00
C656   C     0.07675   0.77787   0.38755   0.00000  Uiso   1.00
H657   H     0.04406   0.77783   0.37523   0.00000  Uiso   1.00
H658   H     0.07607   0.76813   0.42356   0.00000  Uiso   1.00
C659   C     0.10046   0.74181   0.36111   0.00000  Uiso   1.00
H660   H     0.09964   0.75069   0.32499   0.00000  Uiso   1.00
H661   H     0.13322   0.74034   0.37327   0.00000  Uiso   1.00
C662   C     0.08144   0.69476   0.36644   0.00000  Uiso   1.00
H663   H     0.08033   0.68524   0.40242   0.00000  Uiso   1.00
H664   H     0.10064   0.66944   0.34862   0.00000  Uiso   1.00
H665   H     0.04961   0.69400   0.35161   0.00000  Uiso   1.00
O666   O     0.24056   0.82204   0.11932   0.00000  Uiso   1.00
C667   C     0.25637   0.77758   0.11234   0.00000  Uiso   1.00
H668   H     0.28912   0.77751   0.12446   0.00000  Uiso   1.00
H669   H     0.25686   0.76779   0.07634   0.00000  Uiso   1.00
C670   C     0.23277   0.74158   0.13896   0.00000  Uiso   1.00
H671   H     0.23378   0.75050   0.17506   0.00000  Uiso   1.00
H672   H     0.19994   0.74016   0.12698   0.00000  Uiso   1.00
C673   C     0.25170   0.69450   0.13353   0.00000  Uiso   1.00
H674   H     0.25254   0.68493   0.09754   0.00000  Uiso   1.00
H675   H     0.23259   0.66923   0.15153   0.00000  Uiso   1.00
H676   H     0.28362   0.69371   0.14809   0.00000  Uiso   1.00
H677   H     0.06151   0.84097   0.45700   0.00000  Uiso   1.00
H678   H     0.27171   0.84067   0.04301   0.00000  Uiso   1.00
H679   H     0.03751   0.75978   0.25503   0.00000  Uiso   1.00
H680   H     0.29584   0.90670   0.24450   0.00000  Uiso   1.00
H681   H     0.29600   0.75974   0.25427   0.00000  Uiso   1.00
H682   H     0.03732   0.90673   0.24493   0.00000  Uiso   1.00
H683   H     0.21470   0.70893   0.29926   0.00000  Uiso   1.00
H684   H     0.11864   0.95778   0.20071   0.00000  Uiso   1.00
H685   H     0.11863   0.70892   0.20073   0.00000  Uiso   1.00
H686   H     0.21469   0.95779   0.29929   0.00000  Uiso   1.00
C687   C     0.41993   0.83332   0.25018   0.00000  Uiso   1.00
C688   C     0.58007   0.83332   0.24971   0.00000  Uiso   1.00
C689   C     0.42426   0.84097   0.02142   0.00000  Uiso   1.00
C690   C     0.57562   0.84077   0.47859   0.00000  Uiso   1.00
C691   C     0.35465   0.79195   0.25266   0.00000  Uiso   1.00
C692   C     0.64535   0.87452   0.24680   0.00000  Uiso   1.00
C693   C     0.64544   0.79193   0.25217   0.00000  Uiso   1.00
C694   C     0.35455   0.87454   0.24710   0.00000  Uiso   1.00
C695   C     0.62421   0.83324   0.24944   0.00000  Uiso   1.00
C696   C     0.37579   0.83327   0.25010   0.00000  Uiso   1.00
C697   C     0.52670   0.69069   0.27740   0.00000  Uiso   1.00
C698   C     0.47331   0.97601   0.22260   0.00000  Uiso   1.00
C699   C     0.47330   0.69068   0.22260   0.00000  Uiso   1.00
C700   C     0.52669   0.97601   0.27740   0.00000  Uiso   1.00
C701   C     0.49989   0.83320   0.16353   0.00000  Uiso   1.00
C702   C     0.50004   0.83321   0.33647   0.00000  Uiso   1.00
C703   C     0.53826   0.83441   0.40752   0.00000  Uiso   1.00
C704   C     0.46162   0.83448   0.09251   0.00000  Uiso   1.00
C705   C     0.50016   0.83256   0.38415   0.00000  Uiso   1.00
C706   C     0.49973   0.83253   0.11586   0.00000  Uiso   1.00
C707   C     0.46222   0.82895   0.40587   0.00000  Uiso   1.00
C708   C     0.53765   0.82879   0.09412   0.00000  Uiso   1.00
C709   C     0.46182   0.83481   0.45236   0.00000  Uiso   1.00
C710   C     0.53805   0.83468   0.04764   0.00000  Uiso   1.00
C711   C     0.49997   0.83674   0.47657   0.00000  Uiso   1.00
C712   C     0.49990   0.83673   0.02344   0.00000  Uiso   1.00
C713   C     0.53822   0.83733   0.45408   0.00000  Uiso   1.00
C714   C     0.46165   0.83741   0.04594   0.00000  Uiso   1.00
C715   C     0.42430   0.83924   0.47502   0.00000  Uiso   1.00
C716   C     0.57558   0.83903   0.02499   0.00000  Uiso   1.00
H717   H     0.39474   0.84402   0.03795   0.00000  Uiso   1.00
H718   H     0.60515   0.84375   0.46207   0.00000  Uiso   1.00
N719   N     0.50000   0.95240   0.25000   0.00000  Uiso   1.00
N720   N     0.50000   0.71427   0.25000   0.00000  Uiso   1.00
O721   O     0.43892   0.87154   0.25000   0.00000  Uiso   1.00
O722   O     0.56108   0.79513   0.25000   0.00000  Uiso   1.00
O723   O     0.56108   0.87154   0.25001   0.00000  Uiso   1.00
O724   O     0.43892   0.79513   0.25000   0.00000  Uiso   1.00
O725   O     0.49999   0.87156   0.18393   0.00000  Uiso   1.00
O726   O     0.50001   0.79511   0.31608   0.00000  Uiso   1.00
O727   O     0.50001   0.87156   0.31608   0.00000  Uiso   1.00
O728   O     0.49999   0.79511   0.18393   0.00000  Uiso   1.00
Zn729  Zn    0.50000   0.88437   0.25000   0.00000  Uiso   1.00
Zn730  Zn    0.50000   0.78229   0.25000   0.00000  Uiso   1.00
O731   O     0.57548   0.83424   0.38479   0.00000  Uiso   1.00
C732   C     0.58521   0.78946   0.37091   0.00000  Uiso   1.00
H733   H     0.59862   0.79179   0.33701   0.00000  Uiso   1.00
H734   H     0.55787   0.76630   0.36798   0.00000  Uiso   1.00
C735   C     0.61743   0.76803   0.40268   0.00000  Uiso   1.00
H736   H     0.64423   0.79142   0.40713   0.00000  Uiso   1.00
H737   H     0.60339   0.76209   0.43590   0.00000  Uiso   1.00
C738   C     0.63258   0.72271   0.38445   0.00000  Uiso   1.00
H739   H     0.60632   0.69839   0.38132   0.00000  Uiso   1.00
H740   H     0.65639   0.70826   0.40774   0.00000  Uiso   1.00
H741   H     0.64657   0.72750   0.35101   0.00000  Uiso   1.00
O742   O     0.42440   0.83451   0.11526   0.00000  Uiso   1.00
C743   C     0.41451   0.78981   0.12923   0.00000  Uiso   1.00
H744   H     0.40084   0.79229   0.16300   0.00000  Uiso   1.00
H745   H     0.44180   0.76665   0.13247   0.00000  Uiso   1.00
C746   C     0.38251   0.76828   0.09729   0.00000  Uiso   1.00
H747   H     0.35568   0.79160   0.09268   0.00000  Uiso   1.00
H748   H     0.39672   0.76234   0.06416   0.00000  Uiso   1.00
C749   C     0.36737   0.72293   0.11545   0.00000  Uiso   1.00
H750   H     0.39364   0.69864   0.11863   0.00000  Uiso   1.00
H751   H     0.34363   0.70846   0.09209   0.00000  Uiso   1.00
H752   H     0.35330   0.72767   0.14886   0.00000  Uiso   1.00
O753   O     0.42597   0.82231   0.38065   0.00000  Uiso   1.00
C754   C     0.41008   0.77787   0.38755   0.00000  Uiso   1.00
H755   H     0.37740   0.77783   0.37523   0.00000  Uiso   1.00
H756   H     0.40940   0.76813   0.42356   0.00000  Uiso   1.00
C757   C     0.43379   0.74181   0.36111   0.00000  Uiso   1.00
H758   H     0.43297   0.75069   0.32499   0.00000  Uiso   1.00
H759   H     0.46656   0.74034   0.37327   0.00000  Uiso   1.00
C760   C     0.41477   0.69476   0.36644   0.00000  Uiso   1.00
H761   H     0.41367   0.68524   0.40242   0.00000  Uiso   1.00
H762   H     0.43398   0.66944   0.34862   0.00000  Uiso   1.00
H763   H     0.38295   0.69400   0.35161   0.00000  Uiso   1.00
O764   O     0.57389   0.82204   0.11932   0.00000  Uiso   1.00
C765   C     0.58971   0.77758   0.11234   0.00000  Uiso   1.00
H766   H     0.62245   0.77751   0.12446   0.00000  Uiso   1.00
H767   H     0.59019   0.76779   0.07634   0.00000  Uiso   1.00
C768   C     0.56610   0.74158   0.13896   0.00000  Uiso   1.00
H769   H     0.56711   0.75050   0.17506   0.00000  Uiso   1.00
H770   H     0.53327   0.74016   0.12698   0.00000  Uiso   1.00
C771   C     0.58503   0.69450   0.13353   0.00000  Uiso   1.00
H772   H     0.58587   0.68493   0.09754   0.00000  Uiso   1.00
H773   H     0.56592   0.66923   0.15153   0.00000  Uiso   1.00
H774   H     0.61695   0.69371   0.14809   0.00000  Uiso   1.00
H775   H     0.39484   0.84097   0.45700   0.00000  Uiso   1.00
H776   H     0.60504   0.84067   0.04301   0.00000  Uiso   1.00
H777   H     0.37084   0.75978   0.25503   0.00000  Uiso   1.00
H778   H     0.62918   0.90670   0.24450   0.00000  Uiso   1.00
H779   H     0.62933   0.75974   0.25427   0.00000  Uiso   1.00
H780   H     0.37065   0.90673   0.24493   0.00000  Uiso   1.00
H781   H     0.54804   0.70893   0.29926   0.00000  Uiso   1.00
H782   H     0.45198   0.95778   0.20071   0.00000  Uiso   1.00
H783   H     0.45197   0.70892   0.20073   0.00000  Uiso   1.00
H784   H     0.54802   0.95779   0.29929   0.00000  Uiso   1.00
C785   C     0.75327   0.83332   0.25018   0.00000  Uiso   1.00
C786   C     0.91340   0.83332   0.24971   0.00000  Uiso   1.00
C787   C     0.75759   0.84097   0.02142   0.00000  Uiso   1.00
C788   C     0.90896   0.84077   0.47859   0.00000  Uiso   1.00
C789   C     0.68799   0.79195   0.25266   0.00000  Uiso   1.00
C790   C     0.97868   0.87452   0.24680   0.00000  Uiso   1.00
C791   C     0.97877   0.79193   0.25217   0.00000  Uiso   1.00
C792   C     0.68789   0.87454   0.24710   0.00000  Uiso   1.00
C793   C     0.95754   0.83324   0.24944   0.00000  Uiso   1.00
C794   C     0.70912   0.83327   0.25010   0.00000  Uiso   1.00
C795   C     0.86003   0.69069   0.27740   0.00000  Uiso   1.00
C796   C     0.80664   0.97601   0.22260   0.00000  Uiso   1.00
C797   C     0.80664   0.69068   0.22260   0.00000  Uiso   1.00
C798   C     0.86003   0.97601   0.27740   0.00000  Uiso   1.00
C799   C     0.83323   0.83320   0.16353   0.00000  Uiso   1.00
C800   C     0.83338   0.83321   0.33647   0.00000  Uiso   1.00
C801   C     0.87159   0.83441   0.40752   0.00000  Uiso   1.00
C802   C     0.79495   0.83448   0.09251   0.00000  Uiso   1.00
C803   C     0.83349   0.83256   0.38415   0.00000  Uiso   1.00
C804   C     0.83306   0.83253   0.11586   0.00000  Uiso   1.00
C805   C     0.79555   0.82895   0.40587   0.00000  Uiso   1.00
C806   C     0.87098   0.82879   0.09412   0.00000  Uiso   1.00
C807   C     0.79515   0.83481   0.45236   0.00000  Uiso   1.00
C808   C     0.87138   0.83468   0.04764   0.00000  Uiso   1.00
C809   C     0.83331   0.83674   0.47657   0.00000  Uiso   1.00
C810   C     0.83323   0.83673   0.02344   0.00000  Uiso   1.00
C811   C     0.87155   0.83733   0.45408   0.00000  Uiso   1.00
C812   C     0.79499   0.83741   0.04594   0.00000  Uiso   1.00
C813   C     0.75764   0.83924   0.47502   0.00000  Uiso   1.00
C814   C     0.90891   0.83903   0.02499   0.00000  Uiso   1.00
H815   H     0.72808   0.84402   0.03795   0.00000  Uiso   1.00
H816   H     0.93848   0.84375   0.46207   0.00000  Uiso   1.00
N817   N     0.83333   0.95240   0.25000   0.00000  Uiso   1.00
N818   N     0.83333   0.71427   0.25000   0.00000  Uiso   1.00
O819   O     0.77226   0.87154   0.25000   0.00000  Uiso   1.00
O820   O     0.89441   0.79513   0.25000   0.00000  Uiso   1.00
O821   O     0.89441   0.87154   0.25001   0.00000  Uiso   1.00
O822   O     0.77226   0.79513   0.25000   0.00000  Uiso   1.00
O823   O     0.83333   0.87156   0.18393   0.00000  Uiso   1.00
O824   O     0.83334   0.79511   0.31608   0.00000  Uiso   1.00
O825   O     0.83334   0.87156   0.31608   0.00000  Uiso   1.00
O826   O     0.83333   0.79511   0.18393   0.00000  Uiso   1.00
Zn827  Zn    0.83333   0.88437   0.25000   0.00000  Uiso   1.00
Zn828  Zn    0.83333   0.78229   0.25000   0.00000  Uiso   1.00
O829   O     0.90881   0.83424   0.38479   0.00000  Uiso   1.00
C830   C     0.91854   0.78946   0.37091   0.00000  Uiso   1.00
H831   H     0.93196   0.79179   0.33701   0.00000  Uiso   1.00
H832   H     0.89121   0.76630   0.36798   0.00000  Uiso   1.00
C833   C     0.95076   0.76803   0.40268   0.00000  Uiso   1.00
H834   H     0.97756   0.79142   0.40713   0.00000  Uiso   1.00
H835   H     0.93672   0.76209   0.43590   0.00000  Uiso   1.00
C836   C     0.96591   0.72271   0.38445   0.00000  Uiso   1.00
H837   H     0.93966   0.69839   0.38132   0.00000  Uiso   1.00
H838   H     0.98973   0.70826   0.40774   0.00000  Uiso   1.00
H839   H     0.97990   0.72750   0.35101   0.00000  Uiso   1.00
O840   O     0.75773   0.83451   0.11526   0.00000  Uiso   1.00
C841   C     0.74785   0.78981   0.12923   0.00000  Uiso   1.00
H842   H     0.73417   0.79229   0.16300   0.00000  Uiso   1.00
H843   H     0.77514   0.76665   0.13247   0.00000  Uiso   1.00
C844   C     0.71584   0.76828   0.09729   0.00000  Uiso   1.00
H845   H     0.68901   0.79160   0.09268   0.00000  Uiso   1.00
H846   H     0.73005   0.76234   0.06416   0.00000  Uiso   1.00
C847   C     0.70070   0.72293   0.11545   0.00000  Uiso   1.00
H848   H     0.72697   0.69864   0.11863   0.00000  Uiso   1.00
H849   H     0.67696   0.70846   0.09209   0.00000  Uiso   1.00
H850   H     0.68663   0.72767   0.14886   0.00000  Uiso   1.00
O851   O     0.75931   0.82231   0.38065   0.00000  Uiso   1.00
C852   C     0.74342   0.77787   0.38755   0.00000  Uiso   1.00
H853   H     0.71073   0.77783   0.37523   0.00000  Uiso   1.00
H854   H     0.74273   0.76813   0.42356   0.00000  Uiso   1.00
C855   C     0.76712   0.74181   0.36111   0.00000  Uiso   1.00
H856   H     0.76630   0.75069   0.32499   0.00000  Uiso   1.00
H857   H     0.79989   0.74034   0.37327   0.00000  Uiso   1.00
C858   C     0.74810   0.69476   0.36644   0.00000  Uiso   1.00
H859   H     0.74700   0.68524   0.40242   0.00000  Uiso   1.00
H860   H     0.76731   0.66944   0.34862   0.00000  Uiso   1.00
H861   H     0.71628   0.69400   0.35161   0.00000  Uiso   1.00
O862   O     0.90723   0.82204   0.11932   0.00000  Uiso   1.00
C863   C     0.92304   0.77758   0.11234   0.00000  Uiso   1.00
H864   H     0.95578   0.77751   0.12446   0.00000  Uiso   1.00
H865   H     0.92352   0.76779   0.07634   0.00000  Uiso   1.00
C866   C     0.89943   0.74158   0.13896   0.00000  Uiso   1.00
H867   H     0.90044   0.75050   0.17506   0.00000  Uiso   1.00
H868   H     0.86660   0.74016   0.12698   0.00000  Uiso   1.00
C869   C     0.91836   0.69450   0.13353   0.00000  Uiso   1.00
H870   H     0.91920   0.68493   0.09754   0.00000  Uiso   1.00
H871   H     0.89926   0.66923   0.15153   0.00000  Uiso   1.00
H872   H     0.95029   0.69371   0.14809   0.00000  Uiso   1.00
H873   H     0.72817   0.84097   0.45700   0.00000  Uiso   1.00
H874   H     0.93838   0.84067   0.04301   0.00000  Uiso   1.00
H875   H     0.70417   0.75978   0.25503   0.00000  Uiso   1.00
H876   H     0.96251   0.90670   0.24450   0.00000  Uiso   1.00
H877   H     0.96266   0.75974   0.25427   0.00000  Uiso   1.00
H878   H     0.70398   0.90673   0.24493   0.00000  Uiso   1.00
H879   H     0.88137   0.70893   0.29926   0.00000  Uiso   1.00
H880   H     0.78531   0.95778   0.20071   0.00000  Uiso   1.00
H881   H     0.78530   0.70892   0.20073   0.00000  Uiso   1.00
H882   H     0.88136   0.95779   0.29929   0.00000  Uiso   1.00
C883   C     0.08660   0.16666   0.75018   0.00000  Uiso   1.00
C884   C     0.24673   0.16665   0.74971   0.00000  Uiso   1.00
C885   C     0.09093   0.17430   0.52142   0.00000  Uiso   1.00
C886   C     0.24229   0.17411   0.97859   0.00000  Uiso   1.00
C887   C     0.02132   0.12529   0.75266   0.00000  Uiso   1.00
C888   C     0.31202   0.20786   0.74680   0.00000  Uiso   1.00
C889   C     0.31211   0.12526   0.75217   0.00000  Uiso   1.00
C890   C     0.02122   0.20787   0.74710   0.00000  Uiso   1.00
C891   C     0.29088   0.16657   0.74944   0.00000  Uiso   1.00
C892   C     0.04245   0.16661   0.75010   0.00000  Uiso   1.00
C893   C     0.19336   0.02402   0.77740   0.00000  Uiso   1.00
C894   C     0.13997   0.30934   0.72260   0.00000  Uiso   1.00
C895   C     0.13997   0.02402   0.72260   0.00000  Uiso   1.00
C896   C     0.19336   0.30934   0.77740   0.00000  Uiso   1.00
C897   C     0.16656   0.16654   0.66353   0.00000  Uiso   1.00
C898   C     0.16671   0.16654   0.83647   0.00000  Uiso   1.00
C899   C     0.20492   0.16774   0.90752   0.00000  Uiso   1.00
C900   C     0.12828   0.16782   0.59251   0.00000  Uiso   1.00
C901   C     0.16682   0.16589   0.88415   0.00000  Uiso   1.00
C902   C     0.16640   0.16586   0.61586   0.00000  Uiso   1.00
C903   C     0.12889   0.16228   0.90587   0.00000  Uiso   1.00
C904   C     0.20431   0.16213   0.59412   0.00000  Uiso   1.00
C905   C     0.12849   0.16814   0.95236   0.00000  Uiso   1.00
C906   C     0.20472   0.16801   0.54764   0.00000  Uiso   1.00
C907   C     0.16664   0.17007   0.97657   0.00000  Uiso   1.00
C908   C     0.16656   0.17006   0.52344   0.00000  Uiso   1.00
C909   C     0.20489   0.17066   0.95408   0.00000  Uiso   1.00
C910   C     0.12832   0.17074   0.54594   0.00000  Uiso   1.00
C911   C     0.09097   0.17258   0.97502   0.00000  Uiso   1.00
C912   C     0.24224   0.17236   0.52499   0.00000  Uiso   1.00
H913   H     0.06141   0.17735   0.53795   0.00000  Uiso   1.00
H914   H     0.27181   0.17708   0.96207   0.00000  Uiso   1.00
N915   N     0.16667   0.28573   0.75000   0.00000  Uiso   1.00
N916   N     0.16667   0.04760   0.75000   0.00000  Uiso   1.00
O917   O     0.10559   0.20487   0.75000   0.00000  Uiso   1.00
O918   O     0.22774   0.12846   0.75000   0.00000  Uiso   1.00
O919   O     0.22774   0.20487   0.75001   0.00000  Uiso   1.00
O920   O     0.10559   0.12846   0.75000   0.00000  Uiso   1.00
O921   O     0.16666   0.20489   0.68393   0.00000  Uiso   1.00
O922   O     0.16667   0.12844   0.81608   0.00000  Uiso   1.00
O923   O     0.16667   0.20489   0.81608   0.00000  Uiso   1.00
O924   O     0.16666   0.12844   0.68393   0.00000  Uiso   1.00
Zn925  Zn    0.16667   0.21771   0.75000   0.00000  Uiso   1.00
Zn926  Zn    0.16667   0.11563   0.75000   0.00000  Uiso   1.00
O927   O     0.24215   0.16757   0.88479   0.00000  Uiso   1.00
C928   C     0.25187   0.12280   0.87091   0.00000  Uiso   1.00
H929   H     0.26529   0.12512   0.83701   0.00000  Uiso   1.00
H930   H     0.22454   0.09964   0.86798   0.00000  Uiso   1.00
C931   C     0.28409   0.10137   0.90268   0.00000  Uiso   1.00
H932   H     0.31089   0.12476   0.90713   0.00000  Uiso   1.00
H933   H     0.27006   0.09542   0.93590   0.00000  Uiso   1.00
C934   C     0.29925   0.05605   0.88445   0.00000  Uiso   1.00
H935   H     0.27299   0.03173   0.88132   0.00000  Uiso   1.00
H936   H     0.32306   0.04160   0.90774   0.00000  Uiso   1.00
H937   H     0.31324   0.06084   0.85101   0.00000  Uiso   1.00
O938   O     0.09107   0.16784   0.61526   0.00000  Uiso   1.00
C939   C     0.08118   0.12315   0.62923   0.00000  Uiso   1.00
H940   H     0.06750   0.12562   0.66300   0.00000  Uiso   1.00
H941   H     0.10847   0.09998   0.63247   0.00000  Uiso   1.00
C942   C     0.04917   0.10161   0.59729   0.00000  Uiso   1.00
H943   H     0.02234   0.12493   0.59268   0.00000  Uiso   1.00
H944   H     0.06338   0.09568   0.56416   0.00000  Uiso   1.00
C945   C     0.03403   0.05626   0.61545   0.00000  Uiso   1.00
H946   H     0.06031   0.03197   0.61863   0.00000  Uiso   1.00
H947   H     0.01029   0.04180   0.59209   0.00000  Uiso   1.00
H948   H     0.01997   0.06100   0.64886   0.00000  Uiso   1.00
O949   O     0.09264   0.15564   0.88065   0.00000  Uiso   1.00
C950   C     0.07675   0.11121   0.88755   0.00000  Uiso   1.00
H951   H     0.04406   0.11117   0.87523   0.00000  Uiso   1.00
H952   H     0.07607   0.10146   0.92356   0.00000  Uiso   1.00
C953   C     0.10046   0.07514   0.86111   0.00000  Uiso   1.00
H954   H     0.09964   0.08402   0.82499   0.00000  Uiso   1.00
H955   H     0.13322   0.07368   0.87327   0.00000  Uiso   1.00
C956   C     0.08144   0.02810   0.86644   0.00000  Uiso   1.00
H957   H     0.08033   0.01858   0.90242   0.00000  Uiso   1.00
H958   H     0.10064   0.00277   0.84862   0.00000  Uiso   1.00
H959   H     0.04961   0.02733   0.85161   0.00000  Uiso   1.00
O960   O     0.24056   0.15537   0.61932   0.00000  Uiso   1.00
C961   C     0.25637   0.11092   0.61234   0.00000  Uiso   1.00
H962   H     0.28912   0.11085   0.62446   0.00000  Uiso   1.00
H963   H     0.25686   0.10113   0.57634   0.00000  Uiso   1.00
C964   C     0.23277   0.07491   0.63896   0.00000  Uiso   1.00
H965   H     0.23378   0.08383   0.67506   0.00000  Uiso   1.00
H966   H     0.19994   0.07350   0.62698   0.00000  Uiso   1.00
C967   C     0.25170   0.02783   0.63353   0.00000  Uiso   1.00
H968   H     0.25254   0.01826   0.59754   0.00000  Uiso   1.00
H969   H     0.23259   0.00256   0.65153   0.00000  Uiso   1.00
H970   H     0.28362   0.02704   0.64809   0.00000  Uiso   1.00
H971   H     0.06151   0.17430   0.95700   0.00000  Uiso   1.00
H972   H     0.27171   0.17401   0.54301   0.00000  Uiso   1.00
H973   H     0.03751   0.09311   0.75503   0.00000  Uiso   1.00
H974   H     0.29584   0.24004   0.74450   0.00000  Uiso   1.00
H975   H     0.29600   0.09307   0.75427   0.00000  Uiso   1.00
H976   H     0.03732   0.24006   0.74493   0.00000  Uiso   1.00
H977   H     0.21470   0.04226   0.79926   0.00000  Uiso   1.00
H978   H     0.11864   0.29112   0.70071   0.00000  Uiso   1.00
H979   H     0.11863   0.04226   0.70073   0.00000  Uiso   1.00
H980   H     0.21469   0.29112   0.79929   0.00000  Uiso   1.00
C981   C     0.41993   0.16666   0.75018   0.00000  Uiso   1.00
C982   C     0.58007   0.16665   0.74971   0.00000  Uiso   1.00
C983   C     0.42426   0.17430   0.52142   0.00000  Uiso   1.00
C984   C     0.57562   0.17411   0.97859   0.00000  Uiso   1.00
C985   C     0.35465   0.12529   0.75266   0.00000  Uiso   1.00
C986   C     0.64535   0.20786   0.74680   0.00000  Uiso   1.00
C987   C     0.64544   0.12526   0.75217   0.00000  Uiso   1.00
C988   C     0.35455   0.20787   0.74710   0.00000  Uiso   1.00
C989   C     0.62421   0.16657   0.74944   0.00000  Uiso   1.00
C990   C     0.37579   0.16661   0.75010   0.00000  Uiso   1.00
C991   C     0.52670   0.02402   0.77740   0.00000  Uiso   1.00
C992   C     0.47331   0.30934   0.72260   0.00000  Uiso   1.00
C993   C     0.47330   0.02402   0.72260   0.00000  Uiso   1.00
C994   C     0.52669   0.30934   0.77740   0.00000  Uiso   1.00
C995   C     0.49989   0.16654   0.66353   0.00000  Uiso   1.00
C996   C     0.50004   0.16654   0.83647   0.00000  Uiso   1.00
C997   C     0.53826   0.16774   0.90752   0.00000  Uiso   1.00
C998   C     0.46162   0.16782   0.59251   0.00000  Uiso   1.00
C999   C     0.50016   0.16589   0.88415   0.00000  Uiso   1.00
C1000  C     0.49973   0.16586   0.61586   0.00000  Uiso   1.00
C1001  C     0.46222   0.16228   0.90587   0.00000  Uiso   1.00
C1002  C     0.53765   0.16213   0.59412   0.00000  Uiso   1.00
C1003  C     0.46182   0.16814   0.95236   0.00000  Uiso   1.00
C1004  C     0.53805   0.16801   0.54764   0.00000  Uiso   1.00
C1005  C     0.49997   0.17007   0.97657   0.00000  Uiso   1.00
C1006  C     0.49990   0.17006   0.52344   0.00000  Uiso   1.00
C1007  C     0.53822   0.17066   0.95408   0.00000  Uiso   1.00
C1008  C     0.46165   0.17074   0.54594   0.00000  Uiso   1.00
C1009  C     0.42430   0.17258   0.97502   0.00000  Uiso   1.00
C1010  C     0.57558   0.17236   0.52499   0.00000  Uiso   1.00
H1011  H     0.39474   0.17735   0.53795   0.00000  Uiso   1.00
H1012  H     0.60515   0.17708   0.96207   0.00000  Uiso   1.00
N1013  N     0.50000   0.28573   0.75000   0.00000  Uiso   1.00
N1014  N     0.50000   0.04760   0.75000   0.00000  Uiso   1.00
O1015  O     0.43892   0.20487   0.75000   0.00000  Uiso   1.00
O1016  O     0.56108   0.12846   0.75000   0.00000  Uiso   1.00
O1017  O     0.56108   0.20487   0.75001   0.00000  Uiso   1.00
O1018  O     0.43892   0.12846   0.75000   0.00000  Uiso   1.00
O1019  O     0.49999   0.20489   0.68393   0.00000  Uiso   1.00
O1020  O     0.50001   0.12844   0.81608   0.00000  Uiso   1.00
O1021  O     0.50001   0.20489   0.81608   0.00000  Uiso   1.00
O1022  O     0.49999   0.12844   0.68393   0.00000  Uiso   1.00
Zn1023 Zn    0.50000   0.21771   0.75000   0.00000  Uiso   1.00
Zn1024 Zn    0.50000   0.11563   0.75000   0.00000  Uiso   1.00
O1025  O     0.57548   0.16757   0.88479   0.00000  Uiso   1.00
C1026  C     0.58521   0.12280   0.87091   0.00000  Uiso   1.00
H1027  H     0.59862   0.12512   0.83701   0.00000  Uiso   1.00
H1028  H     0.55787   0.09964   0.86798   0.00000  Uiso   1.00
C1029  C     0.61743   0.10137   0.90268   0.00000  Uiso   1.00
H1030  H     0.64423   0.12476   0.90713   0.00000  Uiso   1.00
H1031  H     0.60339   0.09542   0.93590   0.00000  Uiso   1.00
C1032  C     0.63258   0.05605   0.88445   0.00000  Uiso   1.00
H1033  H     0.60632   0.03173   0.88132   0.00000  Uiso   1.00
H1034  H     0.65639   0.04160   0.90774   0.00000  Uiso   1.00
H1035  H     0.64657   0.06084   0.85101   0.00000  Uiso   1.00
O1036  O     0.42440   0.16784   0.61526   0.00000  Uiso   1.00
C1037  C     0.41451   0.12315   0.62923   0.00000  Uiso   1.00
H1038  H     0.40084   0.12562   0.66300   0.00000  Uiso   1.00
H1039  H     0.44180   0.09998   0.63247   0.00000  Uiso   1.00
C1040  C     0.38251   0.10161   0.59729   0.00000  Uiso   1.00
H1041  H     0.35568   0.12493   0.59268   0.00000  Uiso   1.00
H1042  H     0.39672   0.09568   0.56416   0.00000  Uiso   1.00
C1043  C     0.36737   0.05626   0.61545   0.00000  Uiso   1.00
H1044  H     0.39364   0.03197   0.61863   0.00000  Uiso   1.00
H1045  H     0.34363   0.04180   0.59209   0.00000  Uiso   1.00
H1046  H     0.35330   0.06100   0.64886   0.00000  Uiso   1.00
O1047  O     0.42597   0.15564   0.88065   0.00000  Uiso   1.00
C1048  C     0.41008   0.11121   0.88755   0.00000  Uiso   1.00
H1049  H     0.37740   0.11117   0.87523   0.00000  Uiso   1.00
H1050  H     0.40940   0.10146   0.92356   0.00000  Uiso   1.00
C1051  C     0.43379   0.07514   0.86111   0.00000  Uiso   1.00
H1052  H     0.43297   0.08402   0.82499   0.00000  Uiso   1.00
H1053  H     0.46656   0.07368   0.87327   0.00000  Uiso   1.00
C1054  C     0.41477   0.02810   0.86644   0.00000  Uiso   1.00
H1055  H     0.41367   0.01858   0.90242   0.00000  Uiso   1.00
H1056  H     0.43398   0.00277   0.84862   0.00000  Uiso   1.00
H1057  H     0.38295   0.02733   0.85161   0.00000  Uiso   1.00
O1058  O     0.57389   0.15537   0.61932   0.00000  Uiso   1.00
C1059  C     0.58971   0.11092   0.61234   0.00000  Uiso   1.00
H1060  H     0.62245   0.11085   0.62446   0.00000  Uiso   1.00
H1061  H     0.59019   0.10113   0.57634   0.00000  Uiso   1.00
C1062  C     0.56610   0.07491   0.63896   0.00000  Uiso   1.00
H1063  H     0.56711   0.08383   0.67506   0.00000  Uiso   1.00
H1064  H     0.53327   0.07350   0.62698   0.00000  Uiso   1.00
C1065  C     0.58503   0.02783   0.63353   0.00000  Uiso   1.00
H1066  H     0.58587   0.01826   0.59754   0.00000  Uiso   1.00
H1067  H     0.56592   0.00256   0.65153   0.00000  Uiso   1.00
H1068  H     0.61695   0.02704   0.64809   0.00000  Uiso   1.00
H1069  H     0.39484   0.17430   0.95700   0.00000  Uiso   1.00
H1070  H     0.60504   0.17401   0.54301   0.00000  Uiso   1.00
H1071  H     0.37084   0.09311   0.75503   0.00000  Uiso   1.00
H1072  H     0.62918   0.24004   0.74450   0.00000  Uiso   1.00
H1073  H     0.62933   0.09307   0.75427   0.00000  Uiso   1.00
H1074  H     0.37065   0.24006   0.74493   0.00000  Uiso   1.00
H1075  H     0.54804   0.04226   0.79926   0.00000  Uiso   1.00
H1076  H     0.45198   0.29112   0.70071   0.00000  Uiso   1.00
H1077  H     0.45197   0.04226   0.70073   0.00000  Uiso   1.00
H1078  H     0.54802   0.29112   0.79929   0.00000  Uiso   1.00
C1079  C     0.75327   0.16666   0.75018   0.00000  Uiso   1.00
C1080  C     0.91340   0.16665   0.74971   0.00000  Uiso   1.00
C1081  C     0.75759   0.17430   0.52142   0.00000  Uiso   1.00
C1082  C     0.90896   0.17411   0.97859   0.00000  Uiso   1.00
C1083  C     0.68799   0.12529   0.75266   0.00000  Uiso   1.00
C1084  C     0.97868   0.20786   0.74680   0.00000  Uiso   1.00
C1085  C     0.97877   0.12526   0.75217   0.00000  Uiso   1.00
C1086  C     0.68789   0.20787   0.74710   0.00000  Uiso   1.00
C1087  C     0.95754   0.16657   0.74944   0.00000  Uiso   1.00
C1088  C     0.70912   0.16661   0.75010   0.00000  Uiso   1.00
C1089  C     0.86003   0.02402   0.77740   0.00000  Uiso   1.00
C1090  C     0.80664   0.30934   0.72260   0.00000  Uiso   1.00
C1091  C     0.80664   0.02402   0.72260   0.00000  Uiso   1.00
C1092  C     0.86003   0.30934   0.77740   0.00000  Uiso   1.00
C1093  C     0.83323   0.16654   0.66353   0.00000  Uiso   1.00
C1094  C     0.83338   0.16654   0.83647   0.00000  Uiso   1.00
C1095  C     0.87159   0.16774   0.90752   0.00000  Uiso   1.00
C1096  C     0.79495   0.16782   0.59251   0.00000  Uiso   1.00
C1097  C     0.83349   0.16589   0.88415   0.00000  Uiso   1.00
C1098  C     0.83306   0.16586   0.61586   0.00000  Uiso   1.00
C1099  C     0.79555   0.16228   0.90587   0.00000  Uiso   1.00
C1100  C     0.87098   0.16213   0.59412   0.00000  Uiso   1.00
C1101  C     0.79515   0.16814   0.95236   0.00000  Uiso   1.00
C1102  C     0.87138   0.16801   0.54764   0.00000  Uiso   1.00
C1103  C     0.83331   0.17007   0.97657   0.00000  Uiso   1.00
C1104  C     0.83323   0.17006   0.52344   0.00000  Uiso   1.00
C1105  C     0.87155   0.17066   0.95408   0.00000  Uiso   1.00
C1106  C     0.79499   0.17074   0.54594   0.00000  Uiso   1.00
C1107  C     0.75764   0.17258   0.97502   0.00000  Uiso   1.00
C1108  C     0.90891   0.17236   0.52499   0.00000  Uiso   1.00
H1109  H     0.72808   0.17735   0.53795   0.00000  Uiso   1.00
H1110  H     0.93848   0.17708   0.96207   0.00000  Uiso   1.00
N1111  N     0.83333   0.28573   0.75000   0.00000  Uiso   1.00
N1112  N     0.83333   0.04760   0.75000   0.00000  Uiso   1.00
O1113  O     0.77226   0.20487   0.75000   0.00000  Uiso   1.00
O1114  O     0.89441   0.12846   0.75000   0.00000  Uiso   1.00
O1115  O     0.89441   0.20487   0.75001   0.00000  Uiso   1.00
O1116  O     0.77226   0.12846   0.75000   0.00000  Uiso   1.00
O1117  O     0.83333   0.20489   0.68393   0.00000  Uiso   1.00
O1118  O     0.83334   0.12844   0.81608   0.00000  Uiso   1.00
O1119  O     0.83334   0.20489   0.81608   0.00000  Uiso   1.00
O1120  O     0.83333   0.12844   0.68393   0.00000  Uiso   1.00
Zn1121 Zn    0.83333   0.21771   0.75000   0.00000  Uiso   1.00
Zn1122 Zn    0.83333   0.11563   0.75000   0.00000  Uiso   1.00
O1123  O     0.90881   0.16757   0.88479   0.00000  Uiso   1.00
C1124  C     0.91854   0.12280   0.87091   0.00000  Uiso   1.00
H1125  H     0.93196   0.12512   0.83701   0.00000  Uiso   1.00
H1126  H     0.89121   0.09964   0.86798   0.00000  Uiso   1.00
C1127  C     0.95076   0.10137   0.90268   0.00000  Uiso   1.00
H1128  H     0.97756   0.12476   0.90713   0.00000  Uiso   1.00
H1129  H     0.93672   0.09542   0.93590   0.00000  Uiso   1.00
C1130  C     0.96591   0.05605   0.88445   0.00000  Uiso   1.00
H1131  H     0.93966   0.03173   0.88132   0.00000  Uiso   1.00
H1132  H     0.98973   0.04160   0.90774   0.00000  Uiso   1.00
H1133  H     0.97990   0.06084   0.85101   0.00000  Uiso   1.00
O1134  O     0.75773   0.16784   0.61526   0.00000  Uiso   1.00
C1135  C     0.74785   0.12315   0.62923   0.00000  Uiso   1.00
H1136  H     0.73417   0.12562   0.66300   0.00000  Uiso   1.00
H1137  H     0.77514   0.09998   0.63247   0.00000  Uiso   1.00
C1138  C     0.71584   0.10161   0.59729   0.00000  Uiso   1.00
H1139  H     0.68901   0.12493   0.59268   0.00000  Uiso   1.00
H1140  H     0.73005   0.09568   0.56416   0.00000  Uiso   1.00
C1141  C     0.70070   0.05626   0.61545   0.00000  Uiso   1.00
H1142  H     0.72697   0.03197   0.61863   0.00000  Uiso   1.00
H1143  H     0.67696   0.04180   0.59209   0.00000  Uiso   1.00
H1144  H     0.68663   0.06100   0.64886   0.00000  Uiso   1.00
O1145  O     0.75931   0.15564   0.88065   0.00000  Uiso   1.00
C1146  C     0.74342   0.11121   0.88755   0.00000  Uiso   1.00
H1147  H     0.71073   0.11117   0.87523   0.00000  Uiso   1.00
H1148  H     0.74273   0.10146   0.92356   0.00000  Uiso   1.00
C1149  C     0.76712   0.07514   0.86111   0.00000  Uiso   1.00
H1150  H     0.76630   0.08402   0.82499   0.00000  Uiso   1.00
H1151  H     0.79989   0.07368   0.87327   0.00000  Uiso   1.00
C1152  C     0.74810   0.02810   0.86644   0.00000  Uiso   1.00
H1153  H     0.74700   0.01858   0.90242   0.00000  Uiso   1.00
H1154  H     0.76731   0.00277   0.84862   0.00000  Uiso   1.00
H1155  H     0.71628   0.02733   0.85161   0.00000  Uiso   1.00
O1156  O     0.90723   0.15537   0.61932   0.00000  Uiso   1.00
C1157  C     0.92304   0.11092   0.61234   0.00000  Uiso   1.00
H1158  H     0.95578   0.11085   0.62446   0.00000  Uiso   1.00
H1159  H     0.92352   0.10113   0.57634   0.00000  Uiso   1.00
C1160  C     0.89943   0.07491   0.63896   0.00000  Uiso   1.00
H1161  H     0.90044   0.08383   0.67506   0.00000  Uiso   1.00
H1162  H     0.86660   0.07350   0.62698   0.00000  Uiso   1.00
C1163  C     0.91836   0.02783   0.63353   0.00000  Uiso   1.00
H1164  H     0.91920   0.01826   0.59754   0.00000  Uiso   1.00
H1165  H     0.89926   0.00256   0.65153   0.00000  Uiso   1.00
H1166  H     0.95029   0.02704   0.64809   0.00000  Uiso   1.00
H1167  H     0.72817   0.17430   0.95700   0.00000  Uiso   1.00
H1168  H     0.93838   0.17401   0.54301   0.00000  Uiso   1.00
H1169  H     0.70417   0.09311   0.75503   0.00000  Uiso   1.00
H1170  H     0.96251   0.24004   0.74450   0.00000  Uiso   1.00
H1171  H     0.96266   0.09307   0.75427   0.00000  Uiso   1.00
H1172  H     0.70398   0.24006   0.74493   0.00000  Uiso   1.00
H1173  H     0.88137   0.04226   0.79926   0.00000  Uiso   1.00
H1174  H     0.78531   0.29112   0.70071   0.00000  Uiso   1.00
H1175  H     0.78530   0.04226   0.70073   0.00000  Uiso   1.00
H1176  H     0.88136   0.29112   0.79929   0.00000  Uiso   1.00
C1177  C     0.08660   0.49999   0.75018   0.00000  Uiso   1.00
C1178  C     0.24673   0.49998   0.74971   0.00000  Uiso   1.00
C1179  C     0.09093   0.50764   0.52142   0.00000  Uiso   1.00
C1180  C     0.24229   0.50744   0.97859   0.00000  Uiso   1.00
C1181  C     0.02132   0.45862   0.75266   0.00000  Uiso   1.00
C1182  C     0.31202   0.54119   0.74680   0.00000  Uiso   1.00
C1183  C     0.31211   0.45860   0.75217   0.00000  Uiso   1.00
C1184  C     0.02122   0.54120   0.74710   0.00000  Uiso   1.00
C1185  C     0.29088   0.49991   0.74944   0.00000  Uiso   1.00
C1186  C     0.04245   0.49994   0.75010   0.00000  Uiso   1.00
C1187  C     0.19336   0.35735   0.77740   0.00000  Uiso   1.00
C1188  C     0.13997   0.64267   0.72260   0.00000  Uiso   1.00
C1189  C     0.13997   0.35735   0.72260   0.00000  Uiso   1.00
C1190  C     0.19336   0.64268   0.77740   0.00000  Uiso   1.00
C1191  C     0.16656   0.49987   0.66353   0.00000  Uiso   1.00
C1192  C     0.16671   0.49988   0.83647   0.00000  Uiso   1.00
C1193  C     0.20492   0.50107   0.90752   0.00000  Uiso   1.00
C1194  C     0.12828   0.50115   0.59251   0.00000  Uiso   1.00
C1195  C     0.16682   0.49923   0.88415   0.00000  Uiso   1.00
C1196  C     0.16640   0.49919   0.61586   0.00000  Uiso   1.00
C1197  C     0.12889   0.49562   0.90587   0.00000  Uiso   1.00
C1198  C     0.20431   0.49546   0.59412   0.00000  Uiso   1.00
C1199  C     0.12849   0.50147   0.95236   0.00000  Uiso   1.00
C1200  C     0.20472   0.50135   0.54764   0.00000  Uiso   1.00
C1201  C     0.16664   0.50341   0.97657   0.00000  Uiso   1.00
C1202  C     0.16656   0.50339   0.52344   0.00000  Uiso   1.00
C1203  C     0.20489   0.50399   0.95408   0.00000  Uiso   1.00
C1204  C     0.12832   0.50407   0.54594   0.00000  Uiso   1.00
C1205  C     0.09097   0.50591   0.97502   0.00000  Uiso   1.00
C1206  C     0.24224   0.50570   0.52499   0.00000  Uiso   1.00
H1207  H     0.06141   0.51068   0.53795   0.00000  Uiso   1.00
H1208  H     0.27181   0.51041   0.96207   0.00000  Uiso   1.00
N1209  N     0.16667   0.61907   0.75000   0.00000  Uiso   1.00
N1210  N     0.16667   0.38093   0.75000   0.00000  Uiso   1.00
O1211  O     0.10559   0.53821   0.75000   0.00000  Uiso   1.00
O1212  O     0.22774   0.46179   0.75000   0.00000  Uiso   1.00
O1213  O     0.22774   0.53821   0.75001   0.00000  Uiso   1.00
O1214  O     0.10559   0.46179   0.75000   0.00000  Uiso   1.00
O1215  O     0.16666   0.53823   0.68393   0.00000  Uiso   1.00
O1216  O     0.16667   0.46177   0.81608   0.00000  Uiso   1.00
O1217  O     0.16667   0.53823   0.81608   0.00000  Uiso   1.00
O1218  O     0.16666   0.46177   0.68393   0.00000  Uiso   1.00
Zn1219 Zn    0.16667   0.55104   0.75000   0.00000  Uiso   1.00
Zn1220 Zn    0.16667   0.44896   0.75000   0.00000  Uiso   1.00
O1221  O     0.24215   0.50090   0.88479   0.00000  Uiso   1.00
C1222  C     0.25187   0.45613   0.87091   0.00000  Uiso   1.00
H1223  H     0.26529   0.45846   0.83701   0.00000  Uiso   1.00
H1224  H     0.22454   0.43297   0.86798   0.00000  Uiso   1.00
C1225  C     0.28409   0.43470   0.90268   0.00000  Uiso   1.00
H1226  H     0.31089   0.45809   0.90713   0.00000  Uiso   1.00
H1227  H     0.27006   0.42876   0.93590   0.00000  Uiso   1.00
C1228  C     0.29925   0.38938   0.88445   0.00000  Uiso   1.00
H1229  H     0.27299   0.36506   0.88132   0.00000  Uiso   1.00
H1230  H     0.32306   0.37493   0.90774   0.00000  Uiso   1.00
H1231  H     0.31324   0.39417   0.85101   0.00000  Uiso   1.00
O1232  O     0.09107   0.50118   0.61526   0.00000  Uiso   1.00
C1233  C     0.08118   0.45648   0.62923   0.00000  Uiso   1.00
H1234  H     0.06750   0.45895   0.66300   0.00000  Uiso   1.00
H1235  H     0.10847   0.43331   0.63247   0.00000  Uiso   1.00
C1236  C     0.04917   0.43494   0.59729   0.00000  Uiso   1.00
H1237  H     0.02234   0.45827   0.59268   0.00000  Uiso   1.00
H1238  H     0.06338   0.42901   0.56416   0.00000  Uiso   1.00
C1239  C     0.03403   0.38959   0.61545   0.00000  Uiso   1.00
H1240  H     0.06031   0.36531   0.61863   0.00000  Uiso   1.00
H1241  H     0.01029   0.37513   0.59209   0.00000  Uiso   1.00
H1242  H     0.01997   0.39434   0.64886   0.00000  Uiso   1.00
O1243  O     0.09264   0.48897   0.88065   0.00000  Uiso   1.00
C1244  C     0.07675   0.44454   0.88755   0.00000  Uiso   1.00
H1245  H     0.04406   0.44450   0.87523   0.00000  Uiso   1.00
H1246  H     0.07607   0.43479   0.92356   0.00000  Uiso   1.00
C1247  C     0.10046   0.40847   0.86111   0.00000  Uiso   1.00
H1248  H     0.09964   0.41736   0.82499   0.00000  Uiso   1.00
H1249  H     0.13322   0.40701   0.87327   0.00000  Uiso   1.00
C1250  C     0.08144   0.36143   0.86644   0.00000  Uiso   1.00
H1251  H     0.08033   0.35191   0.90242   0.00000  Uiso   1.00
H1252  H     0.10064   0.33610   0.84862   0.00000  Uiso   1.00
H1253  H     0.04961   0.36067   0.85161   0.00000  Uiso   1.00
O1254  O     0.24056   0.48871   0.61932   0.00000  Uiso   1.00
C1255  C     0.25637   0.44425   0.61234   0.00000  Uiso   1.00
H1256  H     0.28912   0.44418   0.62446   0.00000  Uiso   1.00
H1257  H     0.25686   0.43446   0.57634   0.00000  Uiso   1.00
C1258  C     0.23277   0.40825   0.63896   0.00000  Uiso   1.00
H1259  H     0.23378   0.41717   0.67506   0.00000  Uiso   1.00
H1260  H     0.19994   0.40683   0.62698   0.00000  Uiso   1.00
C1261  C     0.25170   0.36117   0.63353   0.00000  Uiso   1.00
H1262  H     0.25254   0.35160   0.59754   0.00000  Uiso   1.00
H1263  H     0.23259   0.33589   0.65153   0.00000  Uiso   1.00
H1264  H     0.28362   0.36038   0.64809   0.00000  Uiso   1.00
H1265  H     0.06151   0.50764   0.95700   0.00000  Uiso   1.00
H1266  H     0.27171   0.50734   0.54301   0.00000  Uiso   1.00
H1267  H     0.03751   0.42645   0.75503   0.00000  Uiso   1.00
H1268  H     0.29584   0.57337   0.74450   0.00000  Uiso   1.00
H1269  H     0.29600   0.42641   0.75427   0.00000  Uiso   1.00
H1270  H     0.03732   0.57339   0.74493   0.00000  Uiso   1.00
H1271  H     0.21470   0.37559   0.79926   0.00000  Uiso   1.00
H1272  H     0.11864   0.62445   0.70071   0.00000  Uiso   1.00
H1273  H     0.11863   0.37559   0.70073   0.00000  Uiso   1.00
H1274  H     0.21469   0.62445   0.79929   0.00000  Uiso   1.00
C1275  C     0.41993   0.49999   0.75018   0.00000  Uiso   1.00
C1276  C     0.58007   0.49998   0.74971   0.00000  Uiso   1.00
C1277  C     0.42426   0.50764   0.52142   0.00000  Uiso   1.00
C1278  C     0.57562   0.50744   0.97859   0.00000  Uiso   1.00
C1279  C     0.35465   0.45862   0.75266   0.00000  Uiso   1.00
C1280  C     0.64535   0.54119   0.74680   0.00000  Uiso   1.00
C1281  C     0.64544   0.45860   0.75217   0.00000  Uiso   1.00
C1282  C     0.35455   0.54120   0.74710   0.00000  Uiso   1.00
C1283  C     0.62421   0.49991   0.74944   0.00000  Uiso   1.00
C1284  C     0.37579   0.49994   0.75010   0.00000  Uiso   1.00
C1285  C     0.52670   0.35735   0.77740   0.00000  Uiso   1.00
C1286  C     0.47331   0.64267   0.72260   0.00000  Uiso   1.00
C1287  C     0.47330   0.35735   0.72260   0.00000  Uiso   1.00
C1288  C     0.52669   0.64268   0.77740   0.00000  Uiso   1.00
C1289  C     0.49989   0.49987   0.66353   0.00000  Uiso   1.00
C1290  C     0.50004   0.49988   0.83647   0.00000  Uiso   1.00
C1291  C     0.53826   0.50107   0.90752   0.00000  Uiso   1.00
C1292  C     0.46162   0.50115   0.59251   0.00000  Uiso   1.00
C1293  C     0.50016   0.49923   0.88415   0.00000  Uiso   1.00
C1294  C     0.49973   0.49919   0.61586   0.00000  Uiso   1.00
C1295  C     0.46222   0.49562   0.90587   0.00000  Uiso   1.00
C1296  C     0.53765   0.49546   0.59412   0.00000  Uiso   1.00
C1297  C     0.46182   0.50147   0.95236   0.00000  Uiso   1.00
C1298  C     0.53805   0.50135   0.54764   0.00000  Uiso   1.00
C1299  C     0.49997   0.50341   0.97657   0.00000  Uiso   1.00
C1300  C     0.49990   0.50339   0.52344   0.00000  Uiso   1.00
C1301  C     0.53822   0.50399   0.95408   0.00000  Uiso   1.00
C1302  C     0.46165   0.50407   0.54594   0.00000  Uiso   1.00
C1303  C     0.42430   0.50591   0.97502   0.00000  Uiso   1.00
C1304  C     0.57558   0.50570   0.52499   0.00000  Uiso   1.00
H1305  H     0.39474   0.51068   0.53795   0.00000  Uiso   1.00
H1306  H     0.60515   0.51041   0.96207   0.00000  Uiso   1.00
N1307  N     0.50000   0.61907   0.75000   0.00000  Uiso   1.00
N1308  N     0.50000   0.38093   0.75000   0.00000  Uiso   1.00
O1309  O     0.43892   0.53821   0.75000   0.00000  Uiso   1.00
O1310  O     0.56108   0.46179   0.75000   0.00000  Uiso   1.00
O1311  O     0.56108   0.53821   0.75001   0.00000  Uiso   1.00
O1312  O     0.43892   0.46179   0.75000   0.00000  Uiso   1.00
O1313  O     0.49999   0.53823   0.68393   0.00000  Uiso   1.00
O1314  O     0.50001   0.46177   0.81608   0.00000  Uiso   1.00
O1315  O     0.50001   0.53823   0.81608   0.00000  Uiso   1.00
O1316  O     0.49999   0.46177   0.68393   0.00000  Uiso   1.00
Zn1317 Zn    0.50000   0.55104   0.75000   0.00000  Uiso   1.00
Zn1318 Zn    0.50000   0.44896   0.75000   0.00000  Uiso   1.00
O1319  O     0.57548   0.50090   0.88479   0.00000  Uiso   1.00
C1320  C     0.58521   0.45613   0.87091   0.00000  Uiso   1.00
H1321  H     0.59862   0.45846   0.83701   0.00000  Uiso   1.00
H1322  H     0.55787   0.43297   0.86798   0.00000  Uiso   1.00
C1323  C     0.61743   0.43470   0.90268   0.00000  Uiso   1.00
H1324  H     0.64423   0.45809   0.90713   0.00000  Uiso   1.00
H1325  H     0.60339   0.42876   0.93590   0.00000  Uiso   1.00
C1326  C     0.63258   0.38938   0.88445   0.00000  Uiso   1.00
H1327  H     0.60632   0.36506   0.88132   0.00000  Uiso   1.00
H1328  H     0.65639   0.37493   0.90774   0.00000  Uiso   1.00
H1329  H     0.64657   0.39417   0.85101   0.00000  Uiso   1.00
O1330  O     0.42440   0.50118   0.61526   0.00000  Uiso   1.00
C1331  C     0.41451   0.45648   0.62923   0.00000  Uiso   1.00
H1332  H     0.40084   0.45895   0.66300   0.00000  Uiso   1.00
H1333  H     0.44180   0.43331   0.63247   0.00000  Uiso   1.00
C1334  C     0.38251   0.43494   0.59729   0.00000  Uiso   1.00
H1335  H     0.35568   0.45827   0.59268   0.00000  Uiso   1.00
H1336  H     0.39672   0.42901   0.56416   0.00000  Uiso   1.00
C1337  C     0.36737   0.38959   0.61545   0.00000  Uiso   1.00
H1338  H     0.39364   0.36531   0.61863   0.00000  Uiso   1.00
H1339  H     0.34363   0.37513   0.59209   0.00000  Uiso   1.00
H1340  H     0.35330   0.39434   0.64886   0.00000  Uiso   1.00
O1341  O     0.42597   0.48897   0.88065   0.00000  Uiso   1.00
C1342  C     0.41008   0.44454   0.88755   0.00000  Uiso   1.00
H1343  H     0.37740   0.44450   0.87523   0.00000  Uiso   1.00
H1344  H     0.40940   0.43479   0.92356   0.00000  Uiso   1.00
C1345  C     0.43379   0.40847   0.86111   0.00000  Uiso   1.00
H1346  H     0.43297   0.41736   0.82499   0.00000  Uiso   1.00
H1347  H     0.46656   0.40701   0.87327   0.00000  Uiso   1.00
C1348  C     0.41477   0.36143   0.86644   0.00000  Uiso   1.00
H1349  H     0.41367   0.35191   0.90242   0.00000  Uiso   1.00
H1350  H     0.43398   0.33610   0.84862   0.00000  Uiso   1.00
H1351  H     0.38295   0.36067   0.85161   0.00000  Uiso   1.00
O1352  O     0.57389   0.48871   0.61932   0.00000  Uiso   1.00
C1353  C     0.58971   0.44425   0.61234   0.00000  Uiso   1.00
H1354  H     0.62245   0.44418   0.62446   0.00000  Uiso   1.00
H1355  H     0.59019   0.43446   0.57634   0.00000  Uiso   1.00
C1356  C     0.56610   0.40825   0.63896   0.00000  Uiso   1.00
H1357  H     0.56711   0.41717   0.67506   0.00000  Uiso   1.00
H1358  H     0.53327   0.40683   0.62698   0.00000  Uiso   1.00
C1359  C     0.58503   0.36117   0.63353   0.00000  Uiso   1.00
H1360  H     0.58587   0.35160   0.59754   0.00000  Uiso   1.00
H1361  H     0.56592   0.33589   0.65153   0.00000  Uiso   1.00
H1362  H     0.61695   0.36038   0.64809   0.00000  Uiso   1.00
H1363  H     0.39484   0.50764   0.95700   0.00000  Uiso   1.00
H1364  H     0.60504   0.50734   0.54301   0.00000  Uiso   1.00
H1365  H     0.37084   0.42645   0.75503   0.00000  Uiso   1.00
H1366  H     0.62918   0.57337   0.74450   0.00000  Uiso   1.00
H1367  H     0.62933   0.42641   0.75427   0.00000  Uiso   1.00
H1368  H     0.37065   0.57339   0.74493   0.00000  Uiso   1.00
H1369  H     0.54804   0.37559   0.79926   0.00000  Uiso   1.00
H1370  H     0.45198   0.62445   0.70071   0.00000  Uiso   1.00
H1371  H     0.45197   0.37559   0.70073   0.00000  Uiso   1.00
H1372  H     0.54802   0.62445   0.79929   0.00000  Uiso   1.00
C1373  C     0.75327   0.49999   0.75018   0.00000  Uiso   1.00
C1374  C     0.91340   0.49998   0.74971   0.00000  Uiso   1.00
C1375  C     0.75759   0.50764   0.52142   0.00000  Uiso   1.00
C1376  C     0.90896   0.50744   0.97859   0.00000  Uiso   1.00
C1377  C     0.68799   0.45862   0.75266   0.00000  Uiso   1.00
C1378  C     0.97868   0.54119   0.74680   0.00000  Uiso   1.00
C1379  C     0.97877   0.45860   0.75217   0.00000  Uiso   1.00
C1380  C     0.68789   0.54120   0.74710   0.00000  Uiso   1.00
C1381  C     0.95754   0.49991   0.74944   0.00000  Uiso   1.00
C1382  C     0.70912   0.49994   0.75010   0.00000  Uiso   1.00
C1383  C     0.86003   0.35735   0.77740   0.00000  Uiso   1.00
C1384  C     0.80664   0.64267   0.72260   0.00000  Uiso   1.00
C1385  C     0.80664   0.35735   0.72260   0.00000  Uiso   1.00
C1386  C     0.86003   0.64268   0.77740   0.00000  Uiso   1.00
C1387  C     0.83323   0.49987   0.66353   0.00000  Uiso   1.00
C1388  C     0.83338   0.49988   0.83647   0.00000  Uiso   1.00
C1389  C     0.87159   0.50107   0.90752   0.00000  Uiso   1.00
C1390  C     0.79495   0.50115   0.59251   0.00000  Uiso   1.00
C1391  C     0.83349   0.49923   0.88415   0.00000  Uiso   1.00
C1392  C     0.83306   0.49919   0.61586   0.00000  Uiso   1.00
C1393  C     0.79555   0.49562   0.90587   0.00000  Uiso   1.00
C1394  C     0.87098   0.49546   0.59412   0.00000  Uiso   1.00
C1395  C     0.79515   0.50147   0.95236   0.00000  Uiso   1.00
C1396  C     0.87138   0.50135   0.54764   0.00000  Uiso   1.00
C1397  C     0.83331   0.50341   0.97657   0.00000  Uiso   1.00
C1398  C     0.83323   0.50339   0.52344   0.00000  Uiso   1.00
C1399  C     0.87155   0.50399   0.95408   0.00000  Uiso   1.00
C1400  C     0.79499   0.50407   0.54594   0.00000  Uiso   1.00
C1401  C     0.75764   0.50591   0.97502   0.00000  Uiso   1.00
C1402  C     0.90891   0.50570   0.52499   0.00000  Uiso   1.00
H1403  H     0.72808   0.51068   0.53795   0.00000  Uiso   1.00
H1404  H     0.93848   0.51041   0.96207   0.00000  Uiso   1.00
N1405  N     0.83333   0.61907   0.75000   0.00000  Uiso   1.00
N1406  N     0.83333   0.38093   0.75000   0.00000  Uiso   1.00
O1407  O     0.77226   0.53821   0.75000   0.00000  Uiso   1.00
O1408  O     0.89441   0.46179   0.75000   0.00000  Uiso   1.00
O1409  O     0.89441   0.53821   0.75001   0.00000  Uiso   1.00
O1410  O     0.77226   0.46179   0.75000   0.00000  Uiso   1.00
O1411  O     0.83333   0.53823   0.68393   0.00000  Uiso   1.00
O1412  O     0.83334   0.46177   0.81608   0.00000  Uiso   1.00
O1413  O     0.83334   0.53823   0.81608   0.00000  Uiso   1.00
O1414  O     0.83333   0.46177   0.68393   0.00000  Uiso   1.00
Zn1415 Zn    0.83333   0.55104   0.75000   0.00000  Uiso   1.00
Zn1416 Zn    0.83333   0.44896   0.75000   0.00000  Uiso   1.00
O1417  O     0.90881   0.50090   0.88479   0.00000  Uiso   1.00
C1418  C     0.91854   0.45613   0.87091   0.00000  Uiso   1.00
H1419  H     0.93196   0.45846   0.83701   0.00000  Uiso   1.00
H1420  H     0.89121   0.43297   0.86798   0.00000  Uiso   1.00
C1421  C     0.95076   0.43470   0.90268   0.00000  Uiso   1.00
H1422  H     0.97756   0.45809   0.90713   0.00000  Uiso   1.00
H1423  H     0.93672   0.42876   0.93590   0.00000  Uiso   1.00
C1424  C     0.96591   0.38938   0.88445   0.00000  Uiso   1.00
H1425  H     0.93966   0.36506   0.88132   0.00000  Uiso   1.00
H1426  H     0.98973   0.37493   0.90774   0.00000  Uiso   1.00
H1427  H     0.97990   0.39417   0.85101   0.00000  Uiso   1.00
O1428  O     0.75773   0.50118   0.61526   0.00000  Uiso   1.00
C1429  C     0.74785   0.45648   0.62923   0.00000  Uiso   1.00
H1430  H     0.73417   0.45895   0.66300   0.00000  Uiso   1.00
H1431  H     0.77514   0.43331   0.63247   0.00000  Uiso   1.00
C1432  C     0.71584   0.43494   0.59729   0.00000  Uiso   1.00
H1433  H     0.68901   0.45827   0.59268   0.00000  Uiso   1.00
H1434  H     0.73005   0.42901   0.56416   0.00000  Uiso   1.00
C1435  C     0.70070   0.38959   0.61545   0.00000  Uiso   1.00
H1436  H     0.72697   0.36531   0.61863   0.00000  Uiso   1.00
H1437  H     0.67696   0.37513   0.59209   0.00000  Uiso   1.00
H1438  H     0.68663   0.39434   0.64886   0.00000  Uiso   1.00
O1439  O     0.75931   0.48897   0.88065   0.00000  Uiso   1.00
C1440  C     0.74342   0.44454   0.88755   0.00000  Uiso   1.00
H1441  H     0.71073   0.44450   0.87523   0.00000  Uiso   1.00
H1442  H     0.74273   0.43479   0.92356   0.00000  Uiso   1.00
C1443  C     0.76712   0.40847   0.86111   0.00000  Uiso   1.00
H1444  H     0.76630   0.41736   0.82499   0.00000  Uiso   1.00
H1445  H     0.79989   0.40701   0.87327   0.00000  Uiso   1.00
C1446  C     0.74810   0.36143   0.86644   0.00000  Uiso   1.00
H1447  H     0.74700   0.35191   0.90242   0.00000  Uiso   1.00
H1448  H     0.76731   0.33610   0.84862   0.00000  Uiso   1.00
H1449  H     0.71628   0.36067   0.85161   0.00000  Uiso   1.00
O1450  O     0.90723   0.48871   0.61932   0.00000  Uiso   1.00
C1451  C     0.92304   0.44425   0.61234   0.00000  Uiso   1.00
H1452  H     0.95578   0.44418   0.62446   0.00000  Uiso   1.00
H1453  H     0.92352   0.43446   0.57634   0.00000  Uiso   1.00
C1454  C     0.89943   0.40825   0.63896   0.00000  Uiso   1.00
H1455  H     0.90044   0.41717   0.67506   0.00000  Uiso   1.00
H1456  H     0.86660   0.40683   0.62698   0.00000  Uiso   1.00
C1457  C     0.91836   0.36117   0.63353   0.00000  Uiso   1.00
H1458  H     0.91920   0.35160   0.59754   0.00000  Uiso   1.00
H1459  H     0.89926   0.33589   0.65153   0.00000  Uiso   1.00
H1460  H     0.95029   0.36038   0.64809   0.00000  Uiso   1.00
H1461  H     0.72817   0.50764   0.95700   0.00000  Uiso   1.00
H1462  H     0.93838   0.50734   0.54301   0.00000  Uiso   1.00
H1463  H     0.70417   0.42645   0.75503   0.00000  Uiso   1.00
H1464  H     0.96251   0.57337   0.74450   0.00000  Uiso   1.00
H1465  H     0.96266   0.42641   0.75427   0.00000  Uiso   1.00
H1466  H     0.70398   0.57339   0.74493   0.00000  Uiso   1.00
H1467  H     0.88137   0.37559   0.79926   0.00000  Uiso   1.00
H1468  H     0.78531   0.62445   0.70071   0.00000  Uiso   1.00
H1469  H     0.78530   0.37559   0.70073   0.00000  Uiso   1.00
H1470  H     0.88136   0.62445   0.79929   0.00000  Uiso   1.00
C1471  C     0.08660   0.83332   0.75018   0.00000  Uiso   1.00
C1472  C     0.24673   0.83332   0.74971   0.00000  Uiso   1.00
C1473  C     0.09093   0.84097   0.52142   0.00000  Uiso   1.00
C1474  C     0.24229   0.84077   0.97859   0.00000  Uiso   1.00
C1475  C     0.02132   0.79195   0.75266   0.00000  Uiso   1.00
C1476  C     0.31202   0.87452   0.74680   0.00000  Uiso   1.00
C1477  C     0.31211   0.79193   0.75217   0.00000  Uiso   1.00
C1478  C     0.02122   0.87454   0.74710   0.00000  Uiso   1.00
C1479  C     0.29088   0.83324   0.74944   0.00000  Uiso   1.00
C1480  C     0.04245   0.83327   0.75010   0.00000  Uiso   1.00
C1481  C     0.19336   0.69069   0.77740   0.00000  Uiso   1.00
C1482  C     0.13997   0.97601   0.72260   0.00000  Uiso   1.00
C1483  C     0.13997   0.69068   0.72260   0.00000  Uiso   1.00
C1484  C     0.19336   0.97601   0.77740   0.00000  Uiso   1.00
C1485  C     0.16656   0.83320   0.66353   0.00000  Uiso   1.00
C1486  C     0.16671   0.83321   0.83647   0.00000  Uiso   1.00
C1487  C     0.20492   0.83441   0.90752   0.00000  Uiso   1.00
C1488  C     0.12828   0.83448   0.59251   0.00000  Uiso   1.00
C1489  C     0.16682   0.83256   0.88415   0.00000  Uiso   1.00
C1490  C     0.16640   0.83253   0.61586   0.00000  Uiso   1.00
C1491  C     0.12889   0.82895   0.90587   0.00000  Uiso   1.00
C1492  C     0.20431   0.82879   0.59412   0.00000  Uiso   1.00
C1493  C     0.12849   0.83481   0.95236   0.00000  Uiso   1.00
C1494  C     0.20472   0.83468   0.54764   0.00000  Uiso   1.00
C1495  C     0.16664   0.83674   0.97657   0.00000  Uiso   1.00
C1496  C     0.16656   0.83673   0.52344   0.00000  Uiso   1.00
C1497  C     0.20489   0.83733   0.95408   0.00000  Uiso   1.00
C1498  C     0.12832   0.83741   0.54594   0.00000  Uiso   1.00
C1499  C     0.09097   0.83924   0.97502   0.00000  Uiso   1.00
C1500  C     0.24224   0.83903   0.52499   0.00000  Uiso   1.00
H1501  H     0.06141   0.84402   0.53795   0.00000  Uiso   1.00
H1502  H     0.27181   0.84375   0.96207   0.00000  Uiso   1.00
N1503  N     0.16667   0.95240   0.75000   0.00000  Uiso   1.00
N1504  N     0.16667   0.71427   0.75000   0.00000  Uiso   1.00
O1505  O     0.10559   0.87154   0.75000   0.00000  Uiso   1.00
O1506  O     0.22774   0.79513   0.75000   0.00000  Uiso   1.00
O1507  O     0.22774   0.87154   0.75001   0.00000  Uiso   1.00
O1508  O     0.10559   0.79513   0.75000   0.00000  Uiso   1.00
O1509  O     0.16666   0.87156   0.68393   0.00000  Uiso   1.00
O1510  O     0.16667   0.79511   0.81608   0.00000  Uiso   1.00
O1511  O     0.16667   0.87156   0.81608   0.00000  Uiso   1.00
O1512  O     0.16666   0.79511   0.68393   0.00000  Uiso   1.00
Zn1513 Zn    0.16667   0.88437   0.75000   0.00000  Uiso   1.00
Zn1514 Zn    0.16667   0.78229   0.75000   0.00000  Uiso   1.00
O1515  O     0.24215   0.83424   0.88479   0.00000  Uiso   1.00
C1516  C     0.25187   0.78946   0.87091   0.00000  Uiso   1.00
H1517  H     0.26529   0.79179   0.83701   0.00000  Uiso   1.00
H1518  H     0.22454   0.76630   0.86798   0.00000  Uiso   1.00
C1519  C     0.28409   0.76803   0.90268   0.00000  Uiso   1.00
H1520  H     0.31089   0.79142   0.90713   0.00000  Uiso   1.00
H1521  H     0.27006   0.76209   0.93590   0.00000  Uiso   1.00
C1522  C     0.29925   0.72271   0.88445   0.00000  Uiso   1.00
H1523  H     0.27299   0.69839   0.88132   0.00000  Uiso   1.00
H1524  H     0.32306   0.70826   0.90774   0.00000  Uiso   1.00
H1525  H     0.31324   0.72750   0.85101   0.00000  Uiso   1.00
O1526  O     0.09107   0.83451   0.61526   0.00000  Uiso   1.00
C1527  C     0.08118   0.78981   0.62923   0.00000  Uiso   1.00
H1528  H     0.06750   0.79229   0.66300   0.00000  Uiso   1.00
H1529  H     0.10847   0.76665   0.63247   0.00000  Uiso   1.00
C1530  C     0.04917   0.76828   0.59729   0.00000  Uiso   1.00
H1531  H     0.02234   0.79160   0.59268   0.00000  Uiso   1.00
H1532  H     0.06338   0.76234   0.56416   0.00000  Uiso   1.00
C1533  C     0.03403   0.72293   0.61545   0.00000  Uiso   1.00
H1534  H     0.06031   0.69864   0.61863   0.00000  Uiso   1.00
H1535  H     0.01029   0.70846   0.59209   0.00000  Uiso   1.00
H1536  H     0.01997   0.72767   0.64886   0.00000  Uiso   1.00
O1537  O     0.09264   0.82231   0.88065   0.00000  Uiso   1.00
C1538  C     0.07675   0.77787   0.88755   0.00000  Uiso   1.00
H1539  H     0.04406   0.77783   0.87523   0.00000  Uiso   1.00
H1540  H     0.07607   0.76813   0.92356   0.00000  Uiso   1.00
C1541  C     0.10046   0.74181   0.86111   0.00000  Uiso   1.00
H1542  H     0.09964   0.75069   0.82499   0.00000  Uiso   1.00
H1543  H     0.13322   0.74034   0.87327   0.00000  Uiso   1.00
C1544  C     0.08144   0.69476   0.86644   0.00000  Uiso   1.00
H1545  H     0.08033   0.68524   0.90242   0.00000  Uiso   1.00
H1546  H     0.10064   0.66944   0.84862   0.00000  Uiso   1.00
H1547  H     0.04961   0.69400   0.85161   0.00000  Uiso   1.00
O1548  O     0.24056   0.82204   0.61932   0.00000  Uiso   1.00
C1549  C     0.25637   0.77758   0.61234   0.00000  Uiso   1.00
H1550  H     0.28912   0.77751   0.62446   0.00000  Uiso   1.00
H1551  H     0.25686   0.76779   0.57634   0.00000  Uiso   1.00
C1552  C     0.23277   0.74158   0.63896   0.00000  Uiso   1.00
H1553  H     0.23378   0.75050   0.67506   0.00000  Uiso   1.00
H1554  H     0.19994   0.74016   0.62698   0.00000  Uiso   1.00
C1555  C     0.25170   0.69450   0.63353   0.00000  Uiso   1.00
H1556  H     0.25254   0.68493   0.59754   0.00000  Uiso   1.00
H1557  H     0.23259   0.66923   0.65153   0.00000  Uiso   1.00
H1558  H     0.28362   0.69371   0.64809   0.00000  Uiso   1.00
H1559  H     0.06151   0.84097   0.95700   0.00000  Uiso   1.00
H1560  H     0.27171   0.84067   0.54301   0.00000  Uiso   1.00
H1561  H     0.03751   0.75978   0.75503   0.00000  Uiso   1.00
H1562  H     0.29584   0.90670   0.74450   0.00000  Uiso   1.00
H1563  H     0.29600   0.75974   0.75427   0.00000  Uiso   1.00
H1564  H     0.03732   0.90673   0.74493   0.00000  Uiso   1.00
H1565  H     0.21470   0.70893   0.79926   0.00000  Uiso   1.00
H1566  H     0.11864   0.95778   0.70071   0.00000  Uiso   1.00
H1567  H     0.11863   0.70892   0.70073   0.00000  Uiso   1.00
H1568  H     0.21469   0.95779   0.79929   0.00000  Uiso   1.00
C1569  C     0.41993   0.83332   0.75018   0.00000  Uiso   1.00
C1570  C     0.58007   0.83332   0.74971   0.00000  Uiso   1.00
C1571  C     0.42426   0.84097   0.52142   0.00000  Uiso   1.00
C1572  C     0.57562   0.84077   0.97859   0.00000  Uiso   1.00
C1573  C     0.35465   0.79195   0.75266   0.00000  Uiso   1.00
C1574  C     0.64535   0.87452   0.74680   0.00000  Uiso   1.00
C1575  C     0.64544   0.79193   0.75217   0.00000  Uiso   1.00
C1576  C     0.35455   0.87454   0.74710   0.00000  Uiso   1.00
C1577  C     0.62421   0.83324   0.74944   0.00000  Uiso   1.00
C1578  C     0.37579   0.83327   0.75010   0.00000  Uiso   1.00
C1579  C     0.52670   0.69069   0.77740   0.00000  Uiso   1.00
C1580  C     0.47331   0.97601   0.72260   0.00000  Uiso   1.00
C1581  C     0.47330   0.69068   0.72260   0.00000  Uiso   1.00
C1582  C     0.52669   0.97601   0.77740   0.00000  Uiso   1.00
C1583  C     0.49989   0.83320   0.66353   0.00000  Uiso   1.00
C1584  C     0.50004   0.83321   0.83647   0.00000  Uiso   1.00
C1585  C     0.53826   0.83441   0.90752   0.00000  Uiso   1.00
C1586  C     0.46162   0.83448   0.59251   0.00000  Uiso   1.00
C1587  C     0.50016   0.83256   0.88415   0.00000  Uiso   1.00
C1588  C     0.49973   0.83253   0.61586   0.00000  Uiso   1.00
C1589  C     0.46222   0.82895   0.90587   0.00000  Uiso   1.00
C1590  C     0.53765   0.82879   0.59412   0.00000  Uiso   1.00
C1591  C     0.46182   0.83481   0.95236   0.00000  Uiso   1.00
C1592  C     0.53805   0.83468   0.54764   0.00000  Uiso   1.00
C1593  C     0.49997   0.83674   0.97657   0.00000  Uiso   1.00
C1594  C     0.49990   0.83673   0.52344   0.00000  Uiso   1.00
C1595  C     0.53822   0.83733   0.95408   0.00000  Uiso   1.00
C1596  C     0.46165   0.83741   0.54594   0.00000  Uiso   1.00
C1597  C     0.42430   0.83924   0.97502   0.00000  Uiso   1.00
C1598  C     0.57558   0.83903   0.52499   0.00000  Uiso   1.00
H1599  H     0.39474   0.84402   0.53795   0.00000  Uiso   1.00
H1600  H     0.60515   0.84375   0.96207   0.00000  Uiso   1.00
N1601  N     0.50000   0.95240   0.75000   0.00000  Uiso   1.00
N1602  N     0.50000   0.71427   0.75000   0.00000  Uiso   1.00
O1603  O     0.43892   0.87154   0.75000   0.00000  Uiso   1.00
O1604  O     0.56108   0.79513   0.75000   0.00000  Uiso   1.00
O1605  O     0.56108   0.87154   0.75001   0.00000  Uiso   1.00
O1606  O     0.43892   0.79513   0.75000   0.00000  Uiso   1.00
O1607  O     0.49999   0.87156   0.68393   0.00000  Uiso   1.00
O1608  O     0.50001   0.79511   0.81608   0.00000  Uiso   1.00
O1609  O     0.50001   0.87156   0.81608   0.00000  Uiso   1.00
O1610  O     0.49999   0.79511   0.68393   0.00000  Uiso   1.00
Zn1611 Zn    0.50000   0.88437   0.75000   0.00000  Uiso   1.00
Zn1612 Zn    0.50000   0.78229   0.75000   0.00000  Uiso   1.00
O1613  O     0.57548   0.83424   0.88479   0.00000  Uiso   1.00
C1614  C     0.58521   0.78946   0.87091   0.00000  Uiso   1.00
H1615  H     0.59862   0.79179   0.83701   0.00000  Uiso   1.00
H1616  H     0.55787   0.76630   0.86798   0.00000  Uiso   1.00
C1617  C     0.61743   0.76803   0.90268   0.00000  Uiso   1.00
H1618  H     0.64423   0.79142   0.90713   0.00000  Uiso   1.00
H1619  H     0.60339   0.76209   0.93590   0.00000  Uiso   1.00
C1620  C     0.63258   0.72271   0.88445   0.00000  Uiso   1.00
H1621  H     0.60632   0.69839   0.88132   0.00000  Uiso   1.00
H1622  H     0.65639   0.70826   0.90774   0.00000  Uiso   1.00
H1623  H     0.64657   0.72750   0.85101   0.00000  Uiso   1.00
O1624  O     0.42440   0.83451   0.61526   0.00000  Uiso   1.00
C1625  C     0.41451   0.78981   0.62923   0.00000  Uiso   1.00
H1626  H     0.40084   0.79229   0.66300   0.00000  Uiso   1.00
H1627  H     0.44180   0.76665   0.63247   0.00000  Uiso   1.00
C1628  C     0.38251   0.76828   0.59729   0.00000  Uiso   1.00
H1629  H     0.35568   0.79160   0.59268   0.00000  Uiso   1.00
H1630  H     0.39672   0.76234   0.56416   0.00000  Uiso   1.00
C1631  C     0.36737   0.72293   0.61545   0.00000  Uiso   1.00
H1632  H     0.39364   0.69864   0.61863   0.00000  Uiso   1.00
H1633  H     0.34363   0.70846   0.59209   0.00000  Uiso   1.00
H1634  H     0.35330   0.72767   0.64886   0.00000  Uiso   1.00
O1635  O     0.42597   0.82231   0.88065   0.00000  Uiso   1.00
C1636  C     0.41008   0.77787   0.88755   0.00000  Uiso   1.00
H1637  H     0.37740   0.77783   0.87523   0.00000  Uiso   1.00
H1638  H     0.40940   0.76813   0.92356   0.00000  Uiso   1.00
C1639  C     0.43379   0.74181   0.86111   0.00000  Uiso   1.00
H1640  H     0.43297   0.75069   0.82499   0.00000  Uiso   1.00
H1641  H     0.46656   0.74034   0.87327   0.00000  Uiso   1.00
C1642  C     0.41477   0.69476   0.86644   0.00000  Uiso   1.00
H1643  H     0.41367   0.68524   0.90242   0.00000  Uiso   1.00
H1644  H     0.43398   0.66944   0.84862   0.00000  Uiso   1.00
H1645  H     0.38295   0.69400   0.85161   0.00000  Uiso   1.00
O1646  O     0.57389   0.82204   0.61932   0.00000  Uiso   1.00
C1647  C     0.58971   0.77758   0.61234   0.00000  Uiso   1.00
H1648  H     0.62245   0.77751   0.62446   0.00000  Uiso   1.00
H1649  H     0.59019   0.76779   0.57634   0.00000  Uiso   1.00
C1650  C     0.56610   0.74158   0.63896   0.00000  Uiso   1.00
H1651  H     0.56711   0.75050   0.67506   0.00000  Uiso   1.00
H1652  H     0.53327   0.74016   0.62698   0.00000  Uiso   1.00
C1653  C     0.58503   0.69450   0.63353   0.00000  Uiso   1.00
H1654  H     0.58587   0.68493   0.59754   0.00000  Uiso   1.00
H1655  H     0.56592   0.66923   0.65153   0.00000  Uiso   1.00
H1656  H     0.61695   0.69371   0.64809   0.00000  Uiso   1.00
H1657  H     0.39484   0.84097   0.95700   0.00000  Uiso   1.00
H1658  H     0.60504   0.84067   0.54301   0.00000  Uiso   1.00
H1659  H     0.37084   0.75978   0.75503   0.00000  Uiso   1.00
H1660  H     0.62918   0.90670   0.74450   0.00000  Uiso   1.00
H1661  H     0.62933   0.75974   0.75427   0.00000  Uiso   1.00
H1662  H     0.37065   0.90673   0.74493   0.00000  Uiso   1.00
H1663  H     0.54804   0.70893   0.79926   0.00000  Uiso   1.00
H1664  H     0.45198   0.95778   0.70071   0.00000  Uiso   1.00
H1665  H     0.45197   0.70892   0.70073   0.00000  Uiso   1.00
H1666  H     0.54802   0.95779   0.79929   0.00000  Uiso   1.00
C1667  C     0.75327   0.83332   0.75018   0.00000  Uiso   1.00
C1668  C     0.91340   0.83332   0.74971   0.00000  Uiso   1.00
C1669  C     0.75759   0.84097   0.52142   0.00000  Uiso   1.00
C1670  C     0.90896   0.84077   0.97859   0.00000  Uiso   1.00
C1671  C     0.68799   0.79195   0.75266   0.00000  Uiso   1.00
C1672  C     0.97868   0.87452   0.74680   0.00000  Uiso   1.00
C1673  C     0.97877   0.79193   0.75217   0.00000  Uiso   1.00
C1674  C     0.68789   0.87454   0.74710   0.00000  Uiso   1.00
C1675  C     0.95754   0.83324   0.74944   0.00000  Uiso   1.00
C1676  C     0.70912   0.83327   0.75010   0.00000  Uiso   1.00
C1677  C     0.86003   0.69069   0.77740   0.00000  Uiso   1.00
C1678  C     0.80664   0.97601   0.72260   0.00000  Uiso   1.00
C1679  C     0.80664   0.69068   0.72260   0.00000  Uiso   1.00
C1680  C     0.86003   0.97601   0.77740   0.00000  Uiso   1.00
C1681  C     0.83323   0.83320   0.66353   0.00000  Uiso   1.00
C1682  C     0.83338   0.83321   0.83647   0.00000  Uiso   1.00
C1683  C     0.87159   0.83441   0.90752   0.00000  Uiso   1.00
C1684  C     0.79495   0.83448   0.59251   0.00000  Uiso   1.00
C1685  C     0.83349   0.83256   0.88415   0.00000  Uiso   1.00
C1686  C     0.83306   0.83253   0.61586   0.00000  Uiso   1.00
C1687  C     0.79555   0.82895   0.90587   0.00000  Uiso   1.00
C1688  C     0.87098   0.82879   0.59412   0.00000  Uiso   1.00
C1689  C     0.79515   0.83481   0.95236   0.00000  Uiso   1.00
C1690  C     0.87138   0.83468   0.54764   0.00000  Uiso   1.00
C1691  C     0.83331   0.83674   0.97657   0.00000  Uiso   1.00
C1692  C     0.83323   0.83673   0.52344   0.00000  Uiso   1.00
C1693  C     0.87155   0.83733   0.95408   0.00000  Uiso   1.00
C1694  C     0.79499   0.83741   0.54594   0.00000  Uiso   1.00
C1695  C     0.75764   0.83924   0.97502   0.00000  Uiso   1.00
C1696  C     0.90891   0.83903   0.52499   0.00000  Uiso   1.00
H1697  H     0.72808   0.84402   0.53795   0.00000  Uiso   1.00
H1698  H     0.93848   0.84375   0.96207   0.00000  Uiso   1.00
N1699  N     0.83333   0.95240   0.75000   0.00000  Uiso   1.00
N1700  N     0.83333   0.71427   0.75000   0.00000  Uiso   1.00
O1701  O     0.77226   0.87154   0.75000   0.00000  Uiso   1.00
O1702  O     0.89441   0.79513   0.75000   0.00000  Uiso   1.00
O1703  O     0.89441   0.87154   0.75001   0.00000  Uiso   1.00
O1704  O     0.77226   0.79513   0.75000   0.00000  Uiso   1.00
O1705  O     0.83333   0.87156   0.68393   0.00000  Uiso   1.00
O1706  O     0.83334   0.79511   0.81608   0.00000  Uiso   1.00
O1707  O     0.83334   0.87156   0.81608   0.00000  Uiso   1.00
O1708  O     0.83333   0.79511   0.68393   0.00000  Uiso   1.00
Zn1709 Zn    0.83333   0.88437   0.75000   0.00000  Uiso   1.00
Zn1710 Zn    0.83333   0.78229   0.75000   0.00000  Uiso   1.00
O1711  O     0.90881   0.83424   0.88479   0.00000  Uiso   1.00
C1712  C     0.91854   0.78946   0.87091   0.00000  Uiso   1.00
H1713  H     0.93196   0.79179   0.83701   0.00000  Uiso   1.00
H1714  H     0.89121   0.76630   0.86798   0.00000  Uiso   1.00
C1715  C     0.95076   0.76803   0.90268   0.00000  Uiso   1.00
H1716  H     0.97756   0.79142   0.90713   0.00000  Uiso   1.00
H1717  H     0.93672   0.76209   0.93590   0.00000  Uiso   1.00
C1718  C     0.96591   0.72271   0.88445   0.00000  Uiso   1.00
H1719  H     0.93966   0.69839   0.88132   0.00000  Uiso   1.00
H1720  H     0.98973   0.70826   0.90774   0.00000  Uiso   1.00
H1721  H     0.97990   0.72750   0.85101   0.00000  Uiso   1.00
O1722  O     0.75773   0.83451   0.61526   0.00000  Uiso   1.00
C1723  C     0.74785   0.78981   0.62923   0.00000  Uiso   1.00
H1724  H     0.73417   0.79229   0.66300   0.00000  Uiso   1.00
H1725  H     0.77514   0.76665   0.63247   0.00000  Uiso   1.00
C1726  C     0.71584   0.76828   0.59729   0.00000  Uiso   1.00
H1727  H     0.68901   0.79160   0.59268   0.00000  Uiso   1.00
H1728  H     0.73005   0.76234   0.56416   0.00000  Uiso   1.00
C1729  C     0.70070   0.72293   0.61545   0.00000  Uiso   1.00
H1730  H     0.72697   0.69864   0.61863   0.00000  Uiso   1.00
H1731  H     0.67696   0.70846   0.59209   0.00000  Uiso   1.00
H1732  H     0.68663   0.72767   0.64886   0.00000  Uiso   1.00
O1733  O     0.75931   0.82231   0.88065   0.00000  Uiso   1.00
C1734  C     0.74342   0.77787   0.88755   0.00000  Uiso   1.00
H1735  H     0.71073   0.77783   0.87523   0.00000  Uiso   1.00
H1736  H     0.74273   0.76813   0.92356   0.00000  Uiso   1.00
C1737  C     0.76712   0.74181   0.86111   0.00000  Uiso   1.00
H1738  H     0.76630   0.75069   0.82499   0.00000  Uiso   1.00
H1739  H     0.79989   0.74034   0.87327   0.00000  Uiso   1.00
C1740  C     0.74810   0.69476   0.86644   0.00000  Uiso   1.00
H1741  H     0.74700   0.68524   0.90242   0.00000  Uiso   1.00
H1742  H     0.76731   0.66944   0.84862   0.00000  Uiso   1.00
H1743  H     0.71628   0.69400   0.85161   0.00000  Uiso   1.00
O1744  O     0.90723   0.82204   0.61932   0.00000  Uiso   1.00
C1745  C     0.92304   0.77758   0.61234   0.00000  Uiso   1.00
H1746  H     0.95578   0.77751   0.62446   0.00000  Uiso   1.00
H1747  H     0.92352   0.76779   0.57634   0.00000  Uiso   1.00
C1748  C     0.89943   0.74158   0.63896   0.00000  Uiso   1.00
H1749  H     0.90044   0.75050   0.67506   0.00000  Uiso   1.00
H1750  H     0.86660   0.74016   0.62698   0.00000  Uiso   1.00
C1751  C     0.91836   0.69450   0.63353   0.00000  Uiso   1.00
H1752  H     0.91920   0.68493   0.59754   0.00000  Uiso   1.00
H1753  H     0.89926   0.66923   0.65153   0.00000  Uiso   1.00
H1754  H     0.95029   0.69371   0.64809   0.00000  Uiso   1.00
H1755  H     0.72817   0.84097   0.95700   0.00000  Uiso   1.00
H1756  H     0.93838   0.84067   0.54301   0.00000  Uiso   1.00
H1757  H     0.70417   0.75978   0.75503   0.00000  Uiso   1.00
H1758  H     0.96251   0.90670   0.74450   0.00000  Uiso   1.00
H1759  H     0.96266   0.75974   0.75427   0.00000  Uiso   1.00
H1760  H     0.70398   0.90673   0.74493   0.00000  Uiso   1.00
H1761  H     0.88137   0.70893   0.79926   0.00000  Uiso   1.00
H1762  H     0.78531   0.95778   0.70071   0.00000  Uiso   1.00
H1763  H     0.78530   0.70892   0.70073   0.00000  Uiso   1.00
H1764  H     0.88136   0.95779   0.79929   0.00000  Uiso   1.00
loop_
_geom_bond_atom_site_label_1
_geom_bond_atom_site_label_2
_geom_bond_distance
_geom_bond_site_symmetry_2
_ccdc_geom_bond_type
C1     O38     1.281   .     A
C1     O35     1.282   .     A
C1     C10     1.422   .     S
C2     O36     1.281   .     A
C2     O37     1.282   .     A
C2     C9      1.422   .     S
C3     C28     1.402   .     A
C3     H31     1.083   .     S
C3     C911    1.385   1_554 S
C4     H32     1.083   .     S
C4     C27     1.402   .     A
C4     C912    1.385   .     S
C5     C10     1.398   .     A
C5     H91     1.084   .     S
C5     C203    1.370   1_455 S
C6     C9      1.397   .     A
C6     H92     1.084   .     S
C6     C106    1.370   .     S
C7     H93     1.084   .     S
C7     C9      1.398   .     A
C7     C103    1.370   .     S
C8     H94     1.084   .     S
C8     C10     1.397   .     A
C8     C202    1.370   1_455 S
C11    H95     1.082   .     S
C11    N34     1.366   .     A
C11    C602    1.415   1_545 S
C12    H96     1.082   .     S
C12    N33     1.366   .     A
C12    C307    1.415   .     S
C13    N34     1.366   .     A
C13    H97     1.082   .     S
C13    C600    1.415   1_545 S
C14    N33     1.366   .     A
C14    H98     1.082   .     S
C14    C305    1.415   .     S
C15    C20     1.422   .     S
C15    O39     1.284   .     A
C15    O42     1.277   .     A
C16    C19     1.422   .     S
C16    O40     1.277   .     A
C16    O41     1.284   .     A
C17    O45     1.388   .     S
C17    C27     1.392   .     A
C17    C19     1.401   .     A
C18    C28     1.392   .     A
C18    O56     1.388   .     S
C18    C20     1.402   .     A
C19    C21     1.398   .     A
C20    C22     1.397   .     A
C21    O67     1.391   .     S
C21    C23     1.398   .     A
C22    O78     1.391   .     S
C22    C24     1.398   .     A
C23    C29     1.401   .     A
C23    C25     1.415   .     A
C24    C26     1.415   .     A
C24    C30     1.401   .     A
C25    C27     1.414   .     A
C25    C908    1.398   .     S
C26    C28     1.414   .     A
C26    C907    1.398   1_554 S
C29    H89     1.083   .     S
C29    C885    1.385   .     S
C30    H90     1.083   .     S
C30    C886    1.385   1_554 S
N33    Zn43    2.005   .     S
N34    Zn44    2.005   .     S
O35    Zn43    2.003   .     S
O36    Zn44    2.003   .     S
O37    Zn43    2.003   .     S
O38    Zn44    2.003   .     S
O39    Zn43    2.007   .     S
O40    Zn44    2.007   .     S
O41    Zn43    2.007   .     S
O42    Zn44    2.007   .     S
O45    C46     1.420   .     S
C46    C49     1.529   .     S
C46    H48     1.116   .     S
C46    H47     1.109   .     S
C49    H51     1.111   .     S
C49    C52     1.526   .     S
C49    H50     1.111   .     S
C52    H55     1.111   .     S
C52    H54     1.110   .     S
C52    H53     1.111   .     S
O56    C57     1.420   .     S
C57    H59     1.116   .     S
C57    C60     1.529   .     S
C57    H58     1.109   .     S
C60    C63     1.526   .     S
C60    H62     1.110   .     S
C60    H61     1.111   .     S
C63    H65     1.110   .     S
C63    H66     1.111   .     S
C63    H64     1.111   .     S
O67    C68     1.422   .     S
C68    H69     1.109   .     S
C68    H70     1.112   .     S
C68    C71     1.535   .     S
C71    C74     1.525   .     S
C71    H72     1.108   .     S
C71    H73     1.111   .     S
C74    H76     1.111   .     S
C74    H77     1.109   .     S
C74    H75     1.111   .     S
O78    C79     1.422   .     S
C79    H80     1.109   .     S
C79    H81     1.112   .     S
C79    C82     1.535   .     S
C82    H84     1.111   .     S
C82    C85     1.525   .     S
C82    H83     1.109   .     S
C85    H86     1.111   .     S
C85    H87     1.111   .     S
C85    H88     1.109   .     S
C99    O136    1.281   .     A
C99    O133    1.282   .     A
C99    C108    1.422   .     S
C100   O134    1.281   .     A
C100   O135    1.282   .     A
C100   C107    1.422   .     S
C101   C126    1.402   .     A
C101   H129    1.083   .     S
C101   C1009   1.385   1_554 S
C102   H130    1.083   .     S
C102   C125    1.402   .     A
C102   C1010   1.385   .     S
C103   C108    1.398   .     A
C103   H189    1.084   .     S
C104   C107    1.397   .     A
C104   H190    1.084   .     S
C104   C204    1.370   .     S
C105   H191    1.084   .     S
C105   C107    1.398   .     A
C105   C201    1.370   .     S
C106   H192    1.084   .     S
C106   C108    1.397   .     A
C109   H193    1.082   .     S
C109   N132    1.366   .     A
C109   C700    1.415   1_545 S
C110   H194    1.082   .     S
C110   N131    1.366   .     A
C110   C405    1.415   .     S
C111   N132    1.366   .     A
C111   H195    1.082   .     S
C111   C698    1.415   1_545 S
C112   N131    1.366   .     A
C112   H196    1.082   .     S
C112   C403    1.415   .     S
C113   C118    1.422   .     S
C113   O137    1.284   .     A
C113   O140    1.277   .     A
C114   C117    1.422   .     S
C114   O138    1.277   .     A
C114   O139    1.284   .     A
C115   O143    1.388   .     S
C115   C125    1.392   .     A
C115   C117    1.401   .     A
C116   C126    1.392   .     A
C116   O154    1.388   .     S
C116   C118    1.402   .     A
C117   C119    1.398   .     A
C118   C120    1.397   .     A
C119   O165    1.391   .     S
C119   C121    1.398   .     A
C120   O176    1.391   .     S
C120   C122    1.398   .     A
C121   C127    1.401   .     A
C121   C123    1.415   .     A
C122   C124    1.415   .     A
C122   C128    1.401   .     A
C123   C125    1.414   .     A
C123   C1006   1.398   .     S
C124   C126    1.414   .     A
C124   C1005   1.398   1_554 S
C127   H187    1.083   .     S
C127   C983    1.385   .     S
C128   H188    1.083   .     S
C128   C984    1.385   1_554 S
N131   Zn141   2.005   .     S
N132   Zn142   2.005   .     S
O133   Zn141   2.003   .     S
O134   Zn142   2.003   .     S
O135   Zn141   2.003   .     S
O136   Zn142   2.003   .     S
O137   Zn141   2.007   .     S
O138   Zn142   2.007   .     S
O139   Zn141   2.007   .     S
O140   Zn142   2.007   .     S
O143   C144    1.420   .     S
C144   C147    1.529   .     S
C144   H146    1.116   .     S
C144   H145    1.109   .     S
C147   H149    1.111   .     S
C147   C150    1.526   .     S
C147   H148    1.111   .     S
C150   H153    1.111   .     S
C150   H152    1.110   .     S
C150   H151    1.111   .     S
O154   C155    1.420   .     S
C155   H157    1.116   .     S
C155   C158    1.529   .     S
C155   H156    1.109   .     S
C158   C161    1.526   .     S
C158   H160    1.110   .     S
C158   H159    1.111   .     S
C161   H163    1.110   .     S
C161   H164    1.111   .     S
C161   H162    1.111   .     S
O165   C166    1.422   .     S
C166   H167    1.109   .     S
C166   H168    1.112   .     S
C166   C169    1.535   .     S
C169   C172    1.525   .     S
C169   H170    1.108   .     S
C169   H171    1.111   .     S
C172   H174    1.111   .     S
C172   H175    1.109   .     S
C172   H173    1.111   .     S
O176   C177    1.422   .     S
C177   H178    1.109   .     S
C177   H179    1.112   .     S
C177   C180    1.535   .     S
C180   H182    1.111   .     S
C180   C183    1.525   .     S
C180   H181    1.109   .     S
C183   H184    1.111   .     S
C183   H185    1.111   .     S
C183   H186    1.109   .     S
C197   O234    1.281   .     A
C197   O231    1.282   .     A
C197   C206    1.422   .     S
C198   O232    1.281   .     A
C198   O233    1.282   .     A
C198   C205    1.422   .     S
C199   C224    1.402   .     A
C199   H227    1.083   .     S
C199   C1107   1.385   1_554 S
C200   H228    1.083   .     S
C200   C223    1.402   .     A
C200   C1108   1.385   .     S
C201   C206    1.398   .     A
C201   H287    1.084   .     S
C202   C205    1.397   .     A
C202   H288    1.084   .     S
C202   C8      1.370   1_655 S
C203   H289    1.084   .     S
C203   C205    1.398   .     A
C203   C5      1.370   1_655 S
C204   H290    1.084   .     S
C204   C206    1.397   .     A
C207   H291    1.082   .     S
C207   N230    1.366   .     A
C207   C798    1.415   1_545 S
C208   H292    1.082   .     S
C208   N229    1.366   .     A
C208   C503    1.415   .     S
C209   N230    1.366   .     A
C209   H293    1.082   .     S
C209   C796    1.415   1_545 S
C210   N229    1.366   .     A
C210   H294    1.082   .     S
C210   C501    1.415   .     S
C211   C216    1.422   .     S
C211   O235    1.284   .     A
C211   O238    1.277   .     A
C212   C215    1.422   .     S
C212   O236    1.277   .     A
C212   O237    1.284   .     A
C213   O241    1.388   .     S
C213   C223    1.392   .     A
C213   C215    1.401   .     A
C214   C224    1.392   .     A
C214   O252    1.388   .     S
C214   C216    1.402   .     A
C215   C217    1.398   .     A
C216   C218    1.397   .     A
C217   O263    1.391   .     S
C217   C219    1.398   .     A
C218   O274    1.391   .     S
C218   C220    1.398   .     A
C219   C225    1.401   .     A
C219   C221    1.415   .     A
C220   C222    1.415   .     A
C220   C226    1.401   .     A
C221   C223    1.414   .     A
C221   C1104   1.398   .     S
C222   C224    1.414   .     A
C222   C1103   1.398   1_554 S
C225   H285    1.083   .     S
C225   C1081   1.385   .     S
C226   H286    1.083   .     S
C226   C1082   1.385   1_554 S
N229   Zn239   2.005   .     S
N230   Zn240   2.005   .     S
O231   Zn239   2.003   .     S
O232   Zn240   2.003   .     S
O233   Zn239   2.003   .     S
O234   Zn240   2.003   .     S
O235   Zn239   2.007   .     S
O236   Zn240   2.007   .     S
O237   Zn239   2.007   .     S
O238   Zn240   2.007   .     S
O241   C242    1.420   .     S
C242   C245    1.529   .     S
C242   H244    1.116   .     S
C242   H243    1.109   .     S
C245   H247    1.111   .     S
C245   C248    1.526   .     S
C245   H246    1.111   .     S
C248   H251    1.111   .     S
C248   H250    1.110   .     S
C248   H249    1.111   .     S
O252   C253    1.420   .     S
C253   H255    1.116   .     S
C253   C256    1.529   .     S
C253   H254    1.109   .     S
C256   C259    1.526   .     S
C256   H258    1.110   .     S
C256   H257    1.111   .     S
C259   H261    1.110   .     S
C259   H262    1.111   .     S
C259   H260    1.111   .     S
O263   C264    1.422   .     S
C264   H265    1.109   .     S
C264   H266    1.112   .     S
C264   C267    1.535   .     S
C267   C270    1.525   .     S
C267   H268    1.108   .     S
C267   H269    1.111   .     S
C270   H272    1.111   .     S
C270   H273    1.109   .     S
C270   H271    1.111   .     S
O274   C275    1.422   .     S
C275   H276    1.109   .     S
C275   H277    1.112   .     S
C275   C278    1.535   .     S
C278   H280    1.111   .     S
C278   C281    1.525   .     S
C278   H279    1.109   .     S
C281   H282    1.111   .     S
C281   H283    1.111   .     S
C281   H284    1.109   .     S
C295   O332    1.281   .     A
C295   O329    1.282   .     A
C295   C304    1.422   .     S
C296   O330    1.281   .     A
C296   O331    1.282   .     A
C296   C303    1.422   .     S
C297   C322    1.402   .     A
C297   H325    1.083   .     S
C297   C1205   1.385   1_554 S
C298   H326    1.083   .     S
C298   C321    1.402   .     A
C298   C1206   1.385   .     S
C299   C304    1.398   .     A
C299   H385    1.084   .     S
C299   C497    1.370   1_455 S
C300   C303    1.397   .     A
C300   H386    1.084   .     S
C300   C400    1.370   .     S
C301   H387    1.084   .     S
C301   C303    1.398   .     A
C301   C397    1.370   .     S
C302   H388    1.084   .     S
C302   C304    1.397   .     A
C302   C496    1.370   1_455 S
C305   H389    1.082   .     S
C305   N328    1.366   .     A
C306   H390    1.082   .     S
C306   N327    1.366   .     A
C306   C601    1.415   .     S
C307   N328    1.366   .     A
C307   H391    1.082   .     S
C308   N327    1.366   .     A
C308   H392    1.082   .     S
C308   C599    1.415   .     S
C309   C314    1.422   .     S
C309   O333    1.284   .     A
C309   O336    1.277   .     A
C310   C313    1.422   .     S
C310   O334    1.277   .     A
C310   O335    1.284   .     A
C311   O339    1.388   .     S
C311   C321    1.392   .     A
C311   C313    1.401   .     A
C312   C322    1.392   .     A
C312   O350    1.388   .     S
C312   C314    1.402   .     A
C313   C315    1.398   .     A
C314   C316    1.397   .     A
C315   O361    1.391   .     S
C315   C317    1.398   .     A
C316   O372    1.391   .     S
C316   C318    1.398   .     A
C317   C323    1.401   .     A
C317   C319    1.415   .     A
C318   C320    1.415   .     A
C318   C324    1.401   .     A
C319   C321    1.414   .     A
C319   C1202   1.398   .     S
C320   C322    1.414   .     A
C320   C1201   1.398   1_554 S
C323   H383    1.083   .     S
C323   C1179   1.385   .     S
C324   H384    1.083   .     S
C324   C1180   1.385   1_554 S
N327   Zn337   2.005   .     S
N328   Zn338   2.005   .     S
O329   Zn337   2.003   .     S
O330   Zn338   2.003   .     S
O331   Zn337   2.003   .     S
O332   Zn338   2.003   .     S
O333   Zn337   2.007   .     S
O334   Zn338   2.007   .     S
O335   Zn337   2.007   .     S
O336   Zn338   2.007   .     S
O339   C340    1.420   .     S
C340   C343    1.529   .     S
C340   H342    1.116   .     S
C340   H341    1.109   .     S
C343   H345    1.111   .     S
C343   C346    1.526   .     S
C343   H344    1.111   .     S
C346   H349    1.111   .     S
C346   H348    1.110   .     S
C346   H347    1.111   .     S
O350   C351    1.420   .     S
C351   H353    1.116   .     S
C351   C354    1.529   .     S
C351   H352    1.109   .     S
C354   C357    1.526   .     S
C354   H356    1.110   .     S
C354   H355    1.111   .     S
C357   H359    1.110   .     S
C357   H360    1.111   .     S
C357   H358    1.111   .     S
O361   C362    1.422   .     S
C362   H363    1.109   .     S
C362   H364    1.112   .     S
C362   C365    1.535   .     S
C365   C368    1.525   .     S
C365   H366    1.108   .     S
C365   H367    1.111   .     S
C368   H370    1.111   .     S
C368   H371    1.109   .     S
C368   H369    1.111   .     S
O372   C373    1.422   .     S
C373   H374    1.109   .     S
C373   H375    1.112   .     S
C373   C376    1.535   .     S
C376   H378    1.111   .     S
C376   C379    1.525   .     S
C376   H377    1.109   .     S
C379   H380    1.111   .     S
C379   H381    1.111   .     S
C379   H382    1.109   .     S
C393   O430    1.281   .     A
C393   O427    1.282   .     A
C393   C402    1.422   .     S
C394   O428    1.281   .     A
C394   O429    1.282   .     A
C394   C401    1.422   .     S
C395   C420    1.402   .     A
C395   H423    1.083   .     S
C395   C1303   1.385   1_554 S
C396   H424    1.083   .     S
C396   C419    1.402   .     A
C396   C1304   1.385   .     S
C397   C402    1.398   .     A
C397   H483    1.084   .     S
C398   C401    1.397   .     A
C398   H484    1.084   .     S
C398   C498    1.370   .     S
C399   H485    1.084   .     S
C399   C401    1.398   .     A
C399   C495    1.370   .     S
C400   H486    1.084   .     S
C400   C402    1.397   .     A
C403   H487    1.082   .     S
C403   N426    1.366   .     A
C404   H488    1.082   .     S
C404   N425    1.366   .     A
C404   C699    1.415   .     S
C405   N426    1.366   .     A
C405   H489    1.082   .     S
C406   N425    1.366   .     A
C406   H490    1.082   .     S
C406   C697    1.415   .     S
C407   C412    1.422   .     S
C407   O431    1.284   .     A
C407   O434    1.277   .     A
C408   C411    1.422   .     S
C408   O432    1.277   .     A
C408   O433    1.284   .     A
C409   O437    1.388   .     S
C409   C419    1.392   .     A
C409   C411    1.401   .     A
C410   C420    1.392   .     A
C410   O448    1.388   .     S
C410   C412    1.402   .     A
C411   C413    1.398   .     A
C412   C414    1.397   .     A
C413   O459    1.391   .     S
C413   C415    1.398   .     A
C414   O470    1.391   .     S
C414   C416    1.398   .     A
C415   C421    1.401   .     A
C415   C417    1.415   .     A
C416   C418    1.415   .     A
C416   C422    1.401   .     A
C417   C419    1.414   .     A
C417   C1300   1.398   .     S
C418   C420    1.414   .     A
C418   C1299   1.398   1_554 S
C421   H481    1.083   .     S
C421   C1277   1.385   .     S
C422   H482    1.083   .     S
C422   C1278   1.385   1_554 S
N425   Zn435   2.005   .     S
N426   Zn436   2.005   .     S
O427   Zn435   2.003   .     S
O428   Zn436   2.003   .     S
O429   Zn435   2.003   .     S
O430   Zn436   2.003   .     S
O431   Zn435   2.007   .     S
O432   Zn436   2.007   .     S
O433   Zn435   2.007   .     S
O434   Zn436   2.007   .     S
O437   C438    1.420   .     S
C438   C441    1.529   .     S
C438   H440    1.116   .     S
C438   H439    1.109   .     S
C441   H443    1.111   .     S
C441   C444    1.526   .     S
C441   H442    1.111   .     S
C444   H447    1.111   .     S
C444   H446    1.110   .     S
C444   H445    1.111   .     S
O448   C449    1.420   .     S
C449   H451    1.116   .     S
C449   C452    1.529   .     S
C449   H450    1.109   .     S
C452   C455    1.526   .     S
C452   H454    1.110   .     S
C452   H453    1.111   .     S
C455   H457    1.110   .     S
C455   H458    1.111   .     S
C455   H456    1.111   .     S
O459   C460    1.422   .     S
C460   H461    1.109   .     S
C460   H462    1.112   .     S
C460   C463    1.535   .     S
C463   C466    1.525   .     S
C463   H464    1.108   .     S
C463   H465    1.111   .     S
C466   H468    1.111   .     S
C466   H469    1.109   .     S
C466   H467    1.111   .     S
O470   C471    1.422   .     S
C471   H472    1.109   .     S
C471   H473    1.112   .     S
C471   C474    1.535   .     S
C474   H476    1.111   .     S
C474   C477    1.525   .     S
C474   H475    1.109   .     S
C477   H478    1.111   .     S
C477   H479    1.111   .     S
C477   H480    1.109   .     S
C491   O528    1.281   .     A
C491   O525    1.282   .     A
C491   C500    1.422   .     S
C492   O526    1.281   .     A
C492   O527    1.282   .     A
C492   C499    1.422   .     S
C493   C518    1.402   .     A
C493   H521    1.083   .     S
C493   C1401   1.385   1_554 S
C494   H522    1.083   .     S
C494   C517    1.402   .     A
C494   C1402   1.385   .     S
C495   C500    1.398   .     A
C495   H581    1.084   .     S
C496   C499    1.397   .     A
C496   H582    1.084   .     S
C496   C302    1.370   1_655 S
C497   H583    1.084   .     S
C497   C499    1.398   .     A
C497   C299    1.370   1_655 S
C498   H584    1.084   .     S
C498   C500    1.397   .     A
C501   H585    1.082   .     S
C501   N524    1.366   .     A
C502   H586    1.082   .     S
C502   N523    1.366   .     A
C502   C797    1.415   .     S
C503   N524    1.366   .     A
C503   H587    1.082   .     S
C504   N523    1.366   .     A
C504   H588    1.082   .     S
C504   C795    1.415   .     S
C505   C510    1.422   .     S
C505   O529    1.284   .     A
C505   O532    1.277   .     A
C506   C509    1.422   .     S
C506   O530    1.277   .     A
C506   O531    1.284   .     A
C507   O535    1.388   .     S
C507   C517    1.392   .     A
C507   C509    1.401   .     A
C508   C518    1.392   .     A
C508   O546    1.388   .     S
C508   C510    1.402   .     A
C509   C511    1.398   .     A
C510   C512    1.397   .     A
C511   O557    1.391   .     S
C511   C513    1.398   .     A
C512   O568    1.391   .     S
C512   C514    1.398   .     A
C513   C519    1.401   .     A
C513   C515    1.415   .     A
C514   C516    1.415   .     A
C514   C520    1.401   .     A
C515   C517    1.414   .     A
C515   C1398   1.398   .     S
C516   C518    1.414   .     A
C516   C1397   1.398   1_554 S
C519   H579    1.083   .     S
C519   C1375   1.385   .     S
C520   H580    1.083   .     S
C520   C1376   1.385   1_554 S
N523   Zn533   2.005   .     S
N524   Zn534   2.005   .     S
O525   Zn533   2.003   .     S
O526   Zn534   2.003   .     S
O527   Zn533   2.003   .     S
O528   Zn534   2.003   .     S
O529   Zn533   2.007   .     S
O530   Zn534   2.007   .     S
O531   Zn533   2.007   .     S
O532   Zn534   2.007   .     S
O535   C536    1.420   .     S
C536   C539    1.529   .     S
C536   H538    1.116   .     S
C536   H537    1.109   .     S
C539   H541    1.111   .     S
C539   C542    1.526   .     S
C539   H540    1.111   .     S
C542   H545    1.111   .     S
C542   H544    1.110   .     S
C542   H543    1.111   .     S
O546   C547    1.420   .     S
C547   H549    1.116   .     S
C547   C550    1.529   .     S
C547   H548    1.109   .     S
C550   C553    1.526   .     S
C550   H552    1.110   .     S
C550   H551    1.111   .     S
C553   H555    1.110   .     S
C553   H556    1.111   .     S
C553   H554    1.111   .     S
O557   C558    1.422   .     S
C558   H559    1.109   .     S
C558   H560    1.112   .     S
C558   C561    1.535   .     S
C561   C564    1.525   .     S
C561   H562    1.108   .     S
C561   H563    1.111   .     S
C564   H566    1.111   .     S
C564   H567    1.109   .     S
C564   H565    1.111   .     S
O568   C569    1.422   .     S
C569   H570    1.109   .     S
C569   H571    1.112   .     S
C569   C572    1.535   .     S
C572   H574    1.111   .     S
C572   C575    1.525   .     S
C572   H573    1.109   .     S
C575   H576    1.111   .     S
C575   H577    1.111   .     S
C575   H578    1.109   .     S
C589   O626    1.281   .     A
C589   O623    1.282   .     A
C589   C598    1.422   .     S
C590   O624    1.281   .     A
C590   O625    1.282   .     A
C590   C597    1.422   .     S
C591   C616    1.402   .     A
C591   H619    1.083   .     S
C591   C1499   1.385   1_554 S
C592   H620    1.083   .     S
C592   C615    1.402   .     A
C592   C1500   1.385   .     S
C593   C598    1.398   .     A
C593   H679    1.084   .     S
C593   C791    1.370   1_455 S
C594   C597    1.397   .     A
C594   H680    1.084   .     S
C594   C694    1.370   .     S
C595   H681    1.084   .     S
C595   C597    1.398   .     A
C595   C691    1.370   .     S
C596   H682    1.084   .     S
C596   C598    1.397   .     A
C596   C790    1.370   1_455 S
C599   H683    1.082   .     S
C599   N622    1.366   .     A
C600   H684    1.082   .     S
C600   N621    1.366   .     A
C600   C13     1.415   1_565 S
C601   N622    1.366   .     A
C601   H685    1.082   .     S
C602   N621    1.366   .     A
C602   H686    1.082   .     S
C602   C11     1.415   1_565 S
C603   C608    1.422   .     S
C603   O627    1.284   .     A
C603   O630    1.277   .     A
C604   C607    1.422   .     S
C604   O628    1.277   .     A
C604   O629    1.284   .     A
C605   O633    1.388   .     S
C605   C615    1.392   .     A
C605   C607    1.401   .     A
C606   C616    1.392   .     A
C606   O644    1.388   .     S
C606   C608    1.402   .     A
C607   C609    1.398   .     A
C608   C610    1.397   .     A
C609   O655    1.391   .     S
C609   C611    1.398   .     A
C610   O666    1.391   .     S
C610   C612    1.398   .     A
C611   C617    1.401   .     A
C611   C613    1.415   .     A
C612   C614    1.415   .     A
C612   C618    1.401   .     A
C613   C615    1.414   .     A
C613   C1496   1.398   .     S
C614   C616    1.414   .     A
C614   C1495   1.398   1_554 S
C617   H677    1.083   .     S
C617   C1473   1.385   .     S
C618   H678    1.083   .     S
C618   C1474   1.385   1_554 S
N621   Zn631   2.005   .     S
N622   Zn632   2.005   .     S
O623   Zn631   2.003   .     S
O624   Zn632   2.003   .     S
O625   Zn631   2.003   .     S
O626   Zn632   2.003   .     S
O627   Zn631   2.007   .     S
O628   Zn632   2.007   .     S
O629   Zn631   2.007   .     S
O630   Zn632   2.007   .     S
O633   C634    1.420   .     S
C634   C637    1.529   .     S
C634   H636    1.116   .     S
C634   H635    1.109   .     S
C637   H639    1.111   .     S
C637   C640    1.526   .     S
C637   H638    1.111   .     S
C640   H643    1.111   .     S
C640   H642    1.110   .     S
C640   H641    1.111   .     S
O644   C645    1.420   .     S
C645   H647    1.116   .     S
C645   C648    1.529   .     S
C645   H646    1.109   .     S
C648   C651    1.526   .     S
C648   H650    1.110   .     S
C648   H649    1.111   .     S
C651   H653    1.110   .     S
C651   H654    1.111   .     S
C651   H652    1.111   .     S
O655   C656    1.422   .     S
C656   H657    1.109   .     S
C656   H658    1.112   .     S
C656   C659    1.535   .     S
C659   C662    1.525   .     S
C659   H660    1.108   .     S
C659   H661    1.111   .     S
C662   H664    1.111   .     S
C662   H665    1.109   .     S
C662   H663    1.111   .     S
O666   C667    1.422   .     S
C667   H668    1.109   .     S
C667   H669    1.112   .     S
C667   C670    1.535   .     S
C670   H672    1.111   .     S
C670   C673    1.525   .     S
C670   H671    1.109   .     S
C673   H674    1.111   .     S
C673   H675    1.111   .     S
C673   H676    1.109   .     S
C687   O724    1.281   .     A
C687   O721    1.282   .     A
C687   C696    1.422   .     S
C688   O722    1.281   .     A
C688   O723    1.282   .     A
C688   C695    1.422   .     S
C689   C714    1.402   .     A
C689   H717    1.083   .     S
C689   C1597   1.385   1_554 S
C690   H718    1.083   .     S
C690   C713    1.402   .     A
C690   C1598   1.385   .     S
C691   C696    1.398   .     A
C691   H777    1.084   .     S
C692   C695    1.397   .     A
C692   H778    1.084   .     S
C692   C792    1.370   .     S
C693   H779    1.084   .     S
C693   C695    1.398   .     A
C693   C789    1.370   .     S
C694   H780    1.084   .     S
C694   C696    1.397   .     A
C697   H781    1.082   .     S
C697   N720    1.366   .     A
C698   H782    1.082   .     S
C698   N719    1.366   .     A
C698   C111    1.415   1_565 S
C699   N720    1.366   .     A
C699   H783    1.082   .     S
C700   N719    1.366   .     A
C700   H784    1.082   .     S
C700   C109    1.415   1_565 S
C701   C706    1.422   .     S
C701   O725    1.284   .     A
C701   O728    1.277   .     A
C702   C705    1.422   .     S
C702   O726    1.277   .     A
C702   O727    1.284   .     A
C703   O731    1.388   .     S
C703   C713    1.392   .     A
C703   C705    1.401   .     A
C704   C714    1.392   .     A
C704   O742    1.388   .     S
C704   C706    1.402   .     A
C705   C707    1.398   .     A
C706   C708    1.397   .     A
C707   O753    1.391   .     S
C707   C709    1.398   .     A
C708   O764    1.391   .     S
C708   C710    1.398   .     A
C709   C715    1.401   .     A
C709   C711    1.415   .     A
C710   C712    1.415   .     A
C710   C716    1.401   .     A
C711   C713    1.414   .     A
C711   C1594   1.398   .     S
C712   C714    1.414   .     A
C712   C1593   1.398   1_554 S
C715   H775    1.083   .     S
C715   C1571   1.385   .     S
C716   H776    1.083   .     S
C716   C1572   1.385   1_554 S
N719   Zn729   2.005   .     S
N720   Zn730   2.005   .     S
O721   Zn729   2.003   .     S
O722   Zn730   2.003   .     S
O723   Zn729   2.003   .     S
O724   Zn730   2.003   .     S
O725   Zn729   2.007   .     S
O726   Zn730   2.007   .     S
O727   Zn729   2.007   .     S
O728   Zn730   2.007   .     S
O731   C732    1.420   .     S
C732   C735    1.529   .     S
C732   H734    1.116   .     S
C732   H733    1.109   .     S
C735   H737    1.111   .     S
C735   C738    1.526   .     S
C735   H736    1.111   .     S
C738   H741    1.111   .     S
C738   H740    1.110   .     S
C738   H739    1.111   .     S
O742   C743    1.420   .     S
C743   H745    1.116   .     S
C743   C746    1.529   .     S
C743   H744    1.109   .     S
C746   C749    1.526   .     S
C746   H748    1.110   .     S
C746   H747    1.111   .     S
C749   H751    1.110   .     S
C749   H752    1.111   .     S
C749   H750    1.111   .     S
O753   C754    1.422   .     S
C754   H755    1.109   .     S
C754   H756    1.112   .     S
C754   C757    1.535   .     S
C757   C760    1.525   .     S
C757   H758    1.108   .     S
C757   H759    1.111   .     S
C760   H762    1.111   .     S
C760   H763    1.109   .     S
C760   H761    1.111   .     S
O764   C765    1.422   .     S
C765   H766    1.109   .     S
C765   H767    1.112   .     S
C765   C768    1.535   .     S
C768   H770    1.111   .     S
C768   C771    1.525   .     S
C768   H769    1.109   .     S
C771   H772    1.111   .     S
C771   H773    1.111   .     S
C771   H774    1.109   .     S
C785   O822    1.281   .     A
C785   O819    1.282   .     A
C785   C794    1.422   .     S
C786   O820    1.281   .     A
C786   O821    1.282   .     A
C786   C793    1.422   .     S
C787   C812    1.402   .     A
C787   H815    1.083   .     S
C787   C1695   1.385   1_554 S
C788   H816    1.083   .     S
C788   C811    1.402   .     A
C788   C1696   1.385   .     S
C789   C794    1.398   .     A
C789   H875    1.084   .     S
C790   C793    1.397   .     A
C790   H876    1.084   .     S
C790   C596    1.370   1_655 S
C791   H877    1.084   .     S
C791   C793    1.398   .     A
C791   C593    1.370   1_655 S
C792   H878    1.084   .     S
C792   C794    1.397   .     A
C795   H879    1.082   .     S
C795   N818    1.366   .     A
C796   H880    1.082   .     S
C796   N817    1.366   .     A
C796   C209    1.415   1_565 S
C797   N818    1.366   .     A
C797   H881    1.082   .     S
C798   N817    1.366   .     A
C798   H882    1.082   .     S
C798   C207    1.415   1_565 S
C799   C804    1.422   .     S
C799   O823    1.284   .     A
C799   O826    1.277   .     A
C800   C803    1.422   .     S
C800   O824    1.277   .     A
C800   O825    1.284   .     A
C801   O829    1.388   .     S
C801   C811    1.392   .     A
C801   C803    1.401   .     A
C802   C812    1.392   .     A
C802   O840    1.388   .     S
C802   C804    1.402   .     A
C803   C805    1.398   .     A
C804   C806    1.397   .     A
C805   O851    1.391   .     S
C805   C807    1.398   .     A
C806   O862    1.391   .     S
C806   C808    1.398   .     A
C807   C813    1.401   .     A
C807   C809    1.415   .     A
C808   C810    1.415   .     A
C808   C814    1.401   .     A
C809   C811    1.414   .     A
C809   C1692   1.398   .     S
C810   C812    1.414   .     A
C810   C1691   1.398   1_554 S
C813   H873    1.083   .     S
C813   C1669   1.385   .     S
C814   H874    1.083   .     S
C814   C1670   1.385   1_554 S
N817   Zn827   2.005   .     S
N818   Zn828   2.005   .     S
O819   Zn827   2.003   .     S
O820   Zn828   2.003   .     S
O821   Zn827   2.003   .     S
O822   Zn828   2.003   .     S
O823   Zn827   2.007   .     S
O824   Zn828   2.007   .     S
O825   Zn827   2.007   .     S
O826   Zn828   2.007   .     S
O829   C830    1.420   .     S
C830   C833    1.529   .     S
C830   H832    1.116   .     S
C830   H831    1.109   .     S
C833   H835    1.111   .     S
C833   C836    1.526   .     S
C833   H834    1.111   .     S
C836   H839    1.111   .     S
C836   H838    1.110   .     S
C836   H837    1.111   .     S
O840   C841    1.420   .     S
C841   H843    1.116   .     S
C841   C844    1.529   .     S
C841   H842    1.109   .     S
C844   C847    1.526   .     S
C844   H846    1.110   .     S
C844   H845    1.111   .     S
C847   H849    1.110   .     S
C847   H850    1.111   .     S
C847   H848    1.111   .     S
O851   C852    1.422   .     S
C852   H853    1.109   .     S
C852   H854    1.112   .     S
C852   C855    1.535   .     S
C855   C858    1.525   .     S
C855   H856    1.108   .     S
C855   H857    1.111   .     S
C858   H860    1.111   .     S
C858   H861    1.109   .     S
C858   H859    1.111   .     S
O862   C863    1.422   .     S
C863   H864    1.109   .     S
C863   H865    1.112   .     S
C863   C866    1.535   .     S
C866   H868    1.111   .     S
C866   C869    1.525   .     S
C866   H867    1.109   .     S
C869   H870    1.111   .     S
C869   H871    1.111   .     S
C869   H872    1.109   .     S
C883   O920    1.281   .     A
C883   O917    1.282   .     A
C883   C892    1.422   .     S
C884   O918    1.281   .     A
C884   O919    1.282   .     A
C884   C891    1.422   .     S
C885   C910    1.402   .     A
C885   H913    1.083   .     S
C886   H914    1.083   .     S
C886   C909    1.402   .     A
C886   C30     1.385   1_556 S
C887   C892    1.398   .     A
C887   H973    1.084   .     S
C887   C1085   1.370   1_455 S
C888   C891    1.397   .     A
C888   H974    1.084   .     S
C888   C988    1.370   .     S
C889   H975    1.084   .     S
C889   C891    1.398   .     A
C889   C985    1.370   .     S
C890   H976    1.084   .     S
C890   C892    1.397   .     A
C890   C1084   1.370   1_455 S
C893   H977    1.082   .     S
C893   N916    1.366   .     A
C893   C1484   1.415   1_545 S
C894   H978    1.082   .     S
C894   N915    1.366   .     A
C894   C1189   1.415   .     S
C895   N916    1.366   .     A
C895   H979    1.082   .     S
C895   C1482   1.415   1_545 S
C896   N915    1.366   .     A
C896   H980    1.082   .     S
C896   C1187   1.415   .     S
C897   C902    1.422   .     S
C897   O921    1.284   .     A
C897   O924    1.277   .     A
C898   C901    1.422   .     S
C898   O922    1.277   .     A
C898   O923    1.284   .     A
C899   O927    1.388   .     S
C899   C909    1.392   .     A
C899   C901    1.401   .     A
C900   C910    1.392   .     A
C900   O938    1.388   .     S
C900   C902    1.402   .     A
C901   C903    1.398   .     A
C902   C904    1.397   .     A
C903   O949    1.391   .     S
C903   C905    1.398   .     A
C904   O960    1.391   .     S
C904   C906    1.398   .     A
C905   C911    1.401   .     A
C905   C907    1.415   .     A
C906   C908    1.415   .     A
C906   C912    1.401   .     A
C907   C909    1.414   .     A
C907   C26     1.398   1_556 S
C908   C910    1.414   .     A
C911   H971    1.083   .     S
C911   C3      1.385   1_556 S
C912   H972    1.083   .     S
N915   Zn925   2.005   .     S
N916   Zn926   2.005   .     S
O917   Zn925   2.003   .     S
O918   Zn926   2.003   .     S
O919   Zn925   2.003   .     S
O920   Zn926   2.003   .     S
O921   Zn925   2.007   .     S
O922   Zn926   2.007   .     S
O923   Zn925   2.007   .     S
O924   Zn926   2.007   .     S
O927   C928    1.420   .     S
C928   C931    1.529   .     S
C928   H930    1.116   .     S
C928   H929    1.109   .     S
C931   H933    1.111   .     S
C931   C934    1.526   .     S
C931   H932    1.111   .     S
C934   H937    1.111   .     S
C934   H936    1.110   .     S
C934   H935    1.111   .     S
O938   C939    1.420   .     S
C939   H941    1.116   .     S
C939   C942    1.529   .     S
C939   H940    1.109   .     S
C942   C945    1.526   .     S
C942   H944    1.110   .     S
C942   H943    1.111   .     S
C945   H947    1.110   .     S
C945   H948    1.111   .     S
C945   H946    1.111   .     S
O949   C950    1.422   .     S
C950   H951    1.109   .     S
C950   H952    1.112   .     S
C950   C953    1.535   .     S
C953   C956    1.525   .     S
C953   H954    1.108   .     S
C953   H955    1.111   .     S
C956   H958    1.111   .     S
C956   H959    1.109   .     S
C956   H957    1.111   .     S
O960   C961    1.422   .     S
C961   H962    1.109   .     S
C961   H963    1.112   .     S
C961   C964    1.535   .     S
C964   H966    1.111   .     S
C964   C967    1.525   .     S
C964   H965    1.109   .     S
C967   H968    1.111   .     S
C967   H969    1.111   .     S
C967   H970    1.109   .     S
C981   O1018   1.281   .     A
C981   O1015   1.282   .     A
C981   C990    1.422   .     S
C982   O1016   1.281   .     A
C982   O1017   1.282   .     A
C982   C989    1.422   .     S
C983   C1008   1.402   .     A
C983   H1011   1.083   .     S
C984   H1012   1.083   .     S
C984   C1007   1.402   .     A
C984   C128    1.385   1_556 S
C985   C990    1.398   .     A
C985   H1071   1.084   .     S
C986   C989    1.397   .     A
C986   H1072   1.084   .     S
C986   C1086   1.370   .     S
C987   H1073   1.084   .     S
C987   C989    1.398   .     A
C987   C1083   1.370   .     S
C988   H1074   1.084   .     S
C988   C990    1.397   .     A
C991   H1075   1.082   .     S
C991   N1014   1.366   .     A
C991   C1582   1.415   1_545 S
C992   H1076   1.082   .     S
C992   N1013   1.366   .     A
C992   C1287   1.415   .     S
C993   N1014   1.366   .     A
C993   H1077   1.082   .     S
C993   C1580   1.415   1_545 S
C994   N1013   1.366   .     A
C994   H1078   1.082   .     S
C994   C1285   1.415   .     S
C995   C1000   1.422   .     S
C995   O1019   1.284   .     A
C995   O1022   1.277   .     A
C996   C999    1.422   .     S
C996   O1020   1.277   .     A
C996   O1021   1.284   .     A
C997   O1025   1.388   .     S
C997   C1007   1.392   .     A
C997   C999    1.401   .     A
C998   C1008   1.392   .     A
C998   O1036   1.388   .     S
C998   C1000   1.402   .     A
C999   C1001   1.398   .     A
C1000  C1002   1.397   .     A
C1001  O1047   1.391   .     S
C1001  C1003   1.398   .     A
C1002  O1058   1.391   .     S
C1002  C1004   1.398   .     A
C1003  C1009   1.401   .     A
C1003  C1005   1.415   .     A
C1004  C1006   1.415   .     A
C1004  C1010   1.401   .     A
C1005  C1007   1.414   .     A
C1005  C124    1.398   1_556 S
C1006  C1008   1.414   .     A
C1009  H1069   1.083   .     S
C1009  C101    1.385   1_556 S
C1010  H1070   1.083   .     S
N1013  Zn1023  2.005   .     S
N1014  Zn1024  2.005   .     S
O1015  Zn1023  2.003   .     S
O1016  Zn1024  2.003   .     S
O1017  Zn1023  2.003   .     S
O1018  Zn1024  2.003   .     S
O1019  Zn1023  2.007   .     S
O1020  Zn1024  2.007   .     S
O1021  Zn1023  2.007   .     S
O1022  Zn1024  2.007   .     S
O1025  C1026   1.420   .     S
C1026  C1029   1.529   .     S
C1026  H1028   1.116   .     S
C1026  H1027   1.109   .     S
C1029  H1031   1.111   .     S
C1029  C1032   1.526   .     S
C1029  H1030   1.111   .     S
C1032  H1035   1.111   .     S
C1032  H1034   1.110   .     S
C1032  H1033   1.111   .     S
O1036  C1037   1.420   .     S
C1037  H1039   1.116   .     S
C1037  C1040   1.529   .     S
C1037  H1038   1.109   .     S
C1040  C1043   1.526   .     S
C1040  H1042   1.110   .     S
C1040  H1041   1.111   .     S
C1043  H1045   1.110   .     S
C1043  H1046   1.111   .     S
C1043  H1044   1.111   .     S
O1047  C1048   1.422   .     S
C1048  H1049   1.109   .     S
C1048  H1050   1.112   .     S
C1048  C1051   1.535   .     S
C1051  C1054   1.525   .     S
C1051  H1052   1.108   .     S
C1051  H1053   1.111   .     S
C1054  H1056   1.111   .     S
C1054  H1057   1.109   .     S
C1054  H1055   1.111   .     S
O1058  C1059   1.422   .     S
C1059  H1060   1.109   .     S
C1059  H1061   1.112   .     S
C1059  C1062   1.535   .     S
C1062  H1064   1.111   .     S
C1062  C1065   1.525   .     S
C1062  H1063   1.109   .     S
C1065  H1066   1.111   .     S
C1065  H1067   1.111   .     S
C1065  H1068   1.109   .     S
C1079  O1116   1.281   .     A
C1079  O1113   1.282   .     A
C1079  C1088   1.422   .     S
C1080  O1114   1.281   .     A
C1080  O1115   1.282   .     A
C1080  C1087   1.422   .     S
C1081  C1106   1.402   .     A
C1081  H1109   1.083   .     S
C1082  H1110   1.083   .     S
C1082  C1105   1.402   .     A
C1082  C226    1.385   1_556 S
C1083  C1088   1.398   .     A
C1083  H1169   1.084   .     S
C1084  C1087   1.397   .     A
C1084  H1170   1.084   .     S
C1084  C890    1.370   1_655 S
C1085  H1171   1.084   .     S
C1085  C1087   1.398   .     A
C1085  C887    1.370   1_655 S
C1086  H1172   1.084   .     S
C1086  C1088   1.397   .     A
C1089  H1173   1.082   .     S
C1089  N1112   1.366   .     A
C1089  C1680   1.415   1_545 S
C1090  H1174   1.082   .     S
C1090  N1111   1.366   .     A
C1090  C1385   1.415   .     S
C1091  N1112   1.366   .     A
C1091  H1175   1.082   .     S
C1091  C1678   1.415   1_545 S
C1092  N1111   1.366   .     A
C1092  H1176   1.082   .     S
C1092  C1383   1.415   .     S
C1093  C1098   1.422   .     S
C1093  O1117   1.284   .     A
C1093  O1120   1.277   .     A
C1094  C1097   1.422   .     S
C1094  O1118   1.277   .     A
C1094  O1119   1.284   .     A
C1095  O1123   1.388   .     S
C1095  C1105   1.392   .     A
C1095  C1097   1.401   .     A
C1096  C1106   1.392   .     A
C1096  O1134   1.388   .     S
C1096  C1098   1.402   .     A
C1097  C1099   1.398   .     A
C1098  C1100   1.397   .     A
C1099  O1145   1.391   .     S
C1099  C1101   1.398   .     A
C1100  O1156   1.391   .     S
C1100  C1102   1.398   .     A
C1101  C1107   1.401   .     A
C1101  C1103   1.415   .     A
C1102  C1104   1.415   .     A
C1102  C1108   1.401   .     A
C1103  C1105   1.414   .     A
C1103  C222    1.398   1_556 S
C1104  C1106   1.414   .     A
C1107  H1167   1.083   .     S
C1107  C199    1.385   1_556 S
C1108  H1168   1.083   .     S
N1111  Zn1121  2.005   .     S
N1112  Zn1122  2.005   .     S
O1113  Zn1121  2.003   .     S
O1114  Zn1122  2.003   .     S
O1115  Zn1121  2.003   .     S
O1116  Zn1122  2.003   .     S
O1117  Zn1121  2.007   .     S
O1118  Zn1122  2.007   .     S
O1119  Zn1121  2.007   .     S
O1120  Zn1122  2.007   .     S
O1123  C1124   1.420   .     S
C1124  C1127   1.529   .     S
C1124  H1126   1.116   .     S
C1124  H1125   1.109   .     S
C1127  H1129   1.111   .     S
C1127  C1130   1.526   .     S
C1127  H1128   1.111   .     S
C1130  H1133   1.111   .     S
C1130  H1132   1.110   .     S
C1130  H1131   1.111   .     S
O1134  C1135   1.420   .     S
C1135  H1137   1.116   .     S
C1135  C1138   1.529   .     S
C1135  H1136   1.109   .     S
C1138  C1141   1.526   .     S
C1138  H1140   1.110   .     S
C1138  H1139   1.111   .     S
C1141  H1143   1.110   .     S
C1141  H1144   1.111   .     S
C1141  H1142   1.111   .     S
O1145  C1146   1.422   .     S
C1146  H1147   1.109   .     S
C1146  H1148   1.112   .     S
C1146  C1149   1.535   .     S
C1149  C1152   1.525   .     S
C1149  H1150   1.108   .     S
C1149  H1151   1.111   .     S
C1152  H1154   1.111   .     S
C1152  H1155   1.109   .     S
C1152  H1153   1.111   .     S
O1156  C1157   1.422   .     S
C1157  H1158   1.109   .     S
C1157  H1159   1.112   .     S
C1157  C1160   1.535   .     S
C1160  H1162   1.111   .     S
C1160  C1163   1.525   .     S
C1160  H1161   1.109   .     S
C1163  H1164   1.111   .     S
C1163  H1165   1.111   .     S
C1163  H1166   1.109   .     S
C1177  O1214   1.281   .     A
C1177  O1211   1.282   .     A
C1177  C1186   1.422   .     S
C1178  O1212   1.281   .     A
C1178  O1213   1.282   .     A
C1178  C1185   1.422   .     S
C1179  C1204   1.402   .     A
C1179  H1207   1.083   .     S
C1180  H1208   1.083   .     S
C1180  C1203   1.402   .     A
C1180  C324    1.385   1_556 S
C1181  C1186   1.398   .     A
C1181  H1267   1.084   .     S
C1181  C1379   1.370   1_455 S
C1182  C1185   1.397   .     A
C1182  H1268   1.084   .     S
C1182  C1282   1.370   .     S
C1183  H1269   1.084   .     S
C1183  C1185   1.398   .     A
C1183  C1279   1.370   .     S
C1184  H1270   1.084   .     S
C1184  C1186   1.397   .     A
C1184  C1378   1.370   1_455 S
C1187  H1271   1.082   .     S
C1187  N1210   1.366   .     A
C1188  H1272   1.082   .     S
C1188  N1209   1.366   .     A
C1188  C1483   1.415   .     S
C1189  N1210   1.366   .     A
C1189  H1273   1.082   .     S
C1190  N1209   1.366   .     A
C1190  H1274   1.082   .     S
C1190  C1481   1.415   .     S
C1191  C1196   1.422   .     S
C1191  O1215   1.284   .     A
C1191  O1218   1.277   .     A
C1192  C1195   1.422   .     S
C1192  O1216   1.277   .     A
C1192  O1217   1.284   .     A
C1193  O1221   1.388   .     S
C1193  C1203   1.392   .     A
C1193  C1195   1.401   .     A
C1194  C1204   1.392   .     A
C1194  O1232   1.388   .     S
C1194  C1196   1.402   .     A
C1195  C1197   1.398   .     A
C1196  C1198   1.397   .     A
C1197  O1243   1.391   .     S
C1197  C1199   1.398   .     A
C1198  O1254   1.391   .     S
C1198  C1200   1.398   .     A
C1199  C1205   1.401   .     A
C1199  C1201   1.415   .     A
C1200  C1202   1.415   .     A
C1200  C1206   1.401   .     A
C1201  C1203   1.414   .     A
C1201  C320    1.398   1_556 S
C1202  C1204   1.414   .     A
C1205  H1265   1.083   .     S
C1205  C297    1.385   1_556 S
C1206  H1266   1.083   .     S
N1209  Zn1219  2.005   .     S
N1210  Zn1220  2.005   .     S
O1211  Zn1219  2.003   .     S
O1212  Zn1220  2.003   .     S
O1213  Zn1219  2.003   .     S
O1214  Zn1220  2.003   .     S
O1215  Zn1219  2.007   .     S
O1216  Zn1220  2.007   .     S
O1217  Zn1219  2.007   .     S
O1218  Zn1220  2.007   .     S
O1221  C1222   1.420   .     S
C1222  C1225   1.529   .     S
C1222  H1224   1.116   .     S
C1222  H1223   1.109   .     S
C1225  H1227   1.111   .     S
C1225  C1228   1.526   .     S
C1225  H1226   1.111   .     S
C1228  H1231   1.111   .     S
C1228  H1230   1.110   .     S
C1228  H1229   1.111   .     S
O1232  C1233   1.420   .     S
C1233  H1235   1.116   .     S
C1233  C1236   1.529   .     S
C1233  H1234   1.109   .     S
C1236  C1239   1.526   .     S
C1236  H1238   1.110   .     S
C1236  H1237   1.111   .     S
C1239  H1241   1.110   .     S
C1239  H1242   1.111   .     S
C1239  H1240   1.111   .     S
O1243  C1244   1.422   .     S
C1244  H1245   1.109   .     S
C1244  H1246   1.112   .     S
C1244  C1247   1.535   .     S
C1247  C1250   1.525   .     S
C1247  H1248   1.108   .     S
C1247  H1249   1.111   .     S
C1250  H1252   1.111   .     S
C1250  H1253   1.109   .     S
C1250  H1251   1.111   .     S
O1254  C1255   1.422   .     S
C1255  H1256   1.109   .     S
C1255  H1257   1.112   .     S
C1255  C1258   1.535   .     S
C1258  H1260   1.111   .     S
C1258  C1261   1.525   .     S
C1258  H1259   1.109   .     S
C1261  H1262   1.111   .     S
C1261  H1263   1.111   .     S
C1261  H1264   1.109   .     S
C1275  O1312   1.281   .     A
C1275  O1309   1.282   .     A
C1275  C1284   1.422   .     S
C1276  O1310   1.281   .     A
C1276  O1311   1.282   .     A
C1276  C1283   1.422   .     S
C1277  C1302   1.402   .     A
C1277  H1305   1.083   .     S
C1278  H1306   1.083   .     S
C1278  C1301   1.402   .     A
C1278  C422    1.385   1_556 S
C1279  C1284   1.398   .     A
C1279  H1365   1.084   .     S
C1280  C1283   1.397   .     A
C1280  H1366   1.084   .     S
C1280  C1380   1.370   .     S
C1281  H1367   1.084   .     S
C1281  C1283   1.398   .     A
C1281  C1377   1.370   .     S
C1282  H1368   1.084   .     S
C1282  C1284   1.397   .     A
C1285  H1369   1.082   .     S
C1285  N1308   1.366   .     A
C1286  H1370   1.082   .     S
C1286  N1307   1.366   .     A
C1286  C1581   1.415   .     S
C1287  N1308   1.366   .     A
C1287  H1371   1.082   .     S
C1288  N1307   1.366   .     A
C1288  H1372   1.082   .     S
C1288  C1579   1.415   .     S
C1289  C1294   1.422   .     S
C1289  O1313   1.284   .     A
C1289  O1316   1.277   .     A
C1290  C1293   1.422   .     S
C1290  O1314   1.277   .     A
C1290  O1315   1.284   .     A
C1291  O1319   1.388   .     S
C1291  C1301   1.392   .     A
C1291  C1293   1.401   .     A
C1292  C1302   1.392   .     A
C1292  O1330   1.388   .     S
C1292  C1294   1.402   .     A
C1293  C1295   1.398   .     A
C1294  C1296   1.397   .     A
C1295  O1341   1.391   .     S
C1295  C1297   1.398   .     A
C1296  O1352   1.391   .     S
C1296  C1298   1.398   .     A
C1297  C1303   1.401   .     A
C1297  C1299   1.415   .     A
C1298  C1300   1.415   .     A
C1298  C1304   1.401   .     A
C1299  C1301   1.414   .     A
C1299  C418    1.398   1_556 S
C1300  C1302   1.414   .     A
C1303  H1363   1.083   .     S
C1303  C395    1.385   1_556 S
C1304  H1364   1.083   .     S
N1307  Zn1317  2.005   .     S
N1308  Zn1318  2.005   .     S
O1309  Zn1317  2.003   .     S
O1310  Zn1318  2.003   .     S
O1311  Zn1317  2.003   .     S
O1312  Zn1318  2.003   .     S
O1313  Zn1317  2.007   .     S
O1314  Zn1318  2.007   .     S
O1315  Zn1317  2.007   .     S
O1316  Zn1318  2.007   .     S
O1319  C1320   1.420   .     S
C1320  C1323   1.529   .     S
C1320  H1322   1.116   .     S
C1320  H1321   1.109   .     S
C1323  H1325   1.111   .     S
C1323  C1326   1.526   .     S
C1323  H1324   1.111   .     S
C1326  H1329   1.111   .     S
C1326  H1328   1.110   .     S
C1326  H1327   1.111   .     S
O1330  C1331   1.420   .     S
C1331  H1333   1.116   .     S
C1331  C1334   1.529   .     S
C1331  H1332   1.109   .     S
C1334  C1337   1.526   .     S
C1334  H1336   1.110   .     S
C1334  H1335   1.111   .     S
C1337  H1339   1.110   .     S
C1337  H1340   1.111   .     S
C1337  H1338   1.111   .     S
O1341  C1342   1.422   .     S
C1342  H1343   1.109   .     S
C1342  H1344   1.112   .     S
C1342  C1345   1.535   .     S
C1345  C1348   1.525   .     S
C1345  H1346   1.108   .     S
C1345  H1347   1.111   .     S
C1348  H1350   1.111   .     S
C1348  H1351   1.109   .     S
C1348  H1349   1.111   .     S
O1352  C1353   1.422   .     S
C1353  H1354   1.109   .     S
C1353  H1355   1.112   .     S
C1353  C1356   1.535   .     S
C1356  H1358   1.111   .     S
C1356  C1359   1.525   .     S
C1356  H1357   1.109   .     S
C1359  H1360   1.111   .     S
C1359  H1361   1.111   .     S
C1359  H1362   1.109   .     S
C1373  O1410   1.281   .     A
C1373  O1407   1.282   .     A
C1373  C1382   1.422   .     S
C1374  O1408   1.281   .     A
C1374  O1409   1.282   .     A
C1374  C1381   1.422   .     S
C1375  C1400   1.402   .     A
C1375  H1403   1.083   .     S
C1376  H1404   1.083   .     S
C1376  C1399   1.402   .     A
C1376  C520    1.385   1_556 S
C1377  C1382   1.398   .     A
C1377  H1463   1.084   .     S
C1378  C1381   1.397   .     A
C1378  H1464   1.084   .     S
C1378  C1184   1.370   1_655 S
C1379  H1465   1.084   .     S
C1379  C1381   1.398   .     A
C1379  C1181   1.370   1_655 S
C1380  H1466   1.084   .     S
C1380  C1382   1.397   .     A
C1383  H1467   1.082   .     S
C1383  N1406   1.366   .     A
C1384  H1468   1.082   .     S
C1384  N1405   1.366   .     A
C1384  C1679   1.415   .     S
C1385  N1406   1.366   .     A
C1385  H1469   1.082   .     S
C1386  N1405   1.366   .     A
C1386  H1470   1.082   .     S
C1386  C1677   1.415   .     S
C1387  C1392   1.422   .     S
C1387  O1411   1.284   .     A
C1387  O1414   1.277   .     A
C1388  C1391   1.422   .     S
C1388  O1412   1.277   .     A
C1388  O1413   1.284   .     A
C1389  O1417   1.388   .     S
C1389  C1399   1.392   .     A
C1389  C1391   1.401   .     A
C1390  C1400   1.392   .     A
C1390  O1428   1.388   .     S
C1390  C1392   1.402   .     A
C1391  C1393   1.398   .     A
C1392  C1394   1.397   .     A
C1393  O1439   1.391   .     S
C1393  C1395   1.398   .     A
C1394  O1450   1.391   .     S
C1394  C1396   1.398   .     A
C1395  C1401   1.401   .     A
C1395  C1397   1.415   .     A
C1396  C1398   1.415   .     A
C1396  C1402   1.401   .     A
C1397  C1399   1.414   .     A
C1397  C516    1.398   1_556 S
C1398  C1400   1.414   .     A
C1401  H1461   1.083   .     S
C1401  C493    1.385   1_556 S
C1402  H1462   1.083   .     S
N1405  Zn1415  2.005   .     S
N1406  Zn1416  2.005   .     S
O1407  Zn1415  2.003   .     S
O1408  Zn1416  2.003   .     S
O1409  Zn1415  2.003   .     S
O1410  Zn1416  2.003   .     S
O1411  Zn1415  2.007   .     S
O1412  Zn1416  2.007   .     S
O1413  Zn1415  2.007   .     S
O1414  Zn1416  2.007   .     S
O1417  C1418   1.420   .     S
C1418  C1421   1.529   .     S
C1418  H1420   1.116   .     S
C1418  H1419   1.109   .     S
C1421  H1423   1.111   .     S
C1421  C1424   1.526   .     S
C1421  H1422   1.111   .     S
C1424  H1427   1.111   .     S
C1424  H1426   1.110   .     S
C1424  H1425   1.111   .     S
O1428  C1429   1.420   .     S
C1429  H1431   1.116   .     S
C1429  C1432   1.529   .     S
C1429  H1430   1.109   .     S
C1432  C1435   1.526   .     S
C1432  H1434   1.110   .     S
C1432  H1433   1.111   .     S
C1435  H1437   1.110   .     S
C1435  H1438   1.111   .     S
C1435  H1436   1.111   .     S
O1439  C1440   1.422   .     S
C1440  H1441   1.109   .     S
C1440  H1442   1.112   .     S
C1440  C1443   1.535   .     S
C1443  C1446   1.525   .     S
C1443  H1444   1.108   .     S
C1443  H1445   1.111   .     S
C1446  H1448   1.111   .     S
C1446  H1449   1.109   .     S
C1446  H1447   1.111   .     S
O1450  C1451   1.422   .     S
C1451  H1452   1.109   .     S
C1451  H1453   1.112   .     S
C1451  C1454   1.535   .     S
C1454  H1456   1.111   .     S
C1454  C1457   1.525   .     S
C1454  H1455   1.109   .     S
C1457  H1458   1.111   .     S
C1457  H1459   1.111   .     S
C1457  H1460   1.109   .     S
C1471  O1508   1.281   .     A
C1471  O1505   1.282   .     A
C1471  C1480   1.422   .     S
C1472  O1506   1.281   .     A
C1472  O1507   1.282   .     A
C1472  C1479   1.422   .     S
C1473  C1498   1.402   .     A
C1473  H1501   1.083   .     S
C1474  H1502   1.083   .     S
C1474  C1497   1.402   .     A
C1474  C618    1.385   1_556 S
C1475  C1480   1.398   .     A
C1475  H1561   1.084   .     S
C1475  C1673   1.370   1_455 S
C1476  C1479   1.397   .     A
C1476  H1562   1.084   .     S
C1476  C1576   1.370   .     S
C1477  H1563   1.084   .     S
C1477  C1479   1.398   .     A
C1477  C1573   1.370   .     S
C1478  H1564   1.084   .     S
C1478  C1480   1.397   .     A
C1478  C1672   1.370   1_455 S
C1481  H1565   1.082   .     S
C1481  N1504   1.366   .     A
C1482  H1566   1.082   .     S
C1482  N1503   1.366   .     A
C1482  C895    1.415   1_565 S
C1483  N1504   1.366   .     A
C1483  H1567   1.082   .     S
C1484  N1503   1.366   .     A
C1484  H1568   1.082   .     S
C1484  C893    1.415   1_565 S
C1485  C1490   1.422   .     S
C1485  O1509   1.284   .     A
C1485  O1512   1.277   .     A
C1486  C1489   1.422   .     S
C1486  O1510   1.277   .     A
C1486  O1511   1.284   .     A
C1487  O1515   1.388   .     S
C1487  C1497   1.392   .     A
C1487  C1489   1.401   .     A
C1488  C1498   1.392   .     A
C1488  O1526   1.388   .     S
C1488  C1490   1.402   .     A
C1489  C1491   1.398   .     A
C1490  C1492   1.397   .     A
C1491  O1537   1.391   .     S
C1491  C1493   1.398   .     A
C1492  O1548   1.391   .     S
C1492  C1494   1.398   .     A
C1493  C1499   1.401   .     A
C1493  C1495   1.415   .     A
C1494  C1496   1.415   .     A
C1494  C1500   1.401   .     A
C1495  C1497   1.414   .     A
C1495  C614    1.398   1_556 S
C1496  C1498   1.414   .     A
C1499  H1559   1.083   .     S
C1499  C591    1.385   1_556 S
C1500  H1560   1.083   .     S
N1503  Zn1513  2.005   .     S
N1504  Zn1514  2.005   .     S
O1505  Zn1513  2.003   .     S
O1506  Zn1514  2.003   .     S
O1507  Zn1513  2.003   .     S
O1508  Zn1514  2.003   .     S
O1509  Zn1513  2.007   .     S
O1510  Zn1514  2.007   .     S
O1511  Zn1513  2.007   .     S
O1512  Zn1514  2.007   .     S
O1515  C1516   1.420   .     S
C1516  C1519   1.529   .     S
C1516  H1518   1.116   .     S
C1516  H1517   1.109   .     S
C1519  H1521   1.111   .     S
C1519  C1522   1.526   .     S
C1519  H1520   1.111   .     S
C1522  H1525   1.111   .     S
C1522  H1524   1.110   .     S
C1522  H1523   1.111   .     S
O1526  C1527   1.420   .     S
C1527  H1529   1.116   .     S
C1527  C1530   1.529   .     S
C1527  H1528   1.109   .     S
C1530  C1533   1.526   .     S
C1530  H1532   1.110   .     S
C1530  H1531   1.111   .     S
C1533  H1535   1.110   .     S
C1533  H1536   1.111   .     S
C1533  H1534   1.111   .     S
O1537  C1538   1.422   .     S
C1538  H1539   1.109   .     S
C1538  H1540   1.112   .     S
C1538  C1541   1.535   .     S
C1541  C1544   1.525   .     S
C1541  H1542   1.108   .     S
C1541  H1543   1.111   .     S
C1544  H1546   1.111   .     S
C1544  H1547   1.109   .     S
C1544  H1545   1.111   .     S
O1548  C1549   1.422   .     S
C1549  H1550   1.109   .     S
C1549  H1551   1.112   .     S
C1549  C1552   1.535   .     S
C1552  H1554   1.111   .     S
C1552  C1555   1.525   .     S
C1552  H1553   1.109   .     S
C1555  H1556   1.111   .     S
C1555  H1557   1.111   .     S
C1555  H1558   1.109   .     S
C1569  O1606   1.281   .     A
C1569  O1603   1.282   .     A
C1569  C1578   1.422   .     S
C1570  O1604   1.281   .     A
C1570  O1605   1.282   .     A
C1570  C1577   1.422   .     S
C1571  C1596   1.402   .     A
C1571  H1599   1.083   .     S
C1572  H1600   1.083   .     S
C1572  C1595   1.402   .     A
C1572  C716    1.385   1_556 S
C1573  C1578   1.398   .     A
C1573  H1659   1.084   .     S
C1574  C1577   1.397   .     A
C1574  H1660   1.084   .     S
C1574  C1674   1.370   .     S
C1575  H1661   1.084   .     S
C1575  C1577   1.398   .     A
C1575  C1671   1.370   .     S
C1576  H1662   1.084   .     S
C1576  C1578   1.397   .     A
C1579  H1663   1.082   .     S
C1579  N1602   1.366   .     A
C1580  H1664   1.082   .     S
C1580  N1601   1.366   .     A
C1580  C993    1.415   1_565 S
C1581  N1602   1.366   .     A
C1581  H1665   1.082   .     S
C1582  N1601   1.366   .     A
C1582  H1666   1.082   .     S
C1582  C991    1.415   1_565 S
C1583  C1588   1.422   .     S
C1583  O1607   1.284   .     A
C1583  O1610   1.277   .     A
C1584  C1587   1.422   .     S
C1584  O1608   1.277   .     A
C1584  O1609   1.284   .     A
C1585  O1613   1.388   .     S
C1585  C1595   1.392   .     A
C1585  C1587   1.401   .     A
C1586  C1596   1.392   .     A
C1586  O1624   1.388   .     S
C1586  C1588   1.402   .     A
C1587  C1589   1.398   .     A
C1588  C1590   1.397   .     A
C1589  O1635   1.391   .     S
C1589  C1591   1.398   .     A
C1590  O1646   1.391   .     S
C1590  C1592   1.398   .     A
C1591  C1597   1.401   .     A
C1591  C1593   1.415   .     A
C1592  C1594   1.415   .     A
C1592  C1598   1.401   .     A
C1593  C1595   1.414   .     A
C1593  C712    1.398   1_556 S
C1594  C1596   1.414   .     A
C1597  H1657   1.083   .     S
C1597  C689    1.385   1_556 S
C1598  H1658   1.083   .     S
N1601  Zn1611  2.005   .     S
N1602  Zn1612  2.005   .     S
O1603  Zn1611  2.003   .     S
O1604  Zn1612  2.003   .     S
O1605  Zn1611  2.003   .     S
O1606  Zn1612  2.003   .     S
O1607  Zn1611  2.007   .     S
O1608  Zn1612  2.007   .     S
O1609  Zn1611  2.007   .     S
O1610  Zn1612  2.007   .     S
O1613  C1614   1.420   .     S
C1614  C1617   1.529   .     S
C1614  H1616   1.116   .     S
C1614  H1615   1.109   .     S
C1617  H1619   1.111   .     S
C1617  C1620   1.526   .     S
C1617  H1618   1.111   .     S
C1620  H1623   1.111   .     S
C1620  H1622   1.110   .     S
C1620  H1621   1.111   .     S
O1624  C1625   1.420   .     S
C1625  H1627   1.116   .     S
C1625  C1628   1.529   .     S
C1625  H1626   1.109   .     S
C1628  C1631   1.526   .     S
C1628  H1630   1.110   .     S
C1628  H1629   1.111   .     S
C1631  H1633   1.110   .     S
C1631  H1634   1.111   .     S
C1631  H1632   1.111   .     S
O1635  C1636   1.422   .     S
C1636  H1637   1.109   .     S
C1636  H1638   1.112   .     S
C1636  C1639   1.535   .     S
C1639  C1642   1.525   .     S
C1639  H1640   1.108   .     S
C1639  H1641   1.111   .     S
C1642  H1644   1.111   .     S
C1642  H1645   1.109   .     S
C1642  H1643   1.111   .     S
O1646  C1647   1.422   .     S
C1647  H1648   1.109   .     S
C1647  H1649   1.112   .     S
C1647  C1650   1.535   .     S
C1650  H1652   1.111   .     S
C1650  C1653   1.525   .     S
C1650  H1651   1.109   .     S
C1653  H1654   1.111   .     S
C1653  H1655   1.111   .     S
C1653  H1656   1.109   .     S
C1667  O1704   1.281   .     A
C1667  O1701   1.282   .     A
C1667  C1676   1.422   .     S
C1668  O1702   1.281   .     A
C1668  O1703   1.282   .     A
C1668  C1675   1.422   .     S
C1669  C1694   1.402   .     A
C1669  H1697   1.083   .     S
C1670  H1698   1.083   .     S
C1670  C1693   1.402   .     A
C1670  C814    1.385   1_556 S
C1671  C1676   1.398   .     A
C1671  H1757   1.084   .     S
C1672  C1675   1.397   .     A
C1672  H1758   1.084   .     S
C1672  C1478   1.370   1_655 S
C1673  H1759   1.084   .     S
C1673  C1675   1.398   .     A
C1673  C1475   1.370   1_655 S
C1674  H1760   1.084   .     S
C1674  C1676   1.397   .     A
C1677  H1761   1.082   .     S
C1677  N1700   1.366   .     A
C1678  H1762   1.082   .     S
C1678  N1699   1.366   .     A
C1678  C1091   1.415   1_565 S
C1679  N1700   1.366   .     A
C1679  H1763   1.082   .     S
C1680  N1699   1.366   .     A
C1680  H1764   1.082   .     S
C1680  C1089   1.415   1_565 S
C1681  C1686   1.422   .     S
C1681  O1705   1.284   .     A
C1681  O1708   1.277   .     A
C1682  C1685   1.422   .     S
C1682  O1706   1.277   .     A
C1682  O1707   1.284   .     A
C1683  O1711   1.388   .     S
C1683  C1693   1.392   .     A
C1683  C1685   1.401   .     A
C1684  C1694   1.392   .     A
C1684  O1722   1.388   .     S
C1684  C1686   1.402   .     A
C1685  C1687   1.398   .     A
C1686  C1688   1.397   .     A
C1687  O1733   1.391   .     S
C1687  C1689   1.398   .     A
C1688  O1744   1.391   .     S
C1688  C1690   1.398   .     A
C1689  C1695   1.401   .     A
C1689  C1691   1.415   .     A
C1690  C1692   1.415   .     A
C1690  C1696   1.401   .     A
C1691  C1693   1.414   .     A
C1691  C810    1.398   1_556 S
C1692  C1694   1.414   .     A
C1695  H1755   1.083   .     S
C1695  C787    1.385   1_556 S
C1696  H1756   1.083   .     S
N1699  Zn1709  2.005   .     S
N1700  Zn1710  2.005   .     S
O1701  Zn1709  2.003   .     S
O1702  Zn1710  2.003   .     S
O1703  Zn1709  2.003   .     S
O1704  Zn1710  2.003   .     S
O1705  Zn1709  2.007   .     S
O1706  Zn1710  2.007   .     S
O1707  Zn1709  2.007   .     S
O1708  Zn1710  2.007   .     S
O1711  C1712   1.420   .     S
C1712  C1715   1.529   .     S
C1712  H1714   1.116   .     S
C1712  H1713   1.109   .     S
C1715  H1717   1.111   .     S
C1715  C1718   1.526   .     S
C1715  H1716   1.111   .     S
C1718  H1721   1.111   .     S
C1718  H1720   1.110   .     S
C1718  H1719   1.111   .     S
O1722  C1723   1.420   .     S
C1723  H1725   1.116   .     S
C1723  C1726   1.529   .     S
C1723  H1724   1.109   .     S
C1726  C1729   1.526   .     S
C1726  H1728   1.110   .     S
C1726  H1727   1.111   .     S
C1729  H1731   1.110   .     S
C1729  H1732   1.111   .     S
C1729  H1730   1.111   .     S
O1733  C1734   1.422   .     S
C1734  H1735   1.109   .     S
C1734  H1736   1.112   .     S
C1734  C1737   1.535   .     S
C1737  C1740   1.525   .     S
C1737  H1738   1.108   .     S
C1737  H1739   1.111   .     S
C1740  H1742   1.111   .     S
C1740  H1743   1.109   .     S
C1740  H1741   1.111   .     S
O1744  C1745   1.422   .     S
C1745  H1746   1.109   .     S
C1745  H1747   1.112   .     S
C1745  C1748   1.535   .     S
C1748  H1750   1.111   .     S
C1748  C1751   1.525   .     S
C1748  H1749   1.109   .     S
C1751  H1752   1.111   .     S
C1751  H1753   1.111   .     S
C1751  H1754   1.109   .     S
