data_str_m3_o1_o16_pcu_sym.17
_audit_creation_date              2020-01-03
_audit_creation_method            'Materials Studio'
_symmetry_space_group_name_H-M    'P1'
_symmetry_Int_Tables_number       1
_symmetry_cell_setting            triclinic
loop_
_symmetry_equiv_pos_as_xyz
  x,y,z
_cell_length_a                    29.5888
_cell_length_b                    32.0165
_cell_length_c                    25.9917
_cell_angle_alpha                 90.1189
_cell_angle_beta                  72.2930
_cell_angle_gamma                 89.6602
loop_
_atom_site_label
_atom_site_type_symbol
_atom_site_fract_x
_atom_site_fract_y
_atom_site_fract_z
_atom_site_U_iso_or_equiv
_atom_site_adp_type
_atom_site_occupancy
C1     C     0.16647   0.24659   0.25027   0.00000  Uiso   1.00
C2     C     0.12828   0.19171   0.40572   0.00000  Uiso   1.00
C3     C     0.19133   0.31102   0.28114   0.00000  Uiso   1.00
C4     C     0.14152   0.17390   0.35066   0.00000  Uiso   1.00
C5     C     0.19223   0.02075   0.28143   0.00000  Uiso   1.00
C6     C     0.16648   0.04242   0.25235   0.00000  Uiso   1.00
C7     C     0.14003   0.02159   0.22407   0.00000  Uiso   1.00
C8     C     0.13966   0.31213   0.22375   0.00000  Uiso   1.00
C9     C     0.16579   0.29060   0.25169   0.00000  Uiso   1.00
C10    C     0.31506   0.13354   0.22953   0.00000  Uiso   1.00
C11    C     0.02959   0.13349   0.22964   0.00000  Uiso   1.00
C12    C     0.14978   0.20401   0.48744   0.00000  Uiso   1.00
C13    C     0.01853   0.20011   0.26960   0.00000  Uiso   1.00
C14    C     0.30416   0.20026   0.26909   0.00000  Uiso   1.00
C15    C     0.16654   0.08667   0.25103   0.00000  Uiso   1.00
C16    C     0.19236   0.16638   0.14792   0.00000  Uiso   1.00
C17    C     0.26769   0.17154   0.00239   0.00000  Uiso   1.00
C18    C     0.20709   0.17048   0.08954   0.00000  Uiso   1.00
C19    C     0.08068   0.19916   0.43414   0.00000  Uiso   1.00
C20    C     0.06786   0.21283   0.48759   0.00000  Uiso   1.00
C21    C     0.10171   0.21537   0.01527   0.00000  Uiso   1.00
C22    C     0.26721   0.03578   0.29672   0.00000  Uiso   1.00
C23    C     0.16312   0.20134   0.43089   0.00000  Uiso   1.00
C24    C     0.00329   0.12359   0.48817   0.00000  Uiso   1.00
C25    C     0.18513   0.19283   0.01178   0.00000  Uiso   1.00
C26    C     0.23364   0.18896   0.47988   0.00000  Uiso   1.00
C27    C     0.24618   0.20191   0.42607   0.00000  Uiso   1.00
C28    C     0.21100   0.20828   0.40191   0.00000  Uiso   1.00
C29    C     0.17265   0.17989   0.06500   0.00000  Uiso   1.00
C30    C     0.25450   0.16623   0.05859   0.00000  Uiso   1.00
H31    H     0.28034   0.15698   0.07823   0.00000  Uiso   1.00
H32    H     0.05375   0.19614   0.41414   0.00000  Uiso   1.00
H33    H     0.03122   0.22134   0.00758   0.00000  Uiso   1.00
H34    H     0.22145   0.21843   0.36052   0.00000  Uiso   1.00
H35    H     0.21003   0.29353   0.30413   0.00000  Uiso   1.00
H36    H     0.20099   0.03766   0.35411   0.00000  Uiso   1.00
H37    H     0.27594   0.00382   0.30749   0.00000  Uiso   1.00
H38    H     0.28348   0.05879   0.31767   0.00000  Uiso   1.00
H39    H     0.28257   0.04020   0.25246   0.00000  Uiso   1.00
H40    H     0.31523   0.15236   0.42859   0.00000  Uiso   1.00
H41    H     0.03518   0.11306   0.45543   0.00000  Uiso   1.00
H42    H     0.12035   0.03842   0.20157   0.00000  Uiso   1.00
H43    H     0.31249   0.09654   0.00106   0.00000  Uiso   1.00
H44    H     0.01570   0.13471   0.02198   0.00000  Uiso   1.00
H45    H     0.02860   0.19819   0.11712   0.00000  Uiso   1.00
H46    H     0.11983   0.29588   0.20107   0.00000  Uiso   1.00
H47    H     0.30172   0.10728   0.21253   0.00000  Uiso   1.00
H48    H     0.05218   0.10697   0.21314   0.00000  Uiso   1.00
H49    H     0.03218   0.22691   0.28534   0.00000  Uiso   1.00
H50    H     0.28234   0.22756   0.28345   0.00000  Uiso   1.00
H51    H     0.28276   0.20578   0.40185   0.00000  Uiso   1.00
H52    H     0.13585   0.17672   0.08776   0.00000  Uiso   1.00
N53    N     0.04760   0.16668   0.25001   0.00000  Uiso   1.00
N54    N     0.28573   0.16665   0.25001   0.00000  Uiso   1.00
N55    N     0.21634   0.04219   0.31325   0.00000  Uiso   1.00
N56    N     0.31301   0.15703   0.46850   0.00000  Uiso   1.00
O57    O     0.12846   0.22775   0.25000   0.00000  Uiso   1.00
O58    O     0.04975   0.27672   0.07638   0.00000  Uiso   1.00
O59    O     0.05582   0.20887   0.12780   0.00000  Uiso   1.00
O60    O     0.20490   0.22774   0.25000   0.00000  Uiso   1.00
O61    O     0.10947   0.16666   0.32681   0.00000  Uiso   1.00
O62    O     0.18591   0.16665   0.32681   0.00000  Uiso   1.00
O63    O     0.12843   0.10559   0.25000   0.00000  Uiso   1.00
O64    O     0.20488   0.10558   0.25000   0.00000  Uiso   1.00
O65    O     0.14742   0.16668   0.17319   0.00000  Uiso   1.00
O66    O     0.22387   0.16667   0.17319   0.00000  Uiso   1.00
O67    O     0.12561   0.26066   0.09105   0.00000  Uiso   1.00
S68    S     0.08367   0.24206   0.07839   0.00000  Uiso   1.00
Zn69   Zn    0.11562   0.16667   0.25000   0.00000  Uiso   1.00
Zn70   Zn    0.21771   0.16666   0.25000   0.00000  Uiso   1.00
C71    C     0.49980   0.24659   0.25027   0.00000  Uiso   1.00
C72    C     0.46161   0.19171   0.40572   0.00000  Uiso   1.00
C73    C     0.52466   0.31102   0.28114   0.00000  Uiso   1.00
C74    C     0.47486   0.17390   0.35066   0.00000  Uiso   1.00
C75    C     0.52556   0.02075   0.28143   0.00000  Uiso   1.00
C76    C     0.49981   0.04242   0.25235   0.00000  Uiso   1.00
C77    C     0.47336   0.02159   0.22407   0.00000  Uiso   1.00
C78    C     0.47299   0.31213   0.22375   0.00000  Uiso   1.00
C79    C     0.49913   0.29060   0.25169   0.00000  Uiso   1.00
C80    C     0.64840   0.13354   0.22953   0.00000  Uiso   1.00
C81    C     0.36292   0.13349   0.22964   0.00000  Uiso   1.00
C82    C     0.48312   0.20401   0.48744   0.00000  Uiso   1.00
C83    C     0.35186   0.20011   0.26960   0.00000  Uiso   1.00
C84    C     0.63749   0.20026   0.26909   0.00000  Uiso   1.00
C85    C     0.49987   0.08667   0.25103   0.00000  Uiso   1.00
C86    C     0.52569   0.16638   0.14792   0.00000  Uiso   1.00
C87    C     0.60103   0.17154   0.00239   0.00000  Uiso   1.00
C88    C     0.54043   0.17048   0.08954   0.00000  Uiso   1.00
C89    C     0.41401   0.19916   0.43414   0.00000  Uiso   1.00
C90    C     0.40120   0.21283   0.48759   0.00000  Uiso   1.00
C91    C     0.43504   0.21537   0.01527   0.00000  Uiso   1.00
C92    C     0.60054   0.03578   0.29672   0.00000  Uiso   1.00
C93    C     0.49645   0.20134   0.43089   0.00000  Uiso   1.00
C94    C     0.33662   0.12359   0.48817   0.00000  Uiso   1.00
C95    C     0.51846   0.19283   0.01178   0.00000  Uiso   1.00
C96    C     0.56698   0.18896   0.47988   0.00000  Uiso   1.00
C97    C     0.57951   0.20191   0.42607   0.00000  Uiso   1.00
C98    C     0.54433   0.20828   0.40191   0.00000  Uiso   1.00
C99    C     0.50599   0.17989   0.06500   0.00000  Uiso   1.00
C100   C     0.58783   0.16623   0.05859   0.00000  Uiso   1.00
H101   H     0.61367   0.15698   0.07823   0.00000  Uiso   1.00
H102   H     0.38708   0.19614   0.41414   0.00000  Uiso   1.00
H103   H     0.36456   0.22134   0.00758   0.00000  Uiso   1.00
H104   H     0.55478   0.21843   0.36052   0.00000  Uiso   1.00
H105   H     0.54336   0.29353   0.30413   0.00000  Uiso   1.00
H106   H     0.53433   0.03766   0.35411   0.00000  Uiso   1.00
H107   H     0.60928   0.00382   0.30749   0.00000  Uiso   1.00
H108   H     0.61681   0.05879   0.31767   0.00000  Uiso   1.00
H109   H     0.61590   0.04020   0.25246   0.00000  Uiso   1.00
H110   H     0.64856   0.15236   0.42859   0.00000  Uiso   1.00
H111   H     0.36851   0.11306   0.45543   0.00000  Uiso   1.00
H112   H     0.45368   0.03842   0.20157   0.00000  Uiso   1.00
H113   H     0.64582   0.09654   0.00106   0.00000  Uiso   1.00
H114   H     0.34904   0.13471   0.02198   0.00000  Uiso   1.00
H115   H     0.36193   0.19819   0.11712   0.00000  Uiso   1.00
H116   H     0.45316   0.29588   0.20107   0.00000  Uiso   1.00
H117   H     0.63506   0.10728   0.21253   0.00000  Uiso   1.00
H118   H     0.38551   0.10697   0.21314   0.00000  Uiso   1.00
H119   H     0.36551   0.22691   0.28534   0.00000  Uiso   1.00
H120   H     0.61568   0.22756   0.28345   0.00000  Uiso   1.00
H121   H     0.61609   0.20578   0.40185   0.00000  Uiso   1.00
H122   H     0.46918   0.17672   0.08776   0.00000  Uiso   1.00
N123   N     0.38093   0.16668   0.25001   0.00000  Uiso   1.00
N124   N     0.61906   0.16665   0.25001   0.00000  Uiso   1.00
N125   N     0.54968   0.04219   0.31325   0.00000  Uiso   1.00
N126   N     0.64634   0.15703   0.46850   0.00000  Uiso   1.00
O127   O     0.46179   0.22775   0.25000   0.00000  Uiso   1.00
O128   O     0.38309   0.27672   0.07638   0.00000  Uiso   1.00
O129   O     0.38915   0.20887   0.12780   0.00000  Uiso   1.00
O130   O     0.53823   0.22774   0.25000   0.00000  Uiso   1.00
O131   O     0.44280   0.16666   0.32681   0.00000  Uiso   1.00
O132   O     0.51924   0.16665   0.32681   0.00000  Uiso   1.00
O133   O     0.46177   0.10559   0.25000   0.00000  Uiso   1.00
O134   O     0.53821   0.10558   0.25000   0.00000  Uiso   1.00
O135   O     0.48076   0.16668   0.17319   0.00000  Uiso   1.00
O136   O     0.55720   0.16667   0.17319   0.00000  Uiso   1.00
O137   O     0.45895   0.26066   0.09105   0.00000  Uiso   1.00
S138   S     0.41701   0.24206   0.07839   0.00000  Uiso   1.00
Zn139  Zn    0.44896   0.16667   0.25000   0.00000  Uiso   1.00
Zn140  Zn    0.55104   0.16666   0.25000   0.00000  Uiso   1.00
C141   C     0.83313   0.24659   0.25027   0.00000  Uiso   1.00
C142   C     0.79494   0.19171   0.40572   0.00000  Uiso   1.00
C143   C     0.85799   0.31102   0.28114   0.00000  Uiso   1.00
C144   C     0.80819   0.17390   0.35066   0.00000  Uiso   1.00
C145   C     0.85889   0.02075   0.28143   0.00000  Uiso   1.00
C146   C     0.83315   0.04242   0.25235   0.00000  Uiso   1.00
C147   C     0.80669   0.02159   0.22407   0.00000  Uiso   1.00
C148   C     0.80633   0.31213   0.22375   0.00000  Uiso   1.00
C149   C     0.83246   0.29060   0.25169   0.00000  Uiso   1.00
C150   C     0.98173   0.13354   0.22953   0.00000  Uiso   1.00
C151   C     0.69626   0.13349   0.22964   0.00000  Uiso   1.00
C152   C     0.81645   0.20401   0.48744   0.00000  Uiso   1.00
C153   C     0.68520   0.20011   0.26960   0.00000  Uiso   1.00
C154   C     0.97082   0.20026   0.26909   0.00000  Uiso   1.00
C155   C     0.83321   0.08667   0.25103   0.00000  Uiso   1.00
C156   C     0.85903   0.16638   0.14792   0.00000  Uiso   1.00
C157   C     0.93436   0.17154   0.00239   0.00000  Uiso   1.00
C158   C     0.87376   0.17048   0.08954   0.00000  Uiso   1.00
C159   C     0.74735   0.19916   0.43414   0.00000  Uiso   1.00
C160   C     0.73453   0.21283   0.48759   0.00000  Uiso   1.00
C161   C     0.76838   0.21537   0.01527   0.00000  Uiso   1.00
C162   C     0.93387   0.03578   0.29672   0.00000  Uiso   1.00
C163   C     0.82978   0.20134   0.43089   0.00000  Uiso   1.00
C164   C     0.66995   0.12359   0.48817   0.00000  Uiso   1.00
C165   C     0.85179   0.19283   0.01178   0.00000  Uiso   1.00
C166   C     0.90031   0.18896   0.47988   0.00000  Uiso   1.00
C167   C     0.91284   0.20191   0.42607   0.00000  Uiso   1.00
C168   C     0.87767   0.20828   0.40191   0.00000  Uiso   1.00
C169   C     0.83932   0.17989   0.06500   0.00000  Uiso   1.00
C170   C     0.92117   0.16623   0.05859   0.00000  Uiso   1.00
H171   H     0.94701   0.15698   0.07823   0.00000  Uiso   1.00
H172   H     0.72042   0.19614   0.41414   0.00000  Uiso   1.00
H173   H     0.69789   0.22134   0.00758   0.00000  Uiso   1.00
H174   H     0.88812   0.21843   0.36052   0.00000  Uiso   1.00
H175   H     0.87670   0.29353   0.30413   0.00000  Uiso   1.00
H176   H     0.86766   0.03766   0.35411   0.00000  Uiso   1.00
H177   H     0.94261   0.00382   0.30749   0.00000  Uiso   1.00
H178   H     0.95014   0.05879   0.31767   0.00000  Uiso   1.00
H179   H     0.94924   0.04020   0.25246   0.00000  Uiso   1.00
H180   H     0.98190   0.15236   0.42859   0.00000  Uiso   1.00
H181   H     0.70184   0.11306   0.45543   0.00000  Uiso   1.00
H182   H     0.78702   0.03842   0.20157   0.00000  Uiso   1.00
H183   H     0.97915   0.09654   0.00106   0.00000  Uiso   1.00
H184   H     0.68237   0.13471   0.02198   0.00000  Uiso   1.00
H185   H     0.69527   0.19819   0.11712   0.00000  Uiso   1.00
H186   H     0.78650   0.29588   0.20107   0.00000  Uiso   1.00
H187   H     0.96839   0.10728   0.21253   0.00000  Uiso   1.00
H188   H     0.71885   0.10697   0.21314   0.00000  Uiso   1.00
H189   H     0.69885   0.22691   0.28534   0.00000  Uiso   1.00
H190   H     0.94901   0.22756   0.28345   0.00000  Uiso   1.00
H191   H     0.94943   0.20578   0.40185   0.00000  Uiso   1.00
H192   H     0.80251   0.17672   0.08776   0.00000  Uiso   1.00
N193   N     0.71426   0.16668   0.25001   0.00000  Uiso   1.00
N194   N     0.95239   0.16665   0.25001   0.00000  Uiso   1.00
N195   N     0.88301   0.04219   0.31325   0.00000  Uiso   1.00
N196   N     0.97967   0.15703   0.46850   0.00000  Uiso   1.00
O197   O     0.79512   0.22775   0.25000   0.00000  Uiso   1.00
O198   O     0.71642   0.27672   0.07638   0.00000  Uiso   1.00
O199   O     0.72249   0.20887   0.12780   0.00000  Uiso   1.00
O200   O     0.87157   0.22774   0.25000   0.00000  Uiso   1.00
O201   O     0.77613   0.16666   0.32681   0.00000  Uiso   1.00
O202   O     0.85258   0.16665   0.32681   0.00000  Uiso   1.00
O203   O     0.79510   0.10559   0.25000   0.00000  Uiso   1.00
O204   O     0.87154   0.10558   0.25000   0.00000  Uiso   1.00
O205   O     0.81409   0.16668   0.17319   0.00000  Uiso   1.00
O206   O     0.89053   0.16667   0.17319   0.00000  Uiso   1.00
O207   O     0.79228   0.26066   0.09105   0.00000  Uiso   1.00
S208   S     0.75034   0.24206   0.07839   0.00000  Uiso   1.00
Zn209  Zn    0.78229   0.16667   0.25000   0.00000  Uiso   1.00
Zn210  Zn    0.88438   0.16666   0.25000   0.00000  Uiso   1.00
C211   C     0.16647   0.57993   0.25027   0.00000  Uiso   1.00
C212   C     0.12828   0.52505   0.40572   0.00000  Uiso   1.00
C213   C     0.19133   0.64435   0.28114   0.00000  Uiso   1.00
C214   C     0.14152   0.50723   0.35066   0.00000  Uiso   1.00
C215   C     0.19223   0.35408   0.28143   0.00000  Uiso   1.00
C216   C     0.16648   0.37575   0.25235   0.00000  Uiso   1.00
C217   C     0.14003   0.35492   0.22407   0.00000  Uiso   1.00
C218   C     0.13966   0.64546   0.22375   0.00000  Uiso   1.00
C219   C     0.16579   0.62393   0.25169   0.00000  Uiso   1.00
C220   C     0.31506   0.46687   0.22953   0.00000  Uiso   1.00
C221   C     0.02959   0.46683   0.22964   0.00000  Uiso   1.00
C222   C     0.14978   0.53734   0.48744   0.00000  Uiso   1.00
C223   C     0.01853   0.53344   0.26960   0.00000  Uiso   1.00
C224   C     0.30416   0.53359   0.26909   0.00000  Uiso   1.00
C225   C     0.16654   0.42000   0.25103   0.00000  Uiso   1.00
C226   C     0.19236   0.49972   0.14792   0.00000  Uiso   1.00
C227   C     0.26769   0.50487   0.00239   0.00000  Uiso   1.00
C228   C     0.20709   0.50381   0.08954   0.00000  Uiso   1.00
C229   C     0.08068   0.53250   0.43414   0.00000  Uiso   1.00
C230   C     0.06786   0.54616   0.48759   0.00000  Uiso   1.00
C231   C     0.10171   0.54870   0.01527   0.00000  Uiso   1.00
C232   C     0.26721   0.36912   0.29672   0.00000  Uiso   1.00
C233   C     0.16312   0.53467   0.43089   0.00000  Uiso   1.00
C234   C     0.00329   0.45692   0.48817   0.00000  Uiso   1.00
C235   C     0.18513   0.52617   0.01178   0.00000  Uiso   1.00
C236   C     0.23364   0.52229   0.47988   0.00000  Uiso   1.00
C237   C     0.24618   0.53524   0.42607   0.00000  Uiso   1.00
C238   C     0.21100   0.54162   0.40191   0.00000  Uiso   1.00
C239   C     0.17265   0.51322   0.06500   0.00000  Uiso   1.00
C240   C     0.25450   0.49956   0.05859   0.00000  Uiso   1.00
H241   H     0.28034   0.49031   0.07823   0.00000  Uiso   1.00
H242   H     0.05375   0.52947   0.41414   0.00000  Uiso   1.00
H243   H     0.03122   0.55467   0.00758   0.00000  Uiso   1.00
H244   H     0.22145   0.55177   0.36052   0.00000  Uiso   1.00
H245   H     0.21003   0.62686   0.30413   0.00000  Uiso   1.00
H246   H     0.20099   0.37099   0.35411   0.00000  Uiso   1.00
H247   H     0.27594   0.33715   0.30749   0.00000  Uiso   1.00
H248   H     0.28348   0.39212   0.31767   0.00000  Uiso   1.00
H249   H     0.28257   0.37353   0.25246   0.00000  Uiso   1.00
H250   H     0.31523   0.48569   0.42859   0.00000  Uiso   1.00
H251   H     0.03518   0.44640   0.45543   0.00000  Uiso   1.00
H252   H     0.12035   0.37175   0.20157   0.00000  Uiso   1.00
H253   H     0.31249   0.42988   0.00106   0.00000  Uiso   1.00
H254   H     0.01570   0.46804   0.02198   0.00000  Uiso   1.00
H255   H     0.02860   0.53152   0.11712   0.00000  Uiso   1.00
H256   H     0.11983   0.62921   0.20107   0.00000  Uiso   1.00
H257   H     0.30172   0.44061   0.21253   0.00000  Uiso   1.00
H258   H     0.05218   0.44030   0.21314   0.00000  Uiso   1.00
H259   H     0.03218   0.56024   0.28534   0.00000  Uiso   1.00
H260   H     0.28234   0.56089   0.28345   0.00000  Uiso   1.00
H261   H     0.28276   0.53911   0.40185   0.00000  Uiso   1.00
H262   H     0.13585   0.51005   0.08776   0.00000  Uiso   1.00
N263   N     0.04760   0.50001   0.25001   0.00000  Uiso   1.00
N264   N     0.28573   0.49998   0.25001   0.00000  Uiso   1.00
N265   N     0.21634   0.37553   0.31325   0.00000  Uiso   1.00
N266   N     0.31301   0.49036   0.46850   0.00000  Uiso   1.00
O267   O     0.12846   0.56108   0.25000   0.00000  Uiso   1.00
O268   O     0.04975   0.61006   0.07638   0.00000  Uiso   1.00
O269   O     0.05582   0.54220   0.12780   0.00000  Uiso   1.00
O270   O     0.20490   0.56107   0.25000   0.00000  Uiso   1.00
O271   O     0.10947   0.50000   0.32681   0.00000  Uiso   1.00
O272   O     0.18591   0.49999   0.32681   0.00000  Uiso   1.00
O273   O     0.12843   0.43893   0.25000   0.00000  Uiso   1.00
O274   O     0.20488   0.43892   0.25000   0.00000  Uiso   1.00
O275   O     0.14742   0.50001   0.17319   0.00000  Uiso   1.00
O276   O     0.22387   0.50000   0.17319   0.00000  Uiso   1.00
O277   O     0.12561   0.59399   0.09105   0.00000  Uiso   1.00
S278   S     0.08367   0.57539   0.07839   0.00000  Uiso   1.00
Zn279  Zn    0.11562   0.50001   0.25000   0.00000  Uiso   1.00
Zn280  Zn    0.21771   0.49999   0.25000   0.00000  Uiso   1.00
C281   C     0.49980   0.57993   0.25027   0.00000  Uiso   1.00
C282   C     0.46161   0.52505   0.40572   0.00000  Uiso   1.00
C283   C     0.52466   0.64435   0.28114   0.00000  Uiso   1.00
C284   C     0.47486   0.50723   0.35066   0.00000  Uiso   1.00
C285   C     0.52556   0.35408   0.28143   0.00000  Uiso   1.00
C286   C     0.49981   0.37575   0.25235   0.00000  Uiso   1.00
C287   C     0.47336   0.35492   0.22407   0.00000  Uiso   1.00
C288   C     0.47299   0.64546   0.22375   0.00000  Uiso   1.00
C289   C     0.49913   0.62393   0.25169   0.00000  Uiso   1.00
C290   C     0.64840   0.46687   0.22953   0.00000  Uiso   1.00
C291   C     0.36292   0.46683   0.22964   0.00000  Uiso   1.00
C292   C     0.48312   0.53734   0.48744   0.00000  Uiso   1.00
C293   C     0.35186   0.53344   0.26960   0.00000  Uiso   1.00
C294   C     0.63749   0.53359   0.26909   0.00000  Uiso   1.00
C295   C     0.49987   0.42000   0.25103   0.00000  Uiso   1.00
C296   C     0.52569   0.49972   0.14792   0.00000  Uiso   1.00
C297   C     0.60103   0.50487   0.00239   0.00000  Uiso   1.00
C298   C     0.54043   0.50381   0.08954   0.00000  Uiso   1.00
C299   C     0.41401   0.53250   0.43414   0.00000  Uiso   1.00
C300   C     0.40120   0.54616   0.48759   0.00000  Uiso   1.00
C301   C     0.43504   0.54870   0.01527   0.00000  Uiso   1.00
C302   C     0.60054   0.36912   0.29672   0.00000  Uiso   1.00
C303   C     0.49645   0.53467   0.43089   0.00000  Uiso   1.00
C304   C     0.33662   0.45692   0.48817   0.00000  Uiso   1.00
C305   C     0.51846   0.52617   0.01178   0.00000  Uiso   1.00
C306   C     0.56698   0.52229   0.47988   0.00000  Uiso   1.00
C307   C     0.57951   0.53524   0.42607   0.00000  Uiso   1.00
C308   C     0.54433   0.54162   0.40191   0.00000  Uiso   1.00
C309   C     0.50599   0.51322   0.06500   0.00000  Uiso   1.00
C310   C     0.58783   0.49956   0.05859   0.00000  Uiso   1.00
H311   H     0.61367   0.49031   0.07823   0.00000  Uiso   1.00
H312   H     0.38708   0.52947   0.41414   0.00000  Uiso   1.00
H313   H     0.36456   0.55467   0.00758   0.00000  Uiso   1.00
H314   H     0.55478   0.55177   0.36052   0.00000  Uiso   1.00
H315   H     0.54336   0.62686   0.30413   0.00000  Uiso   1.00
H316   H     0.53433   0.37099   0.35411   0.00000  Uiso   1.00
H317   H     0.60928   0.33715   0.30749   0.00000  Uiso   1.00
H318   H     0.61681   0.39212   0.31767   0.00000  Uiso   1.00
H319   H     0.61590   0.37353   0.25246   0.00000  Uiso   1.00
H320   H     0.64856   0.48569   0.42859   0.00000  Uiso   1.00
H321   H     0.36851   0.44640   0.45543   0.00000  Uiso   1.00
H322   H     0.45368   0.37175   0.20157   0.00000  Uiso   1.00
H323   H     0.64582   0.42988   0.00106   0.00000  Uiso   1.00
H324   H     0.34904   0.46804   0.02198   0.00000  Uiso   1.00
H325   H     0.36193   0.53152   0.11712   0.00000  Uiso   1.00
H326   H     0.45316   0.62921   0.20107   0.00000  Uiso   1.00
H327   H     0.63506   0.44061   0.21253   0.00000  Uiso   1.00
H328   H     0.38551   0.44030   0.21314   0.00000  Uiso   1.00
H329   H     0.36551   0.56024   0.28534   0.00000  Uiso   1.00
H330   H     0.61568   0.56089   0.28345   0.00000  Uiso   1.00
H331   H     0.61609   0.53911   0.40185   0.00000  Uiso   1.00
H332   H     0.46918   0.51005   0.08776   0.00000  Uiso   1.00
N333   N     0.38093   0.50001   0.25001   0.00000  Uiso   1.00
N334   N     0.61906   0.49998   0.25001   0.00000  Uiso   1.00
N335   N     0.54968   0.37553   0.31325   0.00000  Uiso   1.00
N336   N     0.64634   0.49036   0.46850   0.00000  Uiso   1.00
O337   O     0.46179   0.56108   0.25000   0.00000  Uiso   1.00
O338   O     0.38309   0.61006   0.07638   0.00000  Uiso   1.00
O339   O     0.38915   0.54220   0.12780   0.00000  Uiso   1.00
O340   O     0.53823   0.56107   0.25000   0.00000  Uiso   1.00
O341   O     0.44280   0.50000   0.32681   0.00000  Uiso   1.00
O342   O     0.51924   0.49999   0.32681   0.00000  Uiso   1.00
O343   O     0.46177   0.43893   0.25000   0.00000  Uiso   1.00
O344   O     0.53821   0.43892   0.25000   0.00000  Uiso   1.00
O345   O     0.48076   0.50001   0.17319   0.00000  Uiso   1.00
O346   O     0.55720   0.50000   0.17319   0.00000  Uiso   1.00
O347   O     0.45895   0.59399   0.09105   0.00000  Uiso   1.00
S348   S     0.41701   0.57539   0.07839   0.00000  Uiso   1.00
Zn349  Zn    0.44896   0.50001   0.25000   0.00000  Uiso   1.00
Zn350  Zn    0.55104   0.49999   0.25000   0.00000  Uiso   1.00
C351   C     0.83313   0.57993   0.25027   0.00000  Uiso   1.00
C352   C     0.79494   0.52505   0.40572   0.00000  Uiso   1.00
C353   C     0.85799   0.64435   0.28114   0.00000  Uiso   1.00
C354   C     0.80819   0.50723   0.35066   0.00000  Uiso   1.00
C355   C     0.85889   0.35408   0.28143   0.00000  Uiso   1.00
C356   C     0.83315   0.37575   0.25235   0.00000  Uiso   1.00
C357   C     0.80669   0.35492   0.22407   0.00000  Uiso   1.00
C358   C     0.80633   0.64546   0.22375   0.00000  Uiso   1.00
C359   C     0.83246   0.62393   0.25169   0.00000  Uiso   1.00
C360   C     0.98173   0.46687   0.22953   0.00000  Uiso   1.00
C361   C     0.69626   0.46683   0.22964   0.00000  Uiso   1.00
C362   C     0.81645   0.53734   0.48744   0.00000  Uiso   1.00
C363   C     0.68520   0.53344   0.26960   0.00000  Uiso   1.00
C364   C     0.97082   0.53359   0.26909   0.00000  Uiso   1.00
C365   C     0.83321   0.42000   0.25103   0.00000  Uiso   1.00
C366   C     0.85903   0.49972   0.14792   0.00000  Uiso   1.00
C367   C     0.93436   0.50487   0.00239   0.00000  Uiso   1.00
C368   C     0.87376   0.50381   0.08954   0.00000  Uiso   1.00
C369   C     0.74735   0.53250   0.43414   0.00000  Uiso   1.00
C370   C     0.73453   0.54616   0.48759   0.00000  Uiso   1.00
C371   C     0.76838   0.54870   0.01527   0.00000  Uiso   1.00
C372   C     0.93387   0.36912   0.29672   0.00000  Uiso   1.00
C373   C     0.82978   0.53467   0.43089   0.00000  Uiso   1.00
C374   C     0.66995   0.45692   0.48817   0.00000  Uiso   1.00
C375   C     0.85179   0.52617   0.01178   0.00000  Uiso   1.00
C376   C     0.90031   0.52229   0.47988   0.00000  Uiso   1.00
C377   C     0.91284   0.53524   0.42607   0.00000  Uiso   1.00
C378   C     0.87767   0.54162   0.40191   0.00000  Uiso   1.00
C379   C     0.83932   0.51322   0.06500   0.00000  Uiso   1.00
C380   C     0.92117   0.49956   0.05859   0.00000  Uiso   1.00
H381   H     0.94701   0.49031   0.07823   0.00000  Uiso   1.00
H382   H     0.72042   0.52947   0.41414   0.00000  Uiso   1.00
H383   H     0.69789   0.55467   0.00758   0.00000  Uiso   1.00
H384   H     0.88812   0.55177   0.36052   0.00000  Uiso   1.00
H385   H     0.87670   0.62686   0.30413   0.00000  Uiso   1.00
H386   H     0.86766   0.37099   0.35411   0.00000  Uiso   1.00
H387   H     0.94261   0.33715   0.30749   0.00000  Uiso   1.00
H388   H     0.95014   0.39212   0.31767   0.00000  Uiso   1.00
H389   H     0.94924   0.37353   0.25246   0.00000  Uiso   1.00
H390   H     0.98190   0.48569   0.42859   0.00000  Uiso   1.00
H391   H     0.70184   0.44640   0.45543   0.00000  Uiso   1.00
H392   H     0.78702   0.37175   0.20157   0.00000  Uiso   1.00
H393   H     0.97915   0.42988   0.00106   0.00000  Uiso   1.00
H394   H     0.68237   0.46804   0.02198   0.00000  Uiso   1.00
H395   H     0.69527   0.53152   0.11712   0.00000  Uiso   1.00
H396   H     0.78650   0.62921   0.20107   0.00000  Uiso   1.00
H397   H     0.96839   0.44061   0.21253   0.00000  Uiso   1.00
H398   H     0.71885   0.44030   0.21314   0.00000  Uiso   1.00
H399   H     0.69885   0.56024   0.28534   0.00000  Uiso   1.00
H400   H     0.94901   0.56089   0.28345   0.00000  Uiso   1.00
H401   H     0.94943   0.53911   0.40185   0.00000  Uiso   1.00
H402   H     0.80251   0.51005   0.08776   0.00000  Uiso   1.00
N403   N     0.71426   0.50001   0.25001   0.00000  Uiso   1.00
N404   N     0.95239   0.49998   0.25001   0.00000  Uiso   1.00
N405   N     0.88301   0.37553   0.31325   0.00000  Uiso   1.00
N406   N     0.97967   0.49036   0.46850   0.00000  Uiso   1.00
O407   O     0.79512   0.56108   0.25000   0.00000  Uiso   1.00
O408   O     0.71642   0.61006   0.07638   0.00000  Uiso   1.00
O409   O     0.72249   0.54220   0.12780   0.00000  Uiso   1.00
O410   O     0.87157   0.56107   0.25000   0.00000  Uiso   1.00
O411   O     0.77613   0.50000   0.32681   0.00000  Uiso   1.00
O412   O     0.85258   0.49999   0.32681   0.00000  Uiso   1.00
O413   O     0.79510   0.43893   0.25000   0.00000  Uiso   1.00
O414   O     0.87154   0.43892   0.25000   0.00000  Uiso   1.00
O415   O     0.81409   0.50001   0.17319   0.00000  Uiso   1.00
O416   O     0.89053   0.50000   0.17319   0.00000  Uiso   1.00
O417   O     0.79228   0.59399   0.09105   0.00000  Uiso   1.00
S418   S     0.75034   0.57539   0.07839   0.00000  Uiso   1.00
Zn419  Zn    0.78229   0.50001   0.25000   0.00000  Uiso   1.00
Zn420  Zn    0.88438   0.49999   0.25000   0.00000  Uiso   1.00
C421   C     0.16647   0.91326   0.25027   0.00000  Uiso   1.00
C422   C     0.12828   0.85838   0.40572   0.00000  Uiso   1.00
C423   C     0.19133   0.97769   0.28114   0.00000  Uiso   1.00
C424   C     0.14152   0.84056   0.35066   0.00000  Uiso   1.00
C425   C     0.19223   0.68742   0.28143   0.00000  Uiso   1.00
C426   C     0.16648   0.70908   0.25235   0.00000  Uiso   1.00
C427   C     0.14003   0.68826   0.22407   0.00000  Uiso   1.00
C428   C     0.13966   0.97880   0.22375   0.00000  Uiso   1.00
C429   C     0.16579   0.95727   0.25169   0.00000  Uiso   1.00
C430   C     0.31506   0.80021   0.22953   0.00000  Uiso   1.00
C431   C     0.02959   0.80016   0.22964   0.00000  Uiso   1.00
C432   C     0.14978   0.87068   0.48744   0.00000  Uiso   1.00
C433   C     0.01853   0.86678   0.26960   0.00000  Uiso   1.00
C434   C     0.30416   0.86692   0.26909   0.00000  Uiso   1.00
C435   C     0.16654   0.75334   0.25103   0.00000  Uiso   1.00
C436   C     0.19236   0.83305   0.14792   0.00000  Uiso   1.00
C437   C     0.26769   0.83821   0.00239   0.00000  Uiso   1.00
C438   C     0.20709   0.83715   0.08954   0.00000  Uiso   1.00
C439   C     0.08068   0.86583   0.43414   0.00000  Uiso   1.00
C440   C     0.06786   0.87949   0.48759   0.00000  Uiso   1.00
C441   C     0.10171   0.88203   0.01527   0.00000  Uiso   1.00
C442   C     0.26721   0.70245   0.29672   0.00000  Uiso   1.00
C443   C     0.16312   0.86801   0.43089   0.00000  Uiso   1.00
C444   C     0.00329   0.79026   0.48817   0.00000  Uiso   1.00
C445   C     0.18513   0.85950   0.01178   0.00000  Uiso   1.00
C446   C     0.23364   0.85562   0.47988   0.00000  Uiso   1.00
C447   C     0.24618   0.86857   0.42607   0.00000  Uiso   1.00
C448   C     0.21100   0.87495   0.40191   0.00000  Uiso   1.00
C449   C     0.17265   0.84655   0.06500   0.00000  Uiso   1.00
C450   C     0.25450   0.83289   0.05859   0.00000  Uiso   1.00
H451   H     0.28034   0.82365   0.07823   0.00000  Uiso   1.00
H452   H     0.05375   0.86281   0.41414   0.00000  Uiso   1.00
H453   H     0.03122   0.88801   0.00758   0.00000  Uiso   1.00
H454   H     0.22145   0.88510   0.36052   0.00000  Uiso   1.00
H455   H     0.21003   0.96019   0.30413   0.00000  Uiso   1.00
H456   H     0.20099   0.70433   0.35411   0.00000  Uiso   1.00
H457   H     0.27594   0.67049   0.30749   0.00000  Uiso   1.00
H458   H     0.28348   0.72545   0.31767   0.00000  Uiso   1.00
H459   H     0.28257   0.70686   0.25246   0.00000  Uiso   1.00
H460   H     0.31523   0.81903   0.42859   0.00000  Uiso   1.00
H461   H     0.03518   0.77973   0.45543   0.00000  Uiso   1.00
H462   H     0.12035   0.70508   0.20157   0.00000  Uiso   1.00
H463   H     0.31249   0.76321   0.00106   0.00000  Uiso   1.00
H464   H     0.01570   0.80137   0.02198   0.00000  Uiso   1.00
H465   H     0.02860   0.86485   0.11712   0.00000  Uiso   1.00
H466   H     0.11983   0.96255   0.20107   0.00000  Uiso   1.00
H467   H     0.30172   0.77394   0.21253   0.00000  Uiso   1.00
H468   H     0.05218   0.77363   0.21314   0.00000  Uiso   1.00
H469   H     0.03218   0.89357   0.28534   0.00000  Uiso   1.00
H470   H     0.28234   0.89423   0.28345   0.00000  Uiso   1.00
H471   H     0.28276   0.87244   0.40185   0.00000  Uiso   1.00
H472   H     0.13585   0.84339   0.08776   0.00000  Uiso   1.00
N473   N     0.04760   0.83334   0.25001   0.00000  Uiso   1.00
N474   N     0.28573   0.83331   0.25001   0.00000  Uiso   1.00
N475   N     0.21634   0.70886   0.31325   0.00000  Uiso   1.00
N476   N     0.31301   0.82369   0.46850   0.00000  Uiso   1.00
O477   O     0.12846   0.89442   0.25000   0.00000  Uiso   1.00
O478   O     0.04975   0.94339   0.07638   0.00000  Uiso   1.00
O479   O     0.05582   0.87554   0.12780   0.00000  Uiso   1.00
O480   O     0.20490   0.89441   0.25000   0.00000  Uiso   1.00
O481   O     0.10947   0.83333   0.32681   0.00000  Uiso   1.00
O482   O     0.18591   0.83332   0.32681   0.00000  Uiso   1.00
O483   O     0.12843   0.77226   0.25000   0.00000  Uiso   1.00
O484   O     0.20488   0.77225   0.25000   0.00000  Uiso   1.00
O485   O     0.14742   0.83335   0.17319   0.00000  Uiso   1.00
O486   O     0.22387   0.83334   0.17319   0.00000  Uiso   1.00
O487   O     0.12561   0.92733   0.09105   0.00000  Uiso   1.00
S488   S     0.08367   0.90873   0.07839   0.00000  Uiso   1.00
Zn489  Zn    0.11562   0.83334   0.25000   0.00000  Uiso   1.00
Zn490  Zn    0.21771   0.83333   0.25000   0.00000  Uiso   1.00
C491   C     0.49980   0.91326   0.25027   0.00000  Uiso   1.00
C492   C     0.46161   0.85838   0.40572   0.00000  Uiso   1.00
C493   C     0.52466   0.97769   0.28114   0.00000  Uiso   1.00
C494   C     0.47486   0.84056   0.35066   0.00000  Uiso   1.00
C495   C     0.52556   0.68742   0.28143   0.00000  Uiso   1.00
C496   C     0.49981   0.70908   0.25235   0.00000  Uiso   1.00
C497   C     0.47336   0.68826   0.22407   0.00000  Uiso   1.00
C498   C     0.47299   0.97880   0.22375   0.00000  Uiso   1.00
C499   C     0.49913   0.95727   0.25169   0.00000  Uiso   1.00
C500   C     0.64840   0.80021   0.22953   0.00000  Uiso   1.00
C501   C     0.36292   0.80016   0.22964   0.00000  Uiso   1.00
C502   C     0.48312   0.87068   0.48744   0.00000  Uiso   1.00
C503   C     0.35186   0.86678   0.26960   0.00000  Uiso   1.00
C504   C     0.63749   0.86692   0.26909   0.00000  Uiso   1.00
C505   C     0.49987   0.75334   0.25103   0.00000  Uiso   1.00
C506   C     0.52569   0.83305   0.14792   0.00000  Uiso   1.00
C507   C     0.60103   0.83821   0.00239   0.00000  Uiso   1.00
C508   C     0.54043   0.83715   0.08954   0.00000  Uiso   1.00
C509   C     0.41401   0.86583   0.43414   0.00000  Uiso   1.00
C510   C     0.40120   0.87949   0.48759   0.00000  Uiso   1.00
C511   C     0.43504   0.88203   0.01527   0.00000  Uiso   1.00
C512   C     0.60054   0.70245   0.29672   0.00000  Uiso   1.00
C513   C     0.49645   0.86801   0.43089   0.00000  Uiso   1.00
C514   C     0.33662   0.79026   0.48817   0.00000  Uiso   1.00
C515   C     0.51846   0.85950   0.01178   0.00000  Uiso   1.00
C516   C     0.56698   0.85562   0.47988   0.00000  Uiso   1.00
C517   C     0.57951   0.86857   0.42607   0.00000  Uiso   1.00
C518   C     0.54433   0.87495   0.40191   0.00000  Uiso   1.00
C519   C     0.50599   0.84655   0.06500   0.00000  Uiso   1.00
C520   C     0.58783   0.83289   0.05859   0.00000  Uiso   1.00
H521   H     0.61367   0.82365   0.07823   0.00000  Uiso   1.00
H522   H     0.38708   0.86281   0.41414   0.00000  Uiso   1.00
H523   H     0.36456   0.88801   0.00758   0.00000  Uiso   1.00
H524   H     0.55478   0.88510   0.36052   0.00000  Uiso   1.00
H525   H     0.54336   0.96019   0.30413   0.00000  Uiso   1.00
H526   H     0.53433   0.70433   0.35411   0.00000  Uiso   1.00
H527   H     0.60928   0.67049   0.30749   0.00000  Uiso   1.00
H528   H     0.61681   0.72545   0.31767   0.00000  Uiso   1.00
H529   H     0.61590   0.70686   0.25246   0.00000  Uiso   1.00
H530   H     0.64856   0.81903   0.42859   0.00000  Uiso   1.00
H531   H     0.36851   0.77973   0.45543   0.00000  Uiso   1.00
H532   H     0.45368   0.70508   0.20157   0.00000  Uiso   1.00
H533   H     0.64582   0.76321   0.00106   0.00000  Uiso   1.00
H534   H     0.34904   0.80137   0.02198   0.00000  Uiso   1.00
H535   H     0.36193   0.86485   0.11712   0.00000  Uiso   1.00
H536   H     0.45316   0.96255   0.20107   0.00000  Uiso   1.00
H537   H     0.63506   0.77394   0.21253   0.00000  Uiso   1.00
H538   H     0.38551   0.77363   0.21314   0.00000  Uiso   1.00
H539   H     0.36551   0.89357   0.28534   0.00000  Uiso   1.00
H540   H     0.61568   0.89423   0.28345   0.00000  Uiso   1.00
H541   H     0.61609   0.87244   0.40185   0.00000  Uiso   1.00
H542   H     0.46918   0.84339   0.08776   0.00000  Uiso   1.00
N543   N     0.38093   0.83334   0.25001   0.00000  Uiso   1.00
N544   N     0.61906   0.83331   0.25001   0.00000  Uiso   1.00
N545   N     0.54968   0.70886   0.31325   0.00000  Uiso   1.00
N546   N     0.64634   0.82369   0.46850   0.00000  Uiso   1.00
O547   O     0.46179   0.89442   0.25000   0.00000  Uiso   1.00
O548   O     0.38309   0.94339   0.07638   0.00000  Uiso   1.00
O549   O     0.38915   0.87554   0.12780   0.00000  Uiso   1.00
O550   O     0.53823   0.89441   0.25000   0.00000  Uiso   1.00
O551   O     0.44280   0.83333   0.32681   0.00000  Uiso   1.00
O552   O     0.51924   0.83332   0.32681   0.00000  Uiso   1.00
O553   O     0.46177   0.77226   0.25000   0.00000  Uiso   1.00
O554   O     0.53821   0.77225   0.25000   0.00000  Uiso   1.00
O555   O     0.48076   0.83335   0.17319   0.00000  Uiso   1.00
O556   O     0.55720   0.83334   0.17319   0.00000  Uiso   1.00
O557   O     0.45895   0.92733   0.09105   0.00000  Uiso   1.00
S558   S     0.41701   0.90873   0.07839   0.00000  Uiso   1.00
Zn559  Zn    0.44896   0.83334   0.25000   0.00000  Uiso   1.00
Zn560  Zn    0.55104   0.83333   0.25000   0.00000  Uiso   1.00
C561   C     0.83313   0.91326   0.25027   0.00000  Uiso   1.00
C562   C     0.79494   0.85838   0.40572   0.00000  Uiso   1.00
C563   C     0.85799   0.97769   0.28114   0.00000  Uiso   1.00
C564   C     0.80819   0.84056   0.35066   0.00000  Uiso   1.00
C565   C     0.85889   0.68742   0.28143   0.00000  Uiso   1.00
C566   C     0.83315   0.70908   0.25235   0.00000  Uiso   1.00
C567   C     0.80669   0.68826   0.22407   0.00000  Uiso   1.00
C568   C     0.80633   0.97880   0.22375   0.00000  Uiso   1.00
C569   C     0.83246   0.95727   0.25169   0.00000  Uiso   1.00
C570   C     0.98173   0.80021   0.22953   0.00000  Uiso   1.00
C571   C     0.69626   0.80016   0.22964   0.00000  Uiso   1.00
C572   C     0.81645   0.87068   0.48744   0.00000  Uiso   1.00
C573   C     0.68520   0.86678   0.26960   0.00000  Uiso   1.00
C574   C     0.97082   0.86692   0.26909   0.00000  Uiso   1.00
C575   C     0.83321   0.75334   0.25103   0.00000  Uiso   1.00
C576   C     0.85903   0.83305   0.14792   0.00000  Uiso   1.00
C577   C     0.93436   0.83821   0.00239   0.00000  Uiso   1.00
C578   C     0.87376   0.83715   0.08954   0.00000  Uiso   1.00
C579   C     0.74735   0.86583   0.43414   0.00000  Uiso   1.00
C580   C     0.73453   0.87949   0.48759   0.00000  Uiso   1.00
C581   C     0.76838   0.88203   0.01527   0.00000  Uiso   1.00
C582   C     0.93387   0.70245   0.29672   0.00000  Uiso   1.00
C583   C     0.82978   0.86801   0.43089   0.00000  Uiso   1.00
C584   C     0.66995   0.79026   0.48817   0.00000  Uiso   1.00
C585   C     0.85179   0.85950   0.01178   0.00000  Uiso   1.00
C586   C     0.90031   0.85562   0.47988   0.00000  Uiso   1.00
C587   C     0.91284   0.86857   0.42607   0.00000  Uiso   1.00
C588   C     0.87767   0.87495   0.40191   0.00000  Uiso   1.00
C589   C     0.83932   0.84655   0.06500   0.00000  Uiso   1.00
C590   C     0.92117   0.83289   0.05859   0.00000  Uiso   1.00
H591   H     0.94701   0.82365   0.07823   0.00000  Uiso   1.00
H592   H     0.72042   0.86281   0.41414   0.00000  Uiso   1.00
H593   H     0.69789   0.88801   0.00758   0.00000  Uiso   1.00
H594   H     0.88812   0.88510   0.36052   0.00000  Uiso   1.00
H595   H     0.87670   0.96019   0.30413   0.00000  Uiso   1.00
H596   H     0.86766   0.70433   0.35411   0.00000  Uiso   1.00
H597   H     0.94261   0.67049   0.30749   0.00000  Uiso   1.00
H598   H     0.95014   0.72545   0.31767   0.00000  Uiso   1.00
H599   H     0.94924   0.70686   0.25246   0.00000  Uiso   1.00
H600   H     0.98190   0.81903   0.42859   0.00000  Uiso   1.00
H601   H     0.70184   0.77973   0.45543   0.00000  Uiso   1.00
H602   H     0.78702   0.70508   0.20157   0.00000  Uiso   1.00
H603   H     0.97915   0.76321   0.00106   0.00000  Uiso   1.00
H604   H     0.68237   0.80137   0.02198   0.00000  Uiso   1.00
H605   H     0.69527   0.86485   0.11712   0.00000  Uiso   1.00
H606   H     0.78650   0.96255   0.20107   0.00000  Uiso   1.00
H607   H     0.96839   0.77394   0.21253   0.00000  Uiso   1.00
H608   H     0.71885   0.77363   0.21314   0.00000  Uiso   1.00
H609   H     0.69885   0.89357   0.28534   0.00000  Uiso   1.00
H610   H     0.94901   0.89423   0.28345   0.00000  Uiso   1.00
H611   H     0.94943   0.87244   0.40185   0.00000  Uiso   1.00
H612   H     0.80251   0.84339   0.08776   0.00000  Uiso   1.00
N613   N     0.71426   0.83334   0.25001   0.00000  Uiso   1.00
N614   N     0.95239   0.83331   0.25001   0.00000  Uiso   1.00
N615   N     0.88301   0.70886   0.31325   0.00000  Uiso   1.00
N616   N     0.97967   0.82369   0.46850   0.00000  Uiso   1.00
O617   O     0.79512   0.89442   0.25000   0.00000  Uiso   1.00
O618   O     0.71642   0.94339   0.07638   0.00000  Uiso   1.00
O619   O     0.72249   0.87554   0.12780   0.00000  Uiso   1.00
O620   O     0.87157   0.89441   0.25000   0.00000  Uiso   1.00
O621   O     0.77613   0.83333   0.32681   0.00000  Uiso   1.00
O622   O     0.85258   0.83332   0.32681   0.00000  Uiso   1.00
O623   O     0.79510   0.77226   0.25000   0.00000  Uiso   1.00
O624   O     0.87154   0.77225   0.25000   0.00000  Uiso   1.00
O625   O     0.81409   0.83335   0.17319   0.00000  Uiso   1.00
O626   O     0.89053   0.83334   0.17319   0.00000  Uiso   1.00
O627   O     0.79228   0.92733   0.09105   0.00000  Uiso   1.00
S628   S     0.75034   0.90873   0.07839   0.00000  Uiso   1.00
Zn629  Zn    0.78229   0.83334   0.25000   0.00000  Uiso   1.00
Zn630  Zn    0.88438   0.83333   0.25000   0.00000  Uiso   1.00
C631   C     0.16647   0.24659   0.75027   0.00000  Uiso   1.00
C632   C     0.12828   0.19171   0.90572   0.00000  Uiso   1.00
C633   C     0.19133   0.31102   0.78114   0.00000  Uiso   1.00
C634   C     0.14152   0.17390   0.85066   0.00000  Uiso   1.00
C635   C     0.19223   0.02075   0.78143   0.00000  Uiso   1.00
C636   C     0.16648   0.04242   0.75235   0.00000  Uiso   1.00
C637   C     0.14003   0.02159   0.72407   0.00000  Uiso   1.00
C638   C     0.13966   0.31213   0.72375   0.00000  Uiso   1.00
C639   C     0.16579   0.29060   0.75169   0.00000  Uiso   1.00
C640   C     0.31506   0.13354   0.72953   0.00000  Uiso   1.00
C641   C     0.02959   0.13349   0.72964   0.00000  Uiso   1.00
C642   C     0.14978   0.20401   0.98744   0.00000  Uiso   1.00
C643   C     0.01853   0.20011   0.76960   0.00000  Uiso   1.00
C644   C     0.30416   0.20026   0.76909   0.00000  Uiso   1.00
C645   C     0.16654   0.08667   0.75103   0.00000  Uiso   1.00
C646   C     0.19236   0.16638   0.64792   0.00000  Uiso   1.00
C647   C     0.26769   0.17154   0.50239   0.00000  Uiso   1.00
C648   C     0.20709   0.17048   0.58954   0.00000  Uiso   1.00
C649   C     0.08068   0.19916   0.93414   0.00000  Uiso   1.00
C650   C     0.06786   0.21283   0.98759   0.00000  Uiso   1.00
C651   C     0.10171   0.21537   0.51527   0.00000  Uiso   1.00
C652   C     0.26721   0.03578   0.79672   0.00000  Uiso   1.00
C653   C     0.16312   0.20134   0.93089   0.00000  Uiso   1.00
C654   C     0.00329   0.12359   0.98817   0.00000  Uiso   1.00
C655   C     0.18513   0.19283   0.51178   0.00000  Uiso   1.00
C656   C     0.23364   0.18896   0.97988   0.00000  Uiso   1.00
C657   C     0.24618   0.20191   0.92607   0.00000  Uiso   1.00
C658   C     0.21100   0.20828   0.90191   0.00000  Uiso   1.00
C659   C     0.17265   0.17989   0.56500   0.00000  Uiso   1.00
C660   C     0.25450   0.16623   0.55859   0.00000  Uiso   1.00
H661   H     0.28034   0.15698   0.57823   0.00000  Uiso   1.00
H662   H     0.05375   0.19614   0.91414   0.00000  Uiso   1.00
H663   H     0.03122   0.22134   0.50758   0.00000  Uiso   1.00
H664   H     0.22145   0.21843   0.86052   0.00000  Uiso   1.00
H665   H     0.21003   0.29353   0.80413   0.00000  Uiso   1.00
H666   H     0.20099   0.03766   0.85411   0.00000  Uiso   1.00
H667   H     0.27594   0.00382   0.80749   0.00000  Uiso   1.00
H668   H     0.28348   0.05879   0.81767   0.00000  Uiso   1.00
H669   H     0.28257   0.04020   0.75246   0.00000  Uiso   1.00
H670   H     0.31523   0.15236   0.92859   0.00000  Uiso   1.00
H671   H     0.03518   0.11306   0.95543   0.00000  Uiso   1.00
H672   H     0.12035   0.03842   0.70157   0.00000  Uiso   1.00
H673   H     0.31249   0.09654   0.50106   0.00000  Uiso   1.00
H674   H     0.01570   0.13471   0.52198   0.00000  Uiso   1.00
H675   H     0.02860   0.19819   0.61712   0.00000  Uiso   1.00
H676   H     0.11983   0.29588   0.70107   0.00000  Uiso   1.00
H677   H     0.30172   0.10728   0.71253   0.00000  Uiso   1.00
H678   H     0.05218   0.10697   0.71314   0.00000  Uiso   1.00
H679   H     0.03218   0.22691   0.78534   0.00000  Uiso   1.00
H680   H     0.28234   0.22756   0.78345   0.00000  Uiso   1.00
H681   H     0.28276   0.20578   0.90185   0.00000  Uiso   1.00
H682   H     0.13585   0.17672   0.58776   0.00000  Uiso   1.00
N683   N     0.04760   0.16668   0.75001   0.00000  Uiso   1.00
N684   N     0.28573   0.16665   0.75001   0.00000  Uiso   1.00
N685   N     0.21634   0.04219   0.81325   0.00000  Uiso   1.00
N686   N     0.31301   0.15703   0.96850   0.00000  Uiso   1.00
O687   O     0.12846   0.22775   0.75000   0.00000  Uiso   1.00
O688   O     0.04975   0.27672   0.57638   0.00000  Uiso   1.00
O689   O     0.05582   0.20887   0.62780   0.00000  Uiso   1.00
O690   O     0.20490   0.22774   0.75000   0.00000  Uiso   1.00
O691   O     0.10947   0.16666   0.82681   0.00000  Uiso   1.00
O692   O     0.18591   0.16665   0.82681   0.00000  Uiso   1.00
O693   O     0.12843   0.10559   0.75000   0.00000  Uiso   1.00
O694   O     0.20488   0.10558   0.75000   0.00000  Uiso   1.00
O695   O     0.14742   0.16668   0.67319   0.00000  Uiso   1.00
O696   O     0.22387   0.16667   0.67319   0.00000  Uiso   1.00
O697   O     0.12561   0.26066   0.59105   0.00000  Uiso   1.00
S698   S     0.08367   0.24206   0.57839   0.00000  Uiso   1.00
Zn699  Zn    0.11562   0.16667   0.75000   0.00000  Uiso   1.00
Zn700  Zn    0.21771   0.16666   0.75000   0.00000  Uiso   1.00
C701   C     0.49980   0.24659   0.75027   0.00000  Uiso   1.00
C702   C     0.46161   0.19171   0.90572   0.00000  Uiso   1.00
C703   C     0.52466   0.31102   0.78114   0.00000  Uiso   1.00
C704   C     0.47486   0.17390   0.85066   0.00000  Uiso   1.00
C705   C     0.52556   0.02075   0.78143   0.00000  Uiso   1.00
C706   C     0.49981   0.04242   0.75235   0.00000  Uiso   1.00
C707   C     0.47336   0.02159   0.72407   0.00000  Uiso   1.00
C708   C     0.47299   0.31213   0.72375   0.00000  Uiso   1.00
C709   C     0.49913   0.29060   0.75169   0.00000  Uiso   1.00
C710   C     0.64840   0.13354   0.72953   0.00000  Uiso   1.00
C711   C     0.36292   0.13349   0.72964   0.00000  Uiso   1.00
C712   C     0.48312   0.20401   0.98744   0.00000  Uiso   1.00
C713   C     0.35186   0.20011   0.76960   0.00000  Uiso   1.00
C714   C     0.63749   0.20026   0.76909   0.00000  Uiso   1.00
C715   C     0.49987   0.08667   0.75103   0.00000  Uiso   1.00
C716   C     0.52569   0.16638   0.64792   0.00000  Uiso   1.00
C717   C     0.60103   0.17154   0.50239   0.00000  Uiso   1.00
C718   C     0.54043   0.17048   0.58954   0.00000  Uiso   1.00
C719   C     0.41401   0.19916   0.93414   0.00000  Uiso   1.00
C720   C     0.40120   0.21283   0.98759   0.00000  Uiso   1.00
C721   C     0.43504   0.21537   0.51527   0.00000  Uiso   1.00
C722   C     0.60054   0.03578   0.79672   0.00000  Uiso   1.00
C723   C     0.49645   0.20134   0.93089   0.00000  Uiso   1.00
C724   C     0.33662   0.12359   0.98817   0.00000  Uiso   1.00
C725   C     0.51846   0.19283   0.51178   0.00000  Uiso   1.00
C726   C     0.56698   0.18896   0.97988   0.00000  Uiso   1.00
C727   C     0.57951   0.20191   0.92607   0.00000  Uiso   1.00
C728   C     0.54433   0.20828   0.90191   0.00000  Uiso   1.00
C729   C     0.50599   0.17989   0.56500   0.00000  Uiso   1.00
C730   C     0.58783   0.16623   0.55859   0.00000  Uiso   1.00
H731   H     0.61367   0.15698   0.57823   0.00000  Uiso   1.00
H732   H     0.38708   0.19614   0.91414   0.00000  Uiso   1.00
H733   H     0.36456   0.22134   0.50758   0.00000  Uiso   1.00
H734   H     0.55478   0.21843   0.86052   0.00000  Uiso   1.00
H735   H     0.54336   0.29353   0.80413   0.00000  Uiso   1.00
H736   H     0.53433   0.03766   0.85411   0.00000  Uiso   1.00
H737   H     0.60928   0.00382   0.80749   0.00000  Uiso   1.00
H738   H     0.61681   0.05879   0.81767   0.00000  Uiso   1.00
H739   H     0.61590   0.04020   0.75246   0.00000  Uiso   1.00
H740   H     0.64856   0.15236   0.92859   0.00000  Uiso   1.00
H741   H     0.36851   0.11306   0.95543   0.00000  Uiso   1.00
H742   H     0.45368   0.03842   0.70157   0.00000  Uiso   1.00
H743   H     0.64582   0.09654   0.50106   0.00000  Uiso   1.00
H744   H     0.34904   0.13471   0.52198   0.00000  Uiso   1.00
H745   H     0.36193   0.19819   0.61712   0.00000  Uiso   1.00
H746   H     0.45316   0.29588   0.70107   0.00000  Uiso   1.00
H747   H     0.63506   0.10728   0.71253   0.00000  Uiso   1.00
H748   H     0.38551   0.10697   0.71314   0.00000  Uiso   1.00
H749   H     0.36551   0.22691   0.78534   0.00000  Uiso   1.00
H750   H     0.61568   0.22756   0.78345   0.00000  Uiso   1.00
H751   H     0.61609   0.20578   0.90185   0.00000  Uiso   1.00
H752   H     0.46918   0.17672   0.58776   0.00000  Uiso   1.00
N753   N     0.38093   0.16668   0.75001   0.00000  Uiso   1.00
N754   N     0.61906   0.16665   0.75001   0.00000  Uiso   1.00
N755   N     0.54968   0.04219   0.81325   0.00000  Uiso   1.00
N756   N     0.64634   0.15703   0.96850   0.00000  Uiso   1.00
O757   O     0.46179   0.22775   0.75000   0.00000  Uiso   1.00
O758   O     0.38309   0.27672   0.57638   0.00000  Uiso   1.00
O759   O     0.38915   0.20887   0.62780   0.00000  Uiso   1.00
O760   O     0.53823   0.22774   0.75000   0.00000  Uiso   1.00
O761   O     0.44280   0.16666   0.82681   0.00000  Uiso   1.00
O762   O     0.51924   0.16665   0.82681   0.00000  Uiso   1.00
O763   O     0.46177   0.10559   0.75000   0.00000  Uiso   1.00
O764   O     0.53821   0.10558   0.75000   0.00000  Uiso   1.00
O765   O     0.48076   0.16668   0.67319   0.00000  Uiso   1.00
O766   O     0.55720   0.16667   0.67319   0.00000  Uiso   1.00
O767   O     0.45895   0.26066   0.59105   0.00000  Uiso   1.00
S768   S     0.41701   0.24206   0.57839   0.00000  Uiso   1.00
Zn769  Zn    0.44896   0.16667   0.75000   0.00000  Uiso   1.00
Zn770  Zn    0.55104   0.16666   0.75000   0.00000  Uiso   1.00
C771   C     0.83313   0.24659   0.75027   0.00000  Uiso   1.00
C772   C     0.79494   0.19171   0.90572   0.00000  Uiso   1.00
C773   C     0.85799   0.31102   0.78114   0.00000  Uiso   1.00
C774   C     0.80819   0.17390   0.85066   0.00000  Uiso   1.00
C775   C     0.85889   0.02075   0.78143   0.00000  Uiso   1.00
C776   C     0.83315   0.04242   0.75235   0.00000  Uiso   1.00
C777   C     0.80669   0.02159   0.72407   0.00000  Uiso   1.00
C778   C     0.80633   0.31213   0.72375   0.00000  Uiso   1.00
C779   C     0.83246   0.29060   0.75169   0.00000  Uiso   1.00
C780   C     0.98173   0.13354   0.72953   0.00000  Uiso   1.00
C781   C     0.69626   0.13349   0.72964   0.00000  Uiso   1.00
C782   C     0.81645   0.20401   0.98744   0.00000  Uiso   1.00
C783   C     0.68520   0.20011   0.76960   0.00000  Uiso   1.00
C784   C     0.97082   0.20026   0.76909   0.00000  Uiso   1.00
C785   C     0.83321   0.08667   0.75103   0.00000  Uiso   1.00
C786   C     0.85903   0.16638   0.64792   0.00000  Uiso   1.00
C787   C     0.93436   0.17154   0.50239   0.00000  Uiso   1.00
C788   C     0.87376   0.17048   0.58954   0.00000  Uiso   1.00
C789   C     0.74735   0.19916   0.93414   0.00000  Uiso   1.00
C790   C     0.73453   0.21283   0.98759   0.00000  Uiso   1.00
C791   C     0.76838   0.21537   0.51527   0.00000  Uiso   1.00
C792   C     0.93387   0.03578   0.79672   0.00000  Uiso   1.00
C793   C     0.82978   0.20134   0.93089   0.00000  Uiso   1.00
C794   C     0.66995   0.12359   0.98817   0.00000  Uiso   1.00
C795   C     0.85179   0.19283   0.51178   0.00000  Uiso   1.00
C796   C     0.90031   0.18896   0.97988   0.00000  Uiso   1.00
C797   C     0.91284   0.20191   0.92607   0.00000  Uiso   1.00
C798   C     0.87767   0.20828   0.90191   0.00000  Uiso   1.00
C799   C     0.83932   0.17989   0.56500   0.00000  Uiso   1.00
C800   C     0.92117   0.16623   0.55859   0.00000  Uiso   1.00
H801   H     0.94701   0.15698   0.57823   0.00000  Uiso   1.00
H802   H     0.72042   0.19614   0.91414   0.00000  Uiso   1.00
H803   H     0.69789   0.22134   0.50758   0.00000  Uiso   1.00
H804   H     0.88812   0.21843   0.86052   0.00000  Uiso   1.00
H805   H     0.87670   0.29353   0.80413   0.00000  Uiso   1.00
H806   H     0.86766   0.03766   0.85411   0.00000  Uiso   1.00
H807   H     0.94261   0.00382   0.80749   0.00000  Uiso   1.00
H808   H     0.95014   0.05879   0.81767   0.00000  Uiso   1.00
H809   H     0.94924   0.04020   0.75246   0.00000  Uiso   1.00
H810   H     0.98190   0.15236   0.92859   0.00000  Uiso   1.00
H811   H     0.70184   0.11306   0.95543   0.00000  Uiso   1.00
H812   H     0.78702   0.03842   0.70157   0.00000  Uiso   1.00
H813   H     0.97915   0.09654   0.50106   0.00000  Uiso   1.00
H814   H     0.68237   0.13471   0.52198   0.00000  Uiso   1.00
H815   H     0.69527   0.19819   0.61712   0.00000  Uiso   1.00
H816   H     0.78650   0.29588   0.70107   0.00000  Uiso   1.00
H817   H     0.96839   0.10728   0.71253   0.00000  Uiso   1.00
H818   H     0.71885   0.10697   0.71314   0.00000  Uiso   1.00
H819   H     0.69885   0.22691   0.78534   0.00000  Uiso   1.00
H820   H     0.94901   0.22756   0.78345   0.00000  Uiso   1.00
H821   H     0.94943   0.20578   0.90185   0.00000  Uiso   1.00
H822   H     0.80251   0.17672   0.58776   0.00000  Uiso   1.00
N823   N     0.71426   0.16668   0.75001   0.00000  Uiso   1.00
N824   N     0.95239   0.16665   0.75001   0.00000  Uiso   1.00
N825   N     0.88301   0.04219   0.81325   0.00000  Uiso   1.00
N826   N     0.97967   0.15703   0.96850   0.00000  Uiso   1.00
O827   O     0.79512   0.22775   0.75000   0.00000  Uiso   1.00
O828   O     0.71642   0.27672   0.57638   0.00000  Uiso   1.00
O829   O     0.72249   0.20887   0.62780   0.00000  Uiso   1.00
O830   O     0.87157   0.22774   0.75000   0.00000  Uiso   1.00
O831   O     0.77613   0.16666   0.82681   0.00000  Uiso   1.00
O832   O     0.85258   0.16665   0.82681   0.00000  Uiso   1.00
O833   O     0.79510   0.10559   0.75000   0.00000  Uiso   1.00
O834   O     0.87154   0.10558   0.75000   0.00000  Uiso   1.00
O835   O     0.81409   0.16668   0.67319   0.00000  Uiso   1.00
O836   O     0.89053   0.16667   0.67319   0.00000  Uiso   1.00
O837   O     0.79228   0.26066   0.59105   0.00000  Uiso   1.00
S838   S     0.75034   0.24206   0.57839   0.00000  Uiso   1.00
Zn839  Zn    0.78229   0.16667   0.75000   0.00000  Uiso   1.00
Zn840  Zn    0.88438   0.16666   0.75000   0.00000  Uiso   1.00
C841   C     0.16647   0.57993   0.75027   0.00000  Uiso   1.00
C842   C     0.12828   0.52505   0.90572   0.00000  Uiso   1.00
C843   C     0.19133   0.64435   0.78114   0.00000  Uiso   1.00
C844   C     0.14152   0.50723   0.85066   0.00000  Uiso   1.00
C845   C     0.19223   0.35408   0.78143   0.00000  Uiso   1.00
C846   C     0.16648   0.37575   0.75235   0.00000  Uiso   1.00
C847   C     0.14003   0.35492   0.72407   0.00000  Uiso   1.00
C848   C     0.13966   0.64546   0.72375   0.00000  Uiso   1.00
C849   C     0.16579   0.62393   0.75169   0.00000  Uiso   1.00
C850   C     0.31506   0.46687   0.72953   0.00000  Uiso   1.00
C851   C     0.02959   0.46683   0.72964   0.00000  Uiso   1.00
C852   C     0.14978   0.53734   0.98744   0.00000  Uiso   1.00
C853   C     0.01853   0.53344   0.76960   0.00000  Uiso   1.00
C854   C     0.30416   0.53359   0.76909   0.00000  Uiso   1.00
C855   C     0.16654   0.42000   0.75103   0.00000  Uiso   1.00
C856   C     0.19236   0.49972   0.64792   0.00000  Uiso   1.00
C857   C     0.26769   0.50487   0.50239   0.00000  Uiso   1.00
C858   C     0.20709   0.50381   0.58954   0.00000  Uiso   1.00
C859   C     0.08068   0.53250   0.93414   0.00000  Uiso   1.00
C860   C     0.06786   0.54616   0.98759   0.00000  Uiso   1.00
C861   C     0.10171   0.54870   0.51527   0.00000  Uiso   1.00
C862   C     0.26721   0.36912   0.79672   0.00000  Uiso   1.00
C863   C     0.16312   0.53467   0.93089   0.00000  Uiso   1.00
C864   C     0.00329   0.45692   0.98817   0.00000  Uiso   1.00
C865   C     0.18513   0.52617   0.51178   0.00000  Uiso   1.00
C866   C     0.23364   0.52229   0.97988   0.00000  Uiso   1.00
C867   C     0.24618   0.53524   0.92607   0.00000  Uiso   1.00
C868   C     0.21100   0.54162   0.90191   0.00000  Uiso   1.00
C869   C     0.17265   0.51322   0.56500   0.00000  Uiso   1.00
C870   C     0.25450   0.49956   0.55859   0.00000  Uiso   1.00
H871   H     0.28034   0.49031   0.57823   0.00000  Uiso   1.00
H872   H     0.05375   0.52947   0.91414   0.00000  Uiso   1.00
H873   H     0.03122   0.55467   0.50758   0.00000  Uiso   1.00
H874   H     0.22145   0.55177   0.86052   0.00000  Uiso   1.00
H875   H     0.21003   0.62686   0.80413   0.00000  Uiso   1.00
H876   H     0.20099   0.37099   0.85411   0.00000  Uiso   1.00
H877   H     0.27594   0.33715   0.80749   0.00000  Uiso   1.00
H878   H     0.28348   0.39212   0.81767   0.00000  Uiso   1.00
H879   H     0.28257   0.37353   0.75246   0.00000  Uiso   1.00
H880   H     0.31523   0.48569   0.92859   0.00000  Uiso   1.00
H881   H     0.03518   0.44640   0.95543   0.00000  Uiso   1.00
H882   H     0.12035   0.37175   0.70157   0.00000  Uiso   1.00
H883   H     0.31249   0.42988   0.50106   0.00000  Uiso   1.00
H884   H     0.01570   0.46804   0.52198   0.00000  Uiso   1.00
H885   H     0.02860   0.53152   0.61712   0.00000  Uiso   1.00
H886   H     0.11983   0.62921   0.70107   0.00000  Uiso   1.00
H887   H     0.30172   0.44061   0.71253   0.00000  Uiso   1.00
H888   H     0.05218   0.44030   0.71314   0.00000  Uiso   1.00
H889   H     0.03218   0.56024   0.78534   0.00000  Uiso   1.00
H890   H     0.28234   0.56089   0.78345   0.00000  Uiso   1.00
H891   H     0.28276   0.53911   0.90185   0.00000  Uiso   1.00
H892   H     0.13585   0.51005   0.58776   0.00000  Uiso   1.00
N893   N     0.04760   0.50001   0.75001   0.00000  Uiso   1.00
N894   N     0.28573   0.49998   0.75001   0.00000  Uiso   1.00
N895   N     0.21634   0.37553   0.81325   0.00000  Uiso   1.00
N896   N     0.31301   0.49036   0.96850   0.00000  Uiso   1.00
O897   O     0.12846   0.56108   0.75000   0.00000  Uiso   1.00
O898   O     0.04975   0.61006   0.57638   0.00000  Uiso   1.00
O899   O     0.05582   0.54220   0.62780   0.00000  Uiso   1.00
O900   O     0.20490   0.56107   0.75000   0.00000  Uiso   1.00
O901   O     0.10947   0.50000   0.82681   0.00000  Uiso   1.00
O902   O     0.18591   0.49999   0.82681   0.00000  Uiso   1.00
O903   O     0.12843   0.43893   0.75000   0.00000  Uiso   1.00
O904   O     0.20488   0.43892   0.75000   0.00000  Uiso   1.00
O905   O     0.14742   0.50001   0.67319   0.00000  Uiso   1.00
O906   O     0.22387   0.50000   0.67319   0.00000  Uiso   1.00
O907   O     0.12561   0.59399   0.59105   0.00000  Uiso   1.00
S908   S     0.08367   0.57539   0.57839   0.00000  Uiso   1.00
Zn909  Zn    0.11562   0.50001   0.75000   0.00000  Uiso   1.00
Zn910  Zn    0.21771   0.49999   0.75000   0.00000  Uiso   1.00
C911   C     0.49980   0.57993   0.75027   0.00000  Uiso   1.00
C912   C     0.46161   0.52505   0.90572   0.00000  Uiso   1.00
C913   C     0.52466   0.64435   0.78114   0.00000  Uiso   1.00
C914   C     0.47486   0.50723   0.85066   0.00000  Uiso   1.00
C915   C     0.52556   0.35408   0.78143   0.00000  Uiso   1.00
C916   C     0.49981   0.37575   0.75235   0.00000  Uiso   1.00
C917   C     0.47336   0.35492   0.72407   0.00000  Uiso   1.00
C918   C     0.47299   0.64546   0.72375   0.00000  Uiso   1.00
C919   C     0.49913   0.62393   0.75169   0.00000  Uiso   1.00
C920   C     0.64840   0.46687   0.72953   0.00000  Uiso   1.00
C921   C     0.36292   0.46683   0.72964   0.00000  Uiso   1.00
C922   C     0.48312   0.53734   0.98744   0.00000  Uiso   1.00
C923   C     0.35186   0.53344   0.76960   0.00000  Uiso   1.00
C924   C     0.63749   0.53359   0.76909   0.00000  Uiso   1.00
C925   C     0.49987   0.42000   0.75103   0.00000  Uiso   1.00
C926   C     0.52569   0.49972   0.64792   0.00000  Uiso   1.00
C927   C     0.60103   0.50487   0.50239   0.00000  Uiso   1.00
C928   C     0.54043   0.50381   0.58954   0.00000  Uiso   1.00
C929   C     0.41401   0.53250   0.93414   0.00000  Uiso   1.00
C930   C     0.40120   0.54616   0.98759   0.00000  Uiso   1.00
C931   C     0.43504   0.54870   0.51527   0.00000  Uiso   1.00
C932   C     0.60054   0.36912   0.79672   0.00000  Uiso   1.00
C933   C     0.49645   0.53467   0.93089   0.00000  Uiso   1.00
C934   C     0.33662   0.45692   0.98817   0.00000  Uiso   1.00
C935   C     0.51846   0.52617   0.51178   0.00000  Uiso   1.00
C936   C     0.56698   0.52229   0.97988   0.00000  Uiso   1.00
C937   C     0.57951   0.53524   0.92607   0.00000  Uiso   1.00
C938   C     0.54433   0.54162   0.90191   0.00000  Uiso   1.00
C939   C     0.50599   0.51322   0.56500   0.00000  Uiso   1.00
C940   C     0.58783   0.49956   0.55859   0.00000  Uiso   1.00
H941   H     0.61367   0.49031   0.57823   0.00000  Uiso   1.00
H942   H     0.38708   0.52947   0.91414   0.00000  Uiso   1.00
H943   H     0.36456   0.55467   0.50758   0.00000  Uiso   1.00
H944   H     0.55478   0.55177   0.86052   0.00000  Uiso   1.00
H945   H     0.54336   0.62686   0.80413   0.00000  Uiso   1.00
H946   H     0.53433   0.37099   0.85411   0.00000  Uiso   1.00
H947   H     0.60928   0.33715   0.80749   0.00000  Uiso   1.00
H948   H     0.61681   0.39212   0.81767   0.00000  Uiso   1.00
H949   H     0.61590   0.37353   0.75246   0.00000  Uiso   1.00
H950   H     0.64856   0.48569   0.92859   0.00000  Uiso   1.00
H951   H     0.36851   0.44640   0.95543   0.00000  Uiso   1.00
H952   H     0.45368   0.37175   0.70157   0.00000  Uiso   1.00
H953   H     0.64582   0.42988   0.50106   0.00000  Uiso   1.00
H954   H     0.34904   0.46804   0.52198   0.00000  Uiso   1.00
H955   H     0.36193   0.53152   0.61712   0.00000  Uiso   1.00
H956   H     0.45316   0.62921   0.70107   0.00000  Uiso   1.00
H957   H     0.63506   0.44061   0.71253   0.00000  Uiso   1.00
H958   H     0.38551   0.44030   0.71314   0.00000  Uiso   1.00
H959   H     0.36551   0.56024   0.78534   0.00000  Uiso   1.00
H960   H     0.61568   0.56089   0.78345   0.00000  Uiso   1.00
H961   H     0.61609   0.53911   0.90185   0.00000  Uiso   1.00
H962   H     0.46918   0.51005   0.58776   0.00000  Uiso   1.00
N963   N     0.38093   0.50001   0.75001   0.00000  Uiso   1.00
N964   N     0.61906   0.49998   0.75001   0.00000  Uiso   1.00
N965   N     0.54968   0.37553   0.81325   0.00000  Uiso   1.00
N966   N     0.64634   0.49036   0.96850   0.00000  Uiso   1.00
O967   O     0.46179   0.56108   0.75000   0.00000  Uiso   1.00
O968   O     0.38309   0.61006   0.57638   0.00000  Uiso   1.00
O969   O     0.38915   0.54220   0.62780   0.00000  Uiso   1.00
O970   O     0.53823   0.56107   0.75000   0.00000  Uiso   1.00
O971   O     0.44280   0.50000   0.82681   0.00000  Uiso   1.00
O972   O     0.51924   0.49999   0.82681   0.00000  Uiso   1.00
O973   O     0.46177   0.43893   0.75000   0.00000  Uiso   1.00
O974   O     0.53821   0.43892   0.75000   0.00000  Uiso   1.00
O975   O     0.48076   0.50001   0.67319   0.00000  Uiso   1.00
O976   O     0.55720   0.50000   0.67319   0.00000  Uiso   1.00
O977   O     0.45895   0.59399   0.59105   0.00000  Uiso   1.00
S978   S     0.41701   0.57539   0.57839   0.00000  Uiso   1.00
Zn979  Zn    0.44896   0.50001   0.75000   0.00000  Uiso   1.00
Zn980  Zn    0.55104   0.49999   0.75000   0.00000  Uiso   1.00
C981   C     0.83313   0.57993   0.75027   0.00000  Uiso   1.00
C982   C     0.79494   0.52505   0.90572   0.00000  Uiso   1.00
C983   C     0.85799   0.64435   0.78114   0.00000  Uiso   1.00
C984   C     0.80819   0.50723   0.85066   0.00000  Uiso   1.00
C985   C     0.85889   0.35408   0.78143   0.00000  Uiso   1.00
C986   C     0.83315   0.37575   0.75235   0.00000  Uiso   1.00
C987   C     0.80669   0.35492   0.72407   0.00000  Uiso   1.00
C988   C     0.80633   0.64546   0.72375   0.00000  Uiso   1.00
C989   C     0.83246   0.62393   0.75169   0.00000  Uiso   1.00
C990   C     0.98173   0.46687   0.72953   0.00000  Uiso   1.00
C991   C     0.69626   0.46683   0.72964   0.00000  Uiso   1.00
C992   C     0.81645   0.53734   0.98744   0.00000  Uiso   1.00
C993   C     0.68520   0.53344   0.76960   0.00000  Uiso   1.00
C994   C     0.97082   0.53359   0.76909   0.00000  Uiso   1.00
C995   C     0.83321   0.42000   0.75103   0.00000  Uiso   1.00
C996   C     0.85903   0.49972   0.64792   0.00000  Uiso   1.00
C997   C     0.93436   0.50487   0.50239   0.00000  Uiso   1.00
C998   C     0.87376   0.50381   0.58954   0.00000  Uiso   1.00
C999   C     0.74735   0.53250   0.93414   0.00000  Uiso   1.00
C1000  C     0.73453   0.54616   0.98759   0.00000  Uiso   1.00
C1001  C     0.76838   0.54870   0.51527   0.00000  Uiso   1.00
C1002  C     0.93387   0.36912   0.79672   0.00000  Uiso   1.00
C1003  C     0.82978   0.53467   0.93089   0.00000  Uiso   1.00
C1004  C     0.66995   0.45692   0.98817   0.00000  Uiso   1.00
C1005  C     0.85179   0.52617   0.51178   0.00000  Uiso   1.00
C1006  C     0.90031   0.52229   0.97988   0.00000  Uiso   1.00
C1007  C     0.91284   0.53524   0.92607   0.00000  Uiso   1.00
C1008  C     0.87767   0.54162   0.90191   0.00000  Uiso   1.00
C1009  C     0.83932   0.51322   0.56500   0.00000  Uiso   1.00
C1010  C     0.92117   0.49956   0.55859   0.00000  Uiso   1.00
H1011  H     0.94701   0.49031   0.57823   0.00000  Uiso   1.00
H1012  H     0.72042   0.52947   0.91414   0.00000  Uiso   1.00
H1013  H     0.69789   0.55467   0.50758   0.00000  Uiso   1.00
H1014  H     0.88812   0.55177   0.86052   0.00000  Uiso   1.00
H1015  H     0.87670   0.62686   0.80413   0.00000  Uiso   1.00
H1016  H     0.86766   0.37099   0.85411   0.00000  Uiso   1.00
H1017  H     0.94261   0.33715   0.80749   0.00000  Uiso   1.00
H1018  H     0.95014   0.39212   0.81767   0.00000  Uiso   1.00
H1019  H     0.94924   0.37353   0.75246   0.00000  Uiso   1.00
H1020  H     0.98190   0.48569   0.92859   0.00000  Uiso   1.00
H1021  H     0.70184   0.44640   0.95543   0.00000  Uiso   1.00
H1022  H     0.78702   0.37175   0.70157   0.00000  Uiso   1.00
H1023  H     0.97915   0.42988   0.50106   0.00000  Uiso   1.00
H1024  H     0.68237   0.46804   0.52198   0.00000  Uiso   1.00
H1025  H     0.69527   0.53152   0.61712   0.00000  Uiso   1.00
H1026  H     0.78650   0.62921   0.70107   0.00000  Uiso   1.00
H1027  H     0.96839   0.44061   0.71253   0.00000  Uiso   1.00
H1028  H     0.71885   0.44030   0.71314   0.00000  Uiso   1.00
H1029  H     0.69885   0.56024   0.78534   0.00000  Uiso   1.00
H1030  H     0.94901   0.56089   0.78345   0.00000  Uiso   1.00
H1031  H     0.94943   0.53911   0.90185   0.00000  Uiso   1.00
H1032  H     0.80251   0.51005   0.58776   0.00000  Uiso   1.00
N1033  N     0.71426   0.50001   0.75001   0.00000  Uiso   1.00
N1034  N     0.95239   0.49998   0.75001   0.00000  Uiso   1.00
N1035  N     0.88301   0.37553   0.81325   0.00000  Uiso   1.00
N1036  N     0.97967   0.49036   0.96850   0.00000  Uiso   1.00
O1037  O     0.79512   0.56108   0.75000   0.00000  Uiso   1.00
O1038  O     0.71642   0.61006   0.57638   0.00000  Uiso   1.00
O1039  O     0.72249   0.54220   0.62780   0.00000  Uiso   1.00
O1040  O     0.87157   0.56107   0.75000   0.00000  Uiso   1.00
O1041  O     0.77613   0.50000   0.82681   0.00000  Uiso   1.00
O1042  O     0.85258   0.49999   0.82681   0.00000  Uiso   1.00
O1043  O     0.79510   0.43893   0.75000   0.00000  Uiso   1.00
O1044  O     0.87154   0.43892   0.75000   0.00000  Uiso   1.00
O1045  O     0.81409   0.50001   0.67319   0.00000  Uiso   1.00
O1046  O     0.89053   0.50000   0.67319   0.00000  Uiso   1.00
O1047  O     0.79228   0.59399   0.59105   0.00000  Uiso   1.00
S1048  S     0.75034   0.57539   0.57839   0.00000  Uiso   1.00
Zn1049 Zn    0.78229   0.50001   0.75000   0.00000  Uiso   1.00
Zn1050 Zn    0.88438   0.49999   0.75000   0.00000  Uiso   1.00
C1051  C     0.16647   0.91326   0.75027   0.00000  Uiso   1.00
C1052  C     0.12828   0.85838   0.90572   0.00000  Uiso   1.00
C1053  C     0.19133   0.97769   0.78114   0.00000  Uiso   1.00
C1054  C     0.14152   0.84056   0.85066   0.00000  Uiso   1.00
C1055  C     0.19223   0.68742   0.78143   0.00000  Uiso   1.00
C1056  C     0.16648   0.70908   0.75235   0.00000  Uiso   1.00
C1057  C     0.14003   0.68826   0.72407   0.00000  Uiso   1.00
C1058  C     0.13966   0.97880   0.72375   0.00000  Uiso   1.00
C1059  C     0.16579   0.95727   0.75169   0.00000  Uiso   1.00
C1060  C     0.31506   0.80021   0.72953   0.00000  Uiso   1.00
C1061  C     0.02959   0.80016   0.72964   0.00000  Uiso   1.00
C1062  C     0.14978   0.87068   0.98744   0.00000  Uiso   1.00
C1063  C     0.01853   0.86678   0.76960   0.00000  Uiso   1.00
C1064  C     0.30416   0.86692   0.76909   0.00000  Uiso   1.00
C1065  C     0.16654   0.75334   0.75103   0.00000  Uiso   1.00
C1066  C     0.19236   0.83305   0.64792   0.00000  Uiso   1.00
C1067  C     0.26769   0.83821   0.50239   0.00000  Uiso   1.00
C1068  C     0.20709   0.83715   0.58954   0.00000  Uiso   1.00
C1069  C     0.08068   0.86583   0.93414   0.00000  Uiso   1.00
C1070  C     0.06786   0.87949   0.98759   0.00000  Uiso   1.00
C1071  C     0.10171   0.88203   0.51527   0.00000  Uiso   1.00
C1072  C     0.26721   0.70245   0.79672   0.00000  Uiso   1.00
C1073  C     0.16312   0.86801   0.93089   0.00000  Uiso   1.00
C1074  C     0.00329   0.79026   0.98817   0.00000  Uiso   1.00
C1075  C     0.18513   0.85950   0.51178   0.00000  Uiso   1.00
C1076  C     0.23364   0.85562   0.97988   0.00000  Uiso   1.00
C1077  C     0.24618   0.86857   0.92607   0.00000  Uiso   1.00
C1078  C     0.21100   0.87495   0.90191   0.00000  Uiso   1.00
C1079  C     0.17265   0.84655   0.56500   0.00000  Uiso   1.00
C1080  C     0.25450   0.83289   0.55859   0.00000  Uiso   1.00
H1081  H     0.28034   0.82365   0.57823   0.00000  Uiso   1.00
H1082  H     0.05375   0.86281   0.91414   0.00000  Uiso   1.00
H1083  H     0.03122   0.88801   0.50758   0.00000  Uiso   1.00
H1084  H     0.22145   0.88510   0.86052   0.00000  Uiso   1.00
H1085  H     0.21003   0.96019   0.80413   0.00000  Uiso   1.00
H1086  H     0.20099   0.70433   0.85411   0.00000  Uiso   1.00
H1087  H     0.27594   0.67049   0.80749   0.00000  Uiso   1.00
H1088  H     0.28348   0.72545   0.81767   0.00000  Uiso   1.00
H1089  H     0.28257   0.70686   0.75246   0.00000  Uiso   1.00
H1090  H     0.31523   0.81903   0.92859   0.00000  Uiso   1.00
H1091  H     0.03518   0.77973   0.95543   0.00000  Uiso   1.00
H1092  H     0.12035   0.70508   0.70157   0.00000  Uiso   1.00
H1093  H     0.31249   0.76321   0.50106   0.00000  Uiso   1.00
H1094  H     0.01570   0.80137   0.52198   0.00000  Uiso   1.00
H1095  H     0.02860   0.86485   0.61712   0.00000  Uiso   1.00
H1096  H     0.11983   0.96255   0.70107   0.00000  Uiso   1.00
H1097  H     0.30172   0.77394   0.71253   0.00000  Uiso   1.00
H1098  H     0.05218   0.77363   0.71314   0.00000  Uiso   1.00
H1099  H     0.03218   0.89357   0.78534   0.00000  Uiso   1.00
H1100  H     0.28234   0.89423   0.78345   0.00000  Uiso   1.00
H1101  H     0.28276   0.87244   0.90185   0.00000  Uiso   1.00
H1102  H     0.13585   0.84339   0.58776   0.00000  Uiso   1.00
N1103  N     0.04760   0.83334   0.75001   0.00000  Uiso   1.00
N1104  N     0.28573   0.83331   0.75001   0.00000  Uiso   1.00
N1105  N     0.21634   0.70886   0.81325   0.00000  Uiso   1.00
N1106  N     0.31301   0.82369   0.96850   0.00000  Uiso   1.00
O1107  O     0.12846   0.89442   0.75000   0.00000  Uiso   1.00
O1108  O     0.04975   0.94339   0.57638   0.00000  Uiso   1.00
O1109  O     0.05582   0.87554   0.62780   0.00000  Uiso   1.00
O1110  O     0.20490   0.89441   0.75000   0.00000  Uiso   1.00
O1111  O     0.10947   0.83333   0.82681   0.00000  Uiso   1.00
O1112  O     0.18591   0.83332   0.82681   0.00000  Uiso   1.00
O1113  O     0.12843   0.77226   0.75000   0.00000  Uiso   1.00
O1114  O     0.20488   0.77225   0.75000   0.00000  Uiso   1.00
O1115  O     0.14742   0.83335   0.67319   0.00000  Uiso   1.00
O1116  O     0.22387   0.83334   0.67319   0.00000  Uiso   1.00
O1117  O     0.12561   0.92733   0.59105   0.00000  Uiso   1.00
S1118  S     0.08367   0.90873   0.57839   0.00000  Uiso   1.00
Zn1119 Zn    0.11562   0.83334   0.75000   0.00000  Uiso   1.00
Zn1120 Zn    0.21771   0.83333   0.75000   0.00000  Uiso   1.00
C1121  C     0.49980   0.91326   0.75027   0.00000  Uiso   1.00
C1122  C     0.46161   0.85838   0.90572   0.00000  Uiso   1.00
C1123  C     0.52466   0.97769   0.78114   0.00000  Uiso   1.00
C1124  C     0.47486   0.84056   0.85066   0.00000  Uiso   1.00
C1125  C     0.52556   0.68742   0.78143   0.00000  Uiso   1.00
C1126  C     0.49981   0.70908   0.75235   0.00000  Uiso   1.00
C1127  C     0.47336   0.68826   0.72407   0.00000  Uiso   1.00
C1128  C     0.47299   0.97880   0.72375   0.00000  Uiso   1.00
C1129  C     0.49913   0.95727   0.75169   0.00000  Uiso   1.00
C1130  C     0.64840   0.80021   0.72953   0.00000  Uiso   1.00
C1131  C     0.36292   0.80016   0.72964   0.00000  Uiso   1.00
C1132  C     0.48312   0.87068   0.98744   0.00000  Uiso   1.00
C1133  C     0.35186   0.86678   0.76960   0.00000  Uiso   1.00
C1134  C     0.63749   0.86692   0.76909   0.00000  Uiso   1.00
C1135  C     0.49987   0.75334   0.75103   0.00000  Uiso   1.00
C1136  C     0.52569   0.83305   0.64792   0.00000  Uiso   1.00
C1137  C     0.60103   0.83821   0.50239   0.00000  Uiso   1.00
C1138  C     0.54043   0.83715   0.58954   0.00000  Uiso   1.00
C1139  C     0.41401   0.86583   0.93414   0.00000  Uiso   1.00
C1140  C     0.40120   0.87949   0.98759   0.00000  Uiso   1.00
C1141  C     0.43504   0.88203   0.51527   0.00000  Uiso   1.00
C1142  C     0.60054   0.70245   0.79672   0.00000  Uiso   1.00
C1143  C     0.49645   0.86801   0.93089   0.00000  Uiso   1.00
C1144  C     0.33662   0.79026   0.98817   0.00000  Uiso   1.00
C1145  C     0.51846   0.85950   0.51178   0.00000  Uiso   1.00
C1146  C     0.56698   0.85562   0.97988   0.00000  Uiso   1.00
C1147  C     0.57951   0.86857   0.92607   0.00000  Uiso   1.00
C1148  C     0.54433   0.87495   0.90191   0.00000  Uiso   1.00
C1149  C     0.50599   0.84655   0.56500   0.00000  Uiso   1.00
C1150  C     0.58783   0.83289   0.55859   0.00000  Uiso   1.00
H1151  H     0.61367   0.82365   0.57823   0.00000  Uiso   1.00
H1152  H     0.38708   0.86281   0.91414   0.00000  Uiso   1.00
H1153  H     0.36456   0.88801   0.50758   0.00000  Uiso   1.00
H1154  H     0.55478   0.88510   0.86052   0.00000  Uiso   1.00
H1155  H     0.54336   0.96019   0.80413   0.00000  Uiso   1.00
H1156  H     0.53433   0.70433   0.85411   0.00000  Uiso   1.00
H1157  H     0.60928   0.67049   0.80749   0.00000  Uiso   1.00
H1158  H     0.61681   0.72545   0.81767   0.00000  Uiso   1.00
H1159  H     0.61590   0.70686   0.75246   0.00000  Uiso   1.00
H1160  H     0.64856   0.81903   0.92859   0.00000  Uiso   1.00
H1161  H     0.36851   0.77973   0.95543   0.00000  Uiso   1.00
H1162  H     0.45368   0.70508   0.70157   0.00000  Uiso   1.00
H1163  H     0.64582   0.76321   0.50106   0.00000  Uiso   1.00
H1164  H     0.34904   0.80137   0.52198   0.00000  Uiso   1.00
H1165  H     0.36193   0.86485   0.61712   0.00000  Uiso   1.00
H1166  H     0.45316   0.96255   0.70107   0.00000  Uiso   1.00
H1167  H     0.63506   0.77394   0.71253   0.00000  Uiso   1.00
H1168  H     0.38551   0.77363   0.71314   0.00000  Uiso   1.00
H1169  H     0.36551   0.89357   0.78534   0.00000  Uiso   1.00
H1170  H     0.61568   0.89423   0.78345   0.00000  Uiso   1.00
H1171  H     0.61609   0.87244   0.90185   0.00000  Uiso   1.00
H1172  H     0.46918   0.84339   0.58776   0.00000  Uiso   1.00
N1173  N     0.38093   0.83334   0.75001   0.00000  Uiso   1.00
N1174  N     0.61906   0.83331   0.75001   0.00000  Uiso   1.00
N1175  N     0.54968   0.70886   0.81325   0.00000  Uiso   1.00
N1176  N     0.64634   0.82369   0.96850   0.00000  Uiso   1.00
O1177  O     0.46179   0.89442   0.75000   0.00000  Uiso   1.00
O1178  O     0.38309   0.94339   0.57638   0.00000  Uiso   1.00
O1179  O     0.38915   0.87554   0.62780   0.00000  Uiso   1.00
O1180  O     0.53823   0.89441   0.75000   0.00000  Uiso   1.00
O1181  O     0.44280   0.83333   0.82681   0.00000  Uiso   1.00
O1182  O     0.51924   0.83332   0.82681   0.00000  Uiso   1.00
O1183  O     0.46177   0.77226   0.75000   0.00000  Uiso   1.00
O1184  O     0.53821   0.77225   0.75000   0.00000  Uiso   1.00
O1185  O     0.48076   0.83335   0.67319   0.00000  Uiso   1.00
O1186  O     0.55720   0.83334   0.67319   0.00000  Uiso   1.00
O1187  O     0.45895   0.92733   0.59105   0.00000  Uiso   1.00
S1188  S     0.41701   0.90873   0.57839   0.00000  Uiso   1.00
Zn1189 Zn    0.44896   0.83334   0.75000   0.00000  Uiso   1.00
Zn1190 Zn    0.55104   0.83333   0.75000   0.00000  Uiso   1.00
C1191  C     0.83313   0.91326   0.75027   0.00000  Uiso   1.00
C1192  C     0.79494   0.85838   0.90572   0.00000  Uiso   1.00
C1193  C     0.85799   0.97769   0.78114   0.00000  Uiso   1.00
C1194  C     0.80819   0.84056   0.85066   0.00000  Uiso   1.00
C1195  C     0.85889   0.68742   0.78143   0.00000  Uiso   1.00
C1196  C     0.83315   0.70908   0.75235   0.00000  Uiso   1.00
C1197  C     0.80669   0.68826   0.72407   0.00000  Uiso   1.00
C1198  C     0.80633   0.97880   0.72375   0.00000  Uiso   1.00
C1199  C     0.83246   0.95727   0.75169   0.00000  Uiso   1.00
C1200  C     0.98173   0.80021   0.72953   0.00000  Uiso   1.00
C1201  C     0.69626   0.80016   0.72964   0.00000  Uiso   1.00
C1202  C     0.81645   0.87068   0.98744   0.00000  Uiso   1.00
C1203  C     0.68520   0.86678   0.76960   0.00000  Uiso   1.00
C1204  C     0.97082   0.86692   0.76909   0.00000  Uiso   1.00
C1205  C     0.83321   0.75334   0.75103   0.00000  Uiso   1.00
C1206  C     0.85903   0.83305   0.64792   0.00000  Uiso   1.00
C1207  C     0.93436   0.83821   0.50239   0.00000  Uiso   1.00
C1208  C     0.87376   0.83715   0.58954   0.00000  Uiso   1.00
C1209  C     0.74735   0.86583   0.93414   0.00000  Uiso   1.00
C1210  C     0.73453   0.87949   0.98759   0.00000  Uiso   1.00
C1211  C     0.76838   0.88203   0.51527   0.00000  Uiso   1.00
C1212  C     0.93387   0.70245   0.79672   0.00000  Uiso   1.00
C1213  C     0.82978   0.86801   0.93089   0.00000  Uiso   1.00
C1214  C     0.66995   0.79026   0.98817   0.00000  Uiso   1.00
C1215  C     0.85179   0.85950   0.51178   0.00000  Uiso   1.00
C1216  C     0.90031   0.85562   0.97988   0.00000  Uiso   1.00
C1217  C     0.91284   0.86857   0.92607   0.00000  Uiso   1.00
C1218  C     0.87767   0.87495   0.90191   0.00000  Uiso   1.00
C1219  C     0.83932   0.84655   0.56500   0.00000  Uiso   1.00
C1220  C     0.92117   0.83289   0.55859   0.00000  Uiso   1.00
H1221  H     0.94701   0.82365   0.57823   0.00000  Uiso   1.00
H1222  H     0.72042   0.86281   0.91414   0.00000  Uiso   1.00
H1223  H     0.69789   0.88801   0.50758   0.00000  Uiso   1.00
H1224  H     0.88812   0.88510   0.86052   0.00000  Uiso   1.00
H1225  H     0.87670   0.96019   0.80413   0.00000  Uiso   1.00
H1226  H     0.86766   0.70433   0.85411   0.00000  Uiso   1.00
H1227  H     0.94261   0.67049   0.80749   0.00000  Uiso   1.00
H1228  H     0.95014   0.72545   0.81767   0.00000  Uiso   1.00
H1229  H     0.94924   0.70686   0.75246   0.00000  Uiso   1.00
H1230  H     0.98190   0.81903   0.92859   0.00000  Uiso   1.00
H1231  H     0.70184   0.77973   0.95543   0.00000  Uiso   1.00
H1232  H     0.78702   0.70508   0.70157   0.00000  Uiso   1.00
H1233  H     0.97915   0.76321   0.50106   0.00000  Uiso   1.00
H1234  H     0.68237   0.80137   0.52198   0.00000  Uiso   1.00
H1235  H     0.69527   0.86485   0.61712   0.00000  Uiso   1.00
H1236  H     0.78650   0.96255   0.70107   0.00000  Uiso   1.00
H1237  H     0.96839   0.77394   0.71253   0.00000  Uiso   1.00
H1238  H     0.71885   0.77363   0.71314   0.00000  Uiso   1.00
H1239  H     0.69885   0.89357   0.78534   0.00000  Uiso   1.00
H1240  H     0.94901   0.89423   0.78345   0.00000  Uiso   1.00
H1241  H     0.94943   0.87244   0.90185   0.00000  Uiso   1.00
H1242  H     0.80251   0.84339   0.58776   0.00000  Uiso   1.00
N1243  N     0.71426   0.83334   0.75001   0.00000  Uiso   1.00
N1244  N     0.95239   0.83331   0.75001   0.00000  Uiso   1.00
N1245  N     0.88301   0.70886   0.81325   0.00000  Uiso   1.00
N1246  N     0.97967   0.82369   0.96850   0.00000  Uiso   1.00
O1247  O     0.79512   0.89442   0.75000   0.00000  Uiso   1.00
O1248  O     0.71642   0.94339   0.57638   0.00000  Uiso   1.00
O1249  O     0.72249   0.87554   0.62780   0.00000  Uiso   1.00
O1250  O     0.87157   0.89441   0.75000   0.00000  Uiso   1.00
O1251  O     0.77613   0.83333   0.82681   0.00000  Uiso   1.00
O1252  O     0.85258   0.83332   0.82681   0.00000  Uiso   1.00
O1253  O     0.79510   0.77226   0.75000   0.00000  Uiso   1.00
O1254  O     0.87154   0.77225   0.75000   0.00000  Uiso   1.00
O1255  O     0.81409   0.83335   0.67319   0.00000  Uiso   1.00
O1256  O     0.89053   0.83334   0.67319   0.00000  Uiso   1.00
O1257  O     0.79228   0.92733   0.59105   0.00000  Uiso   1.00
S1258  S     0.75034   0.90873   0.57839   0.00000  Uiso   1.00
Zn1259 Zn    0.78229   0.83334   0.75000   0.00000  Uiso   1.00
Zn1260 Zn    0.88438   0.83333   0.75000   0.00000  Uiso   1.00
loop_
_geom_bond_atom_site_label_1
_geom_bond_atom_site_label_2
_geom_bond_distance
_geom_bond_site_symmetry_2
_ccdc_geom_bond_type
C1     C9      1.409   .     S
C1     O60     1.282   .     A
C1     O57     1.281   .     A
C2     C4      1.476   .     S
C2     C23     1.414   .     A
C2     C19     1.396   .     A
C3     C9      1.393   .     A
C3     H35     1.084   .     S
C3     C215    1.379   .     S
C4     O61     1.303   .     A
C4     O62     1.290   .     A
C5     C6      1.407   .     A
C5     N55     1.424   .     S
C5     C423    1.379   1_545 S
C6     C15     1.417   .     S
C6     C7      1.397   .     A
C7     H42     1.084   .     S
C7     C428    1.370   1_545 S
C8     C9      1.392   .     A
C8     H46     1.084   .     S
C8     C217    1.370   .     S
C10    N54     1.366   .     A
C10    H47     1.080   .     S
C10    C81     1.417   .     S
C11    N53     1.367   .     A
C11    H48     1.081   .     S
C11    C150    1.417   1_455 S
C12    C23     1.403   .     A
C12    C651    1.430   .     S
C12    C655    1.422   .     S
C13    N53     1.366   .     A
C13    H49     1.081   .     S
C13    C154    1.416   1_455 S
C14    N54     1.368   .     A
C14    H50     1.080   .     S
C14    C83     1.416   .     S
C15    O64     1.282   .     A
C15    O63     1.284   .     A
C16    O66     1.293   .     A
C16    O65     1.292   .     A
C16    C18     1.452   .     S
C17    C30     1.403   .     A
C17    C656    1.422   1_554 S
C17    N686    1.436   1_554 S
C18    C30     1.394   .     A
C18    C29     1.389   .     A
C19    C20     1.393   .     A
C19    H32     1.080   .     S
C20    C651    1.402   .     S
C20    H663    1.083   .     S
C21    S68     1.778   .     S
C21    C642    1.430   1_554 S
C21    C650    1.402   1_554 S
C22    N55     1.447   .     S
C22    H38     1.110   .     S
C22    H37     1.111   .     S
C22    H39     1.111   .     S
C23    C28     1.407   .     A
C24    H41     1.111   .     S
C24    H813    1.111   1_455 S
C24    H674    1.109   .     S
C24    N196    1.451   1_455 S
C25    C29     1.384   .     A
C25    C642    1.422   1_554 S
C25    C656    1.427   1_554 S
C26    C27     1.398   .     A
C26    C655    1.427   .     S
C26    C647    1.422   .     S
C27    C28     1.384   .     A
C27    H51     1.082   .     S
C28    H34     1.077   .     S
C29    H52     1.075   .     S
C30    H31     1.081   .     S
H33    C650    1.083   1_554 S
H36    N55     1.031   .     S
H40    N56     1.030   .     S
H43    C724    1.111   1_554 S
H44    C654    1.109   1_554 S
H45    O59     0.991   .     S
N53    Zn69    2.013   .     S
N54    Zn70    2.013   .     S
N56    C94     1.451   .     S
N56    C647    1.436   .     S
O57    Zn69    1.994   .     S
O58    S68     1.503   .     D
O59    S68     1.682   .     S
O60    Zn70    1.990   .     S
O61    Zn69    1.949   .     S
O62    Zn70    1.931   .     S
O63    Zn69    1.990   .     S
O64    Zn70    1.994   .     S
O65    Zn69    1.931   .     S
O66    Zn70    1.949   .     S
O67    S68     1.503   .     D
C71    C79     1.409   .     S
C71    O130    1.282   .     A
C71    O127    1.281   .     A
C72    C74     1.476   .     S
C72    C93     1.414   .     A
C72    C89     1.396   .     A
C73    C79     1.393   .     A
C73    H105    1.084   .     S
C73    C285    1.379   .     S
C74    O131    1.303   .     A
C74    O132    1.290   .     A
C75    C76     1.407   .     A
C75    N125    1.424   .     S
C75    C493    1.379   1_545 S
C76    C85     1.417   .     S
C76    C77     1.397   .     A
C77    H112    1.084   .     S
C77    C498    1.370   1_545 S
C78    C79     1.392   .     A
C78    H116    1.084   .     S
C78    C287    1.370   .     S
C80    N124    1.366   .     A
C80    H117    1.080   .     S
C80    C151    1.417   .     S
C81    N123    1.367   .     A
C81    H118    1.081   .     S
C82    C93     1.403   .     A
C82    C721    1.430   .     S
C82    C725    1.422   .     S
C83    N123    1.366   .     A
C83    H119    1.081   .     S
C84    N124    1.368   .     A
C84    H120    1.080   .     S
C84    C153    1.416   .     S
C85    O134    1.282   .     A
C85    O133    1.284   .     A
C86    O136    1.293   .     A
C86    O135    1.292   .     A
C86    C88     1.452   .     S
C87    C100    1.403   .     A
C87    C726    1.422   1_554 S
C87    N756    1.436   1_554 S
C88    C100    1.394   .     A
C88    C99     1.389   .     A
C89    C90     1.393   .     A
C89    H102    1.080   .     S
C90    C721    1.402   .     S
C90    H733    1.083   .     S
C91    S138    1.778   .     S
C91    C712    1.430   1_554 S
C91    C720    1.402   1_554 S
C92    N125    1.447   .     S
C92    H108    1.110   .     S
C92    H107    1.111   .     S
C92    H109    1.111   .     S
C93    C98     1.407   .     A
C94    H111    1.111   .     S
C94    H673    1.111   .     S
C94    H744    1.109   .     S
C95    C99     1.384   .     A
C95    C712    1.422   1_554 S
C95    C726    1.427   1_554 S
C96    C97     1.398   .     A
C96    C725    1.427   .     S
C96    C717    1.422   .     S
C97    C98     1.384   .     A
C97    H121    1.082   .     S
C98    H104    1.077   .     S
C99    H122    1.075   .     S
C100   H101    1.081   .     S
H103   C720    1.083   1_554 S
H106   N125    1.031   .     S
H110   N126    1.030   .     S
H113   C794    1.111   1_554 S
H114   C724    1.109   1_554 S
H115   O129    0.991   .     S
N123   Zn139   2.013   .     S
N124   Zn140   2.013   .     S
N126   C164    1.451   .     S
N126   C717    1.436   .     S
O127   Zn139   1.994   .     S
O128   S138    1.503   .     D
O129   S138    1.682   .     S
O130   Zn140   1.990   .     S
O131   Zn139   1.949   .     S
O132   Zn140   1.931   .     S
O133   Zn139   1.990   .     S
O134   Zn140   1.994   .     S
O135   Zn139   1.931   .     S
O136   Zn140   1.949   .     S
O137   S138    1.503   .     D
C141   C149    1.409   .     S
C141   O200    1.282   .     A
C141   O197    1.281   .     A
C142   C144    1.476   .     S
C142   C163    1.414   .     A
C142   C159    1.396   .     A
C143   C149    1.393   .     A
C143   H175    1.084   .     S
C143   C355    1.379   .     S
C144   O201    1.303   .     A
C144   O202    1.290   .     A
C145   C146    1.407   .     A
C145   N195    1.424   .     S
C145   C563    1.379   1_545 S
C146   C155    1.417   .     S
C146   C147    1.397   .     A
C147   H182    1.084   .     S
C147   C568    1.370   1_545 S
C148   C149    1.392   .     A
C148   H186    1.084   .     S
C148   C357    1.370   .     S
C150   N194    1.366   .     A
C150   H187    1.080   .     S
C150   C11     1.417   1_655 S
C151   N193    1.367   .     A
C151   H188    1.081   .     S
C152   C163    1.403   .     A
C152   C791    1.430   .     S
C152   C795    1.422   .     S
C153   N193    1.366   .     A
C153   H189    1.081   .     S
C154   N194    1.368   .     A
C154   H190    1.080   .     S
C154   C13     1.416   1_655 S
C155   O204    1.282   .     A
C155   O203    1.284   .     A
C156   O206    1.293   .     A
C156   O205    1.292   .     A
C156   C158    1.452   .     S
C157   C170    1.403   .     A
C157   C796    1.422   1_554 S
C157   N826    1.436   1_554 S
C158   C170    1.394   .     A
C158   C169    1.389   .     A
C159   C160    1.393   .     A
C159   H172    1.080   .     S
C160   C791    1.402   .     S
C160   H803    1.083   .     S
C161   S208    1.778   .     S
C161   C782    1.430   1_554 S
C161   C790    1.402   1_554 S
C162   N195    1.447   .     S
C162   H178    1.110   .     S
C162   H177    1.111   .     S
C162   H179    1.111   .     S
C163   C168    1.407   .     A
C164   H181    1.111   .     S
C164   H743    1.111   .     S
C164   H814    1.109   .     S
C165   C169    1.384   .     A
C165   C782    1.422   1_554 S
C165   C796    1.427   1_554 S
C166   C167    1.398   .     A
C166   C795    1.427   .     S
C166   C787    1.422   .     S
C167   C168    1.384   .     A
C167   H191    1.082   .     S
C168   H174    1.077   .     S
C169   H192    1.075   .     S
C170   H171    1.081   .     S
H173   C790    1.083   1_554 S
H176   N195    1.031   .     S
H180   N196    1.030   .     S
H183   C654    1.111   1_654 S
H184   C794    1.109   1_554 S
H185   O199    0.991   .     S
N193   Zn209   2.013   .     S
N194   Zn210   2.013   .     S
N196   C24     1.451   1_655 S
N196   C787    1.436   .     S
O197   Zn209   1.994   .     S
O198   S208    1.503   .     D
O199   S208    1.682   .     S
O200   Zn210   1.990   .     S
O201   Zn209   1.949   .     S
O202   Zn210   1.931   .     S
O203   Zn209   1.990   .     S
O204   Zn210   1.994   .     S
O205   Zn209   1.931   .     S
O206   Zn210   1.949   .     S
O207   S208    1.503   .     D
C211   C219    1.409   .     S
C211   O270    1.282   .     A
C211   O267    1.281   .     A
C212   C214    1.476   .     S
C212   C233    1.414   .     A
C212   C229    1.396   .     A
C213   C219    1.393   .     A
C213   H245    1.084   .     S
C213   C425    1.379   .     S
C214   O271    1.303   .     A
C214   O272    1.290   .     A
C215   C216    1.407   .     A
C215   N265    1.424   .     S
C216   C225    1.417   .     S
C216   C217    1.397   .     A
C217   H252    1.084   .     S
C218   C219    1.392   .     A
C218   H256    1.084   .     S
C218   C427    1.370   .     S
C220   N264    1.366   .     A
C220   H257    1.080   .     S
C220   C291    1.417   .     S
C221   N263    1.367   .     A
C221   H258    1.081   .     S
C221   C360    1.417   1_455 S
C222   C233    1.403   .     A
C222   C861    1.430   .     S
C222   C865    1.422   .     S
C223   N263    1.366   .     A
C223   H259    1.081   .     S
C223   C364    1.416   1_455 S
C224   N264    1.368   .     A
C224   H260    1.080   .     S
C224   C293    1.416   .     S
C225   O274    1.282   .     A
C225   O273    1.284   .     A
C226   O276    1.293   .     A
C226   O275    1.292   .     A
C226   C228    1.452   .     S
C227   C240    1.403   .     A
C227   C866    1.422   1_554 S
C227   N896    1.436   1_554 S
C228   C240    1.394   .     A
C228   C239    1.389   .     A
C229   C230    1.393   .     A
C229   H242    1.080   .     S
C230   C861    1.402   .     S
C230   H873    1.083   .     S
C231   S278    1.778   .     S
C231   C852    1.430   1_554 S
C231   C860    1.402   1_554 S
C232   N265    1.447   .     S
C232   H248    1.110   .     S
C232   H247    1.111   .     S
C232   H249    1.111   .     S
C233   C238    1.407   .     A
C234   H251    1.111   .     S
C234   H1023   1.111   1_455 S
C234   H884    1.109   .     S
C234   N406    1.451   1_455 S
C235   C239    1.384   .     A
C235   C852    1.422   1_554 S
C235   C866    1.427   1_554 S
C236   C237    1.398   .     A
C236   C865    1.427   .     S
C236   C857    1.422   .     S
C237   C238    1.384   .     A
C237   H261    1.082   .     S
C238   H244    1.077   .     S
C239   H262    1.075   .     S
C240   H241    1.081   .     S
H243   C860    1.083   1_554 S
H246   N265    1.031   .     S
H250   N266    1.030   .     S
H253   C934    1.111   1_554 S
H254   C864    1.109   1_554 S
H255   O269    0.991   .     S
N263   Zn279   2.013   .     S
N264   Zn280   2.013   .     S
N266   C304    1.451   .     S
N266   C857    1.436   .     S
O267   Zn279   1.994   .     S
O268   S278    1.503   .     D
O269   S278    1.682   .     S
O270   Zn280   1.990   .     S
O271   Zn279   1.949   .     S
O272   Zn280   1.931   .     S
O273   Zn279   1.990   .     S
O274   Zn280   1.994   .     S
O275   Zn279   1.931   .     S
O276   Zn280   1.949   .     S
O277   S278    1.503   .     D
C281   C289    1.409   .     S
C281   O340    1.282   .     A
C281   O337    1.281   .     A
C282   C284    1.476   .     S
C282   C303    1.414   .     A
C282   C299    1.396   .     A
C283   C289    1.393   .     A
C283   H315    1.084   .     S
C283   C495    1.379   .     S
C284   O341    1.303   .     A
C284   O342    1.290   .     A
C285   C286    1.407   .     A
C285   N335    1.424   .     S
C286   C295    1.417   .     S
C286   C287    1.397   .     A
C287   H322    1.084   .     S
C288   C289    1.392   .     A
C288   H326    1.084   .     S
C288   C497    1.370   .     S
C290   N334    1.366   .     A
C290   H327    1.080   .     S
C290   C361    1.417   .     S
C291   N333    1.367   .     A
C291   H328    1.081   .     S
C292   C303    1.403   .     A
C292   C931    1.430   .     S
C292   C935    1.422   .     S
C293   N333    1.366   .     A
C293   H329    1.081   .     S
C294   N334    1.368   .     A
C294   H330    1.080   .     S
C294   C363    1.416   .     S
C295   O344    1.282   .     A
C295   O343    1.284   .     A
C296   O346    1.293   .     A
C296   O345    1.292   .     A
C296   C298    1.452   .     S
C297   C310    1.403   .     A
C297   C936    1.422   1_554 S
C297   N966    1.436   1_554 S
C298   C310    1.394   .     A
C298   C309    1.389   .     A
C299   C300    1.393   .     A
C299   H312    1.080   .     S
C300   C931    1.402   .     S
C300   H943    1.083   .     S
C301   S348    1.778   .     S
C301   C922    1.430   1_554 S
C301   C930    1.402   1_554 S
C302   N335    1.447   .     S
C302   H318    1.110   .     S
C302   H317    1.111   .     S
C302   H319    1.111   .     S
C303   C308    1.407   .     A
C304   H321    1.111   .     S
C304   H883    1.111   .     S
C304   H954    1.109   .     S
C305   C309    1.384   .     A
C305   C922    1.422   1_554 S
C305   C936    1.427   1_554 S
C306   C307    1.398   .     A
C306   C935    1.427   .     S
C306   C927    1.422   .     S
C307   C308    1.384   .     A
C307   H331    1.082   .     S
C308   H314    1.077   .     S
C309   H332    1.075   .     S
C310   H311    1.081   .     S
H313   C930    1.083   1_554 S
H316   N335    1.031   .     S
H320   N336    1.030   .     S
H323   C1004   1.111   1_554 S
H324   C934    1.109   1_554 S
H325   O339    0.991   .     S
N333   Zn349   2.013   .     S
N334   Zn350   2.013   .     S
N336   C374    1.451   .     S
N336   C927    1.436   .     S
O337   Zn349   1.994   .     S
O338   S348    1.503   .     D
O339   S348    1.682   .     S
O340   Zn350   1.990   .     S
O341   Zn349   1.949   .     S
O342   Zn350   1.931   .     S
O343   Zn349   1.990   .     S
O344   Zn350   1.994   .     S
O345   Zn349   1.931   .     S
O346   Zn350   1.949   .     S
O347   S348    1.503   .     D
C351   C359    1.409   .     S
C351   O410    1.282   .     A
C351   O407    1.281   .     A
C352   C354    1.476   .     S
C352   C373    1.414   .     A
C352   C369    1.396   .     A
C353   C359    1.393   .     A
C353   H385    1.084   .     S
C353   C565    1.379   .     S
C354   O411    1.303   .     A
C354   O412    1.290   .     A
C355   C356    1.407   .     A
C355   N405    1.424   .     S
C356   C365    1.417   .     S
C356   C357    1.397   .     A
C357   H392    1.084   .     S
C358   C359    1.392   .     A
C358   H396    1.084   .     S
C358   C567    1.370   .     S
C360   N404    1.366   .     A
C360   H397    1.080   .     S
C360   C221    1.417   1_655 S
C361   N403    1.367   .     A
C361   H398    1.081   .     S
C362   C373    1.403   .     A
C362   C1001   1.430   .     S
C362   C1005   1.422   .     S
C363   N403    1.366   .     A
C363   H399    1.081   .     S
C364   N404    1.368   .     A
C364   H400    1.080   .     S
C364   C223    1.416   1_655 S
C365   O414    1.282   .     A
C365   O413    1.284   .     A
C366   O416    1.293   .     A
C366   O415    1.292   .     A
C366   C368    1.452   .     S
C367   C380    1.403   .     A
C367   C1006   1.422   1_554 S
C367   N1036   1.436   1_554 S
C368   C380    1.394   .     A
C368   C379    1.389   .     A
C369   C370    1.393   .     A
C369   H382    1.080   .     S
C370   C1001   1.402   .     S
C370   H1013   1.083   .     S
C371   S418    1.778   .     S
C371   C992    1.430   1_554 S
C371   C1000   1.402   1_554 S
C372   N405    1.447   .     S
C372   H388    1.110   .     S
C372   H387    1.111   .     S
C372   H389    1.111   .     S
C373   C378    1.407   .     A
C374   H391    1.111   .     S
C374   H953    1.111   .     S
C374   H1024   1.109   .     S
C375   C379    1.384   .     A
C375   C992    1.422   1_554 S
C375   C1006   1.427   1_554 S
C376   C377    1.398   .     A
C376   C1005   1.427   .     S
C376   C997    1.422   .     S
C377   C378    1.384   .     A
C377   H401    1.082   .     S
C378   H384    1.077   .     S
C379   H402    1.075   .     S
C380   H381    1.081   .     S
H383   C1000   1.083   1_554 S
H386   N405    1.031   .     S
H390   N406    1.030   .     S
H393   C864    1.111   1_654 S
H394   C1004   1.109   1_554 S
H395   O409    0.991   .     S
N403   Zn419   2.013   .     S
N404   Zn420   2.013   .     S
N406   C234    1.451   1_655 S
N406   C997    1.436   .     S
O407   Zn419   1.994   .     S
O408   S418    1.503   .     D
O409   S418    1.682   .     S
O410   Zn420   1.990   .     S
O411   Zn419   1.949   .     S
O412   Zn420   1.931   .     S
O413   Zn419   1.990   .     S
O414   Zn420   1.994   .     S
O415   Zn419   1.931   .     S
O416   Zn420   1.949   .     S
O417   S418    1.503   .     D
C421   C429    1.409   .     S
C421   O480    1.282   .     A
C421   O477    1.281   .     A
C422   C424    1.476   .     S
C422   C443    1.414   .     A
C422   C439    1.396   .     A
C423   C429    1.393   .     A
C423   H455    1.084   .     S
C423   C5      1.379   1_565 S
C424   O481    1.303   .     A
C424   O482    1.290   .     A
C425   C426    1.407   .     A
C425   N475    1.424   .     S
C426   C435    1.417   .     S
C426   C427    1.397   .     A
C427   H462    1.084   .     S
C428   C429    1.392   .     A
C428   H466    1.084   .     S
C428   C7      1.370   1_565 S
C430   N474    1.366   .     A
C430   H467    1.080   .     S
C430   C501    1.417   .     S
C431   N473    1.367   .     A
C431   H468    1.081   .     S
C431   C570    1.417   1_455 S
C432   C443    1.403   .     A
C432   C1071   1.430   .     S
C432   C1075   1.422   .     S
C433   N473    1.366   .     A
C433   H469    1.081   .     S
C433   C574    1.416   1_455 S
C434   N474    1.368   .     A
C434   H470    1.080   .     S
C434   C503    1.416   .     S
C435   O484    1.282   .     A
C435   O483    1.284   .     A
C436   O486    1.293   .     A
C436   O485    1.292   .     A
C436   C438    1.452   .     S
C437   C450    1.403   .     A
C437   C1076   1.422   1_554 S
C437   N1106   1.436   1_554 S
C438   C450    1.394   .     A
C438   C449    1.389   .     A
C439   C440    1.393   .     A
C439   H452    1.080   .     S
C440   C1071   1.402   .     S
C440   H1083   1.083   .     S
C441   S488    1.778   .     S
C441   C1062   1.430   1_554 S
C441   C1070   1.402   1_554 S
C442   N475    1.447   .     S
C442   H458    1.110   .     S
C442   H457    1.111   .     S
C442   H459    1.111   .     S
C443   C448    1.407   .     A
C444   H461    1.111   .     S
C444   H1233   1.111   1_455 S
C444   H1094   1.109   .     S
C444   N616    1.451   1_455 S
C445   C449    1.384   .     A
C445   C1062   1.422   1_554 S
C445   C1076   1.427   1_554 S
C446   C447    1.398   .     A
C446   C1075   1.427   .     S
C446   C1067   1.422   .     S
C447   C448    1.384   .     A
C447   H471    1.082   .     S
C448   H454    1.077   .     S
C449   H472    1.075   .     S
C450   H451    1.081   .     S
H453   C1070   1.083   1_554 S
H456   N475    1.031   .     S
H460   N476    1.030   .     S
H463   C1144   1.111   1_554 S
H464   C1074   1.109   1_554 S
H465   O479    0.991   .     S
N473   Zn489   2.013   .     S
N474   Zn490   2.013   .     S
N476   C514    1.451   .     S
N476   C1067   1.436   .     S
O477   Zn489   1.994   .     S
O478   S488    1.503   .     D
O479   S488    1.682   .     S
O480   Zn490   1.990   .     S
O481   Zn489   1.949   .     S
O482   Zn490   1.931   .     S
O483   Zn489   1.990   .     S
O484   Zn490   1.994   .     S
O485   Zn489   1.931   .     S
O486   Zn490   1.949   .     S
O487   S488    1.503   .     D
C491   C499    1.409   .     S
C491   O550    1.282   .     A
C491   O547    1.281   .     A
C492   C494    1.476   .     S
C492   C513    1.414   .     A
C492   C509    1.396   .     A
C493   C499    1.393   .     A
C493   H525    1.084   .     S
C493   C75     1.379   1_565 S
C494   O551    1.303   .     A
C494   O552    1.290   .     A
C495   C496    1.407   .     A
C495   N545    1.424   .     S
C496   C505    1.417   .     S
C496   C497    1.397   .     A
C497   H532    1.084   .     S
C498   C499    1.392   .     A
C498   H536    1.084   .     S
C498   C77     1.370   1_565 S
C500   N544    1.366   .     A
C500   H537    1.080   .     S
C500   C571    1.417   .     S
C501   N543    1.367   .     A
C501   H538    1.081   .     S
C502   C513    1.403   .     A
C502   C1141   1.430   .     S
C502   C1145   1.422   .     S
C503   N543    1.366   .     A
C503   H539    1.081   .     S
C504   N544    1.368   .     A
C504   H540    1.080   .     S
C504   C573    1.416   .     S
C505   O554    1.282   .     A
C505   O553    1.284   .     A
C506   O556    1.293   .     A
C506   O555    1.292   .     A
C506   C508    1.452   .     S
C507   C520    1.403   .     A
C507   C1146   1.422   1_554 S
C507   N1176   1.436   1_554 S
C508   C520    1.394   .     A
C508   C519    1.389   .     A
C509   C510    1.393   .     A
C509   H522    1.080   .     S
C510   C1141   1.402   .     S
C510   H1153   1.083   .     S
C511   S558    1.778   .     S
C511   C1132   1.430   1_554 S
C511   C1140   1.402   1_554 S
C512   N545    1.447   .     S
C512   H528    1.110   .     S
C512   H527    1.111   .     S
C512   H529    1.111   .     S
C513   C518    1.407   .     A
C514   H531    1.111   .     S
C514   H1093   1.111   .     S
C514   H1164   1.109   .     S
C515   C519    1.384   .     A
C515   C1132   1.422   1_554 S
C515   C1146   1.427   1_554 S
C516   C517    1.398   .     A
C516   C1145   1.427   .     S
C516   C1137   1.422   .     S
C517   C518    1.384   .     A
C517   H541    1.082   .     S
C518   H524    1.077   .     S
C519   H542    1.075   .     S
C520   H521    1.081   .     S
H523   C1140   1.083   1_554 S
H526   N545    1.031   .     S
H530   N546    1.030   .     S
H533   C1214   1.111   1_554 S
H534   C1144   1.109   1_554 S
H535   O549    0.991   .     S
N543   Zn559   2.013   .     S
N544   Zn560   2.013   .     S
N546   C584    1.451   .     S
N546   C1137   1.436   .     S
O547   Zn559   1.994   .     S
O548   S558    1.503   .     D
O549   S558    1.682   .     S
O550   Zn560   1.990   .     S
O551   Zn559   1.949   .     S
O552   Zn560   1.931   .     S
O553   Zn559   1.990   .     S
O554   Zn560   1.994   .     S
O555   Zn559   1.931   .     S
O556   Zn560   1.949   .     S
O557   S558    1.503   .     D
C561   C569    1.409   .     S
C561   O620    1.282   .     A
C561   O617    1.281   .     A
C562   C564    1.476   .     S
C562   C583    1.414   .     A
C562   C579    1.396   .     A
C563   C569    1.393   .     A
C563   H595    1.084   .     S
C563   C145    1.379   1_565 S
C564   O621    1.303   .     A
C564   O622    1.290   .     A
C565   C566    1.407   .     A
C565   N615    1.424   .     S
C566   C575    1.417   .     S
C566   C567    1.397   .     A
C567   H602    1.084   .     S
C568   C569    1.392   .     A
C568   H606    1.084   .     S
C568   C147    1.370   1_565 S
C570   N614    1.366   .     A
C570   H607    1.080   .     S
C570   C431    1.417   1_655 S
C571   N613    1.367   .     A
C571   H608    1.081   .     S
C572   C583    1.403   .     A
C572   C1211   1.430   .     S
C572   C1215   1.422   .     S
C573   N613    1.366   .     A
C573   H609    1.081   .     S
C574   N614    1.368   .     A
C574   H610    1.080   .     S
C574   C433    1.416   1_655 S
C575   O624    1.282   .     A
C575   O623    1.284   .     A
C576   O626    1.293   .     A
C576   O625    1.292   .     A
C576   C578    1.452   .     S
C577   C590    1.403   .     A
C577   C1216   1.422   1_554 S
C577   N1246   1.436   1_554 S
C578   C590    1.394   .     A
C578   C589    1.389   .     A
C579   C580    1.393   .     A
C579   H592    1.080   .     S
C580   C1211   1.402   .     S
C580   H1223   1.083   .     S
C581   S628    1.778   .     S
C581   C1202   1.430   1_554 S
C581   C1210   1.402   1_554 S
C582   N615    1.447   .     S
C582   H598    1.110   .     S
C582   H597    1.111   .     S
C582   H599    1.111   .     S
C583   C588    1.407   .     A
C584   H601    1.111   .     S
C584   H1163   1.111   .     S
C584   H1234   1.109   .     S
C585   C589    1.384   .     A
C585   C1202   1.422   1_554 S
C585   C1216   1.427   1_554 S
C586   C587    1.398   .     A
C586   C1215   1.427   .     S
C586   C1207   1.422   .     S
C587   C588    1.384   .     A
C587   H611    1.082   .     S
C588   H594    1.077   .     S
C589   H612    1.075   .     S
C590   H591    1.081   .     S
H593   C1210   1.083   1_554 S
H596   N615    1.031   .     S
H600   N616    1.030   .     S
H603   C1074   1.111   1_654 S
H604   C1214   1.109   1_554 S
H605   O619    0.991   .     S
N613   Zn629   2.013   .     S
N614   Zn630   2.013   .     S
N616   C444    1.451   1_655 S
N616   C1207   1.436   .     S
O617   Zn629   1.994   .     S
O618   S628    1.503   .     D
O619   S628    1.682   .     S
O620   Zn630   1.990   .     S
O621   Zn629   1.949   .     S
O622   Zn630   1.931   .     S
O623   Zn629   1.990   .     S
O624   Zn630   1.994   .     S
O625   Zn629   1.931   .     S
O626   Zn630   1.949   .     S
O627   S628    1.503   .     D
C631   C639    1.409   .     S
C631   O690    1.282   .     A
C631   O687    1.281   .     A
C632   C634    1.476   .     S
C632   C653    1.414   .     A
C632   C649    1.396   .     A
C633   C639    1.393   .     A
C633   H665    1.084   .     S
C633   C845    1.379   .     S
C634   O691    1.303   .     A
C634   O692    1.290   .     A
C635   C636    1.407   .     A
C635   N685    1.424   .     S
C635   C1053   1.379   1_545 S
C636   C645    1.417   .     S
C636   C637    1.397   .     A
C637   H672    1.084   .     S
C637   C1058   1.370   1_545 S
C638   C639    1.392   .     A
C638   H676    1.084   .     S
C638   C847    1.370   .     S
C640   N684    1.366   .     A
C640   H677    1.080   .     S
C640   C711    1.417   .     S
C641   N683    1.367   .     A
C641   H678    1.081   .     S
C641   C780    1.417   1_455 S
C642   C653    1.403   .     A
C642   C21     1.430   1_556 S
C642   C25     1.422   1_556 S
C643   N683    1.366   .     A
C643   H679    1.081   .     S
C643   C784    1.416   1_455 S
C644   N684    1.368   .     A
C644   H680    1.080   .     S
C644   C713    1.416   .     S
C645   O694    1.282   .     A
C645   O693    1.284   .     A
C646   O696    1.293   .     A
C646   O695    1.292   .     A
C646   C648    1.452   .     S
C647   C660    1.403   .     A
C648   C660    1.394   .     A
C648   C659    1.389   .     A
C649   C650    1.393   .     A
C649   H662    1.080   .     S
C650   C21     1.402   1_556 S
C650   H33     1.083   1_556 S
C651   S698    1.778   .     S
C652   N685    1.447   .     S
C652   H668    1.110   .     S
C652   H667    1.111   .     S
C652   H669    1.111   .     S
C653   C658    1.407   .     A
C654   H671    1.111   .     S
C654   H183    1.111   1_456 S
C654   H44     1.109   1_556 S
C654   N826    1.451   1_455 S
C655   C659    1.384   .     A
C656   C657    1.398   .     A
C656   C25     1.427   1_556 S
C656   C17     1.422   1_556 S
C657   C658    1.384   .     A
C657   H681    1.082   .     S
C658   H664    1.077   .     S
C659   H682    1.075   .     S
C660   H661    1.081   .     S
H666   N685    1.031   .     S
H670   N686    1.030   .     S
H675   O689    0.991   .     S
N683   Zn699   2.013   .     S
N684   Zn700   2.013   .     S
N686   C724    1.451   .     S
N686   C17     1.436   1_556 S
O687   Zn699   1.994   .     S
O688   S698    1.503   .     D
O689   S698    1.682   .     S
O690   Zn700   1.990   .     S
O691   Zn699   1.949   .     S
O692   Zn700   1.931   .     S
O693   Zn699   1.990   .     S
O694   Zn700   1.994   .     S
O695   Zn699   1.931   .     S
O696   Zn700   1.949   .     S
O697   S698    1.503   .     D
C701   C709    1.409   .     S
C701   O760    1.282   .     A
C701   O757    1.281   .     A
C702   C704    1.476   .     S
C702   C723    1.414   .     A
C702   C719    1.396   .     A
C703   C709    1.393   .     A
C703   H735    1.084   .     S
C703   C915    1.379   .     S
C704   O761    1.303   .     A
C704   O762    1.290   .     A
C705   C706    1.407   .     A
C705   N755    1.424   .     S
C705   C1123   1.379   1_545 S
C706   C715    1.417   .     S
C706   C707    1.397   .     A
C707   H742    1.084   .     S
C707   C1128   1.370   1_545 S
C708   C709    1.392   .     A
C708   H746    1.084   .     S
C708   C917    1.370   .     S
C710   N754    1.366   .     A
C710   H747    1.080   .     S
C710   C781    1.417   .     S
C711   N753    1.367   .     A
C711   H748    1.081   .     S
C712   C723    1.403   .     A
C712   C91     1.430   1_556 S
C712   C95     1.422   1_556 S
C713   N753    1.366   .     A
C713   H749    1.081   .     S
C714   N754    1.368   .     A
C714   H750    1.080   .     S
C714   C783    1.416   .     S
C715   O764    1.282   .     A
C715   O763    1.284   .     A
C716   O766    1.293   .     A
C716   O765    1.292   .     A
C716   C718    1.452   .     S
C717   C730    1.403   .     A
C718   C730    1.394   .     A
C718   C729    1.389   .     A
C719   C720    1.393   .     A
C719   H732    1.080   .     S
C720   C91     1.402   1_556 S
C720   H103    1.083   1_556 S
C721   S768    1.778   .     S
C722   N755    1.447   .     S
C722   H738    1.110   .     S
C722   H737    1.111   .     S
C722   H739    1.111   .     S
C723   C728    1.407   .     A
C724   H741    1.111   .     S
C724   H43     1.111   1_556 S
C724   H114    1.109   1_556 S
C725   C729    1.384   .     A
C726   C727    1.398   .     A
C726   C95     1.427   1_556 S
C726   C87     1.422   1_556 S
C727   C728    1.384   .     A
C727   H751    1.082   .     S
C728   H734    1.077   .     S
C729   H752    1.075   .     S
C730   H731    1.081   .     S
H736   N755    1.031   .     S
H740   N756    1.030   .     S
H745   O759    0.991   .     S
N753   Zn769   2.013   .     S
N754   Zn770   2.013   .     S
N756   C794    1.451   .     S
N756   C87     1.436   1_556 S
O757   Zn769   1.994   .     S
O758   S768    1.503   .     D
O759   S768    1.682   .     S
O760   Zn770   1.990   .     S
O761   Zn769   1.949   .     S
O762   Zn770   1.931   .     S
O763   Zn769   1.990   .     S
O764   Zn770   1.994   .     S
O765   Zn769   1.931   .     S
O766   Zn770   1.949   .     S
O767   S768    1.503   .     D
C771   C779    1.409   .     S
C771   O830    1.282   .     A
C771   O827    1.281   .     A
C772   C774    1.476   .     S
C772   C793    1.414   .     A
C772   C789    1.396   .     A
C773   C779    1.393   .     A
C773   H805    1.084   .     S
C773   C985    1.379   .     S
C774   O831    1.303   .     A
C774   O832    1.290   .     A
C775   C776    1.407   .     A
C775   N825    1.424   .     S
C775   C1193   1.379   1_545 S
C776   C785    1.417   .     S
C776   C777    1.397   .     A
C777   H812    1.084   .     S
C777   C1198   1.370   1_545 S
C778   C779    1.392   .     A
C778   H816    1.084   .     S
C778   C987    1.370   .     S
C780   N824    1.366   .     A
C780   H817    1.080   .     S
C780   C641    1.417   1_655 S
C781   N823    1.367   .     A
C781   H818    1.081   .     S
C782   C793    1.403   .     A
C782   C161    1.430   1_556 S
C782   C165    1.422   1_556 S
C783   N823    1.366   .     A
C783   H819    1.081   .     S
C784   N824    1.368   .     A
C784   H820    1.080   .     S
C784   C643    1.416   1_655 S
C785   O834    1.282   .     A
C785   O833    1.284   .     A
C786   O836    1.293   .     A
C786   O835    1.292   .     A
C786   C788    1.452   .     S
C787   C800    1.403   .     A
C788   C800    1.394   .     A
C788   C799    1.389   .     A
C789   C790    1.393   .     A
C789   H802    1.080   .     S
C790   C161    1.402   1_556 S
C790   H173    1.083   1_556 S
C791   S838    1.778   .     S
C792   N825    1.447   .     S
C792   H808    1.110   .     S
C792   H807    1.111   .     S
C792   H809    1.111   .     S
C793   C798    1.407   .     A
C794   H811    1.111   .     S
C794   H113    1.111   1_556 S
C794   H184    1.109   1_556 S
C795   C799    1.384   .     A
C796   C797    1.398   .     A
C796   C165    1.427   1_556 S
C796   C157    1.422   1_556 S
C797   C798    1.384   .     A
C797   H821    1.082   .     S
C798   H804    1.077   .     S
C799   H822    1.075   .     S
C800   H801    1.081   .     S
H806   N825    1.031   .     S
H810   N826    1.030   .     S
H813   C24     1.111   1_655 S
H815   O829    0.991   .     S
N823   Zn839   2.013   .     S
N824   Zn840   2.013   .     S
N826   C654    1.451   1_655 S
N826   C157    1.436   1_556 S
O827   Zn839   1.994   .     S
O828   S838    1.503   .     D
O829   S838    1.682   .     S
O830   Zn840   1.990   .     S
O831   Zn839   1.949   .     S
O832   Zn840   1.931   .     S
O833   Zn839   1.990   .     S
O834   Zn840   1.994   .     S
O835   Zn839   1.931   .     S
O836   Zn840   1.949   .     S
O837   S838    1.503   .     D
C841   C849    1.409   .     S
C841   O900    1.282   .     A
C841   O897    1.281   .     A
C842   C844    1.476   .     S
C842   C863    1.414   .     A
C842   C859    1.396   .     A
C843   C849    1.393   .     A
C843   H875    1.084   .     S
C843   C1055   1.379   .     S
C844   O901    1.303   .     A
C844   O902    1.290   .     A
C845   C846    1.407   .     A
C845   N895    1.424   .     S
C846   C855    1.417   .     S
C846   C847    1.397   .     A
C847   H882    1.084   .     S
C848   C849    1.392   .     A
C848   H886    1.084   .     S
C848   C1057   1.370   .     S
C850   N894    1.366   .     A
C850   H887    1.080   .     S
C850   C921    1.417   .     S
C851   N893    1.367   .     A
C851   H888    1.081   .     S
C851   C990    1.417   1_455 S
C852   C863    1.403   .     A
C852   C231    1.430   1_556 S
C852   C235    1.422   1_556 S
C853   N893    1.366   .     A
C853   H889    1.081   .     S
C853   C994    1.416   1_455 S
C854   N894    1.368   .     A
C854   H890    1.080   .     S
C854   C923    1.416   .     S
C855   O904    1.282   .     A
C855   O903    1.284   .     A
C856   O906    1.293   .     A
C856   O905    1.292   .     A
C856   C858    1.452   .     S
C857   C870    1.403   .     A
C858   C870    1.394   .     A
C858   C869    1.389   .     A
C859   C860    1.393   .     A
C859   H872    1.080   .     S
C860   C231    1.402   1_556 S
C860   H243    1.083   1_556 S
C861   S908    1.778   .     S
C862   N895    1.447   .     S
C862   H878    1.110   .     S
C862   H877    1.111   .     S
C862   H879    1.111   .     S
C863   C868    1.407   .     A
C864   H881    1.111   .     S
C864   H393    1.111   1_456 S
C864   H254    1.109   1_556 S
C864   N1036   1.451   1_455 S
C865   C869    1.384   .     A
C866   C867    1.398   .     A
C866   C235    1.427   1_556 S
C866   C227    1.422   1_556 S
C867   C868    1.384   .     A
C867   H891    1.082   .     S
C868   H874    1.077   .     S
C869   H892    1.075   .     S
C870   H871    1.081   .     S
H876   N895    1.031   .     S
H880   N896    1.030   .     S
H885   O899    0.991   .     S
N893   Zn909   2.013   .     S
N894   Zn910   2.013   .     S
N896   C934    1.451   .     S
N896   C227    1.436   1_556 S
O897   Zn909   1.994   .     S
O898   S908    1.503   .     D
O899   S908    1.682   .     S
O900   Zn910   1.990   .     S
O901   Zn909   1.949   .     S
O902   Zn910   1.931   .     S
O903   Zn909   1.990   .     S
O904   Zn910   1.994   .     S
O905   Zn909   1.931   .     S
O906   Zn910   1.949   .     S
O907   S908    1.503   .     D
C911   C919    1.409   .     S
C911   O970    1.282   .     A
C911   O967    1.281   .     A
C912   C914    1.476   .     S
C912   C933    1.414   .     A
C912   C929    1.396   .     A
C913   C919    1.393   .     A
C913   H945    1.084   .     S
C913   C1125   1.379   .     S
C914   O971    1.303   .     A
C914   O972    1.290   .     A
C915   C916    1.407   .     A
C915   N965    1.424   .     S
C916   C925    1.417   .     S
C916   C917    1.397   .     A
C917   H952    1.084   .     S
C918   C919    1.392   .     A
C918   H956    1.084   .     S
C918   C1127   1.370   .     S
C920   N964    1.366   .     A
C920   H957    1.080   .     S
C920   C991    1.417   .     S
C921   N963    1.367   .     A
C921   H958    1.081   .     S
C922   C933    1.403   .     A
C922   C301    1.430   1_556 S
C922   C305    1.422   1_556 S
C923   N963    1.366   .     A
C923   H959    1.081   .     S
C924   N964    1.368   .     A
C924   H960    1.080   .     S
C924   C993    1.416   .     S
C925   O974    1.282   .     A
C925   O973    1.284   .     A
C926   O976    1.293   .     A
C926   O975    1.292   .     A
C926   C928    1.452   .     S
C927   C940    1.403   .     A
C928   C940    1.394   .     A
C928   C939    1.389   .     A
C929   C930    1.393   .     A
C929   H942    1.080   .     S
C930   C301    1.402   1_556 S
C930   H313    1.083   1_556 S
C931   S978    1.778   .     S
C932   N965    1.447   .     S
C932   H948    1.110   .     S
C932   H947    1.111   .     S
C932   H949    1.111   .     S
C933   C938    1.407   .     A
C934   H951    1.111   .     S
C934   H253    1.111   1_556 S
C934   H324    1.109   1_556 S
C935   C939    1.384   .     A
C936   C937    1.398   .     A
C936   C305    1.427   1_556 S
C936   C297    1.422   1_556 S
C937   C938    1.384   .     A
C937   H961    1.082   .     S
C938   H944    1.077   .     S
C939   H962    1.075   .     S
C940   H941    1.081   .     S
H946   N965    1.031   .     S
H950   N966    1.030   .     S
H955   O969    0.991   .     S
N963   Zn979   2.013   .     S
N964   Zn980   2.013   .     S
N966   C1004   1.451   .     S
N966   C297    1.436   1_556 S
O967   Zn979   1.994   .     S
O968   S978    1.503   .     D
O969   S978    1.682   .     S
O970   Zn980   1.990   .     S
O971   Zn979   1.949   .     S
O972   Zn980   1.931   .     S
O973   Zn979   1.990   .     S
O974   Zn980   1.994   .     S
O975   Zn979   1.931   .     S
O976   Zn980   1.949   .     S
O977   S978    1.503   .     D
C981   C989    1.409   .     S
C981   O1040   1.282   .     A
C981   O1037   1.281   .     A
C982   C984    1.476   .     S
C982   C1003   1.414   .     A
C982   C999    1.396   .     A
C983   C989    1.393   .     A
C983   H1015   1.084   .     S
C983   C1195   1.379   .     S
C984   O1041   1.303   .     A
C984   O1042   1.290   .     A
C985   C986    1.407   .     A
C985   N1035   1.424   .     S
C986   C995    1.417   .     S
C986   C987    1.397   .     A
C987   H1022   1.084   .     S
C988   C989    1.392   .     A
C988   H1026   1.084   .     S
C988   C1197   1.370   .     S
C990   N1034   1.366   .     A
C990   H1027   1.080   .     S
C990   C851    1.417   1_655 S
C991   N1033   1.367   .     A
C991   H1028   1.081   .     S
C992   C1003   1.403   .     A
C992   C371    1.430   1_556 S
C992   C375    1.422   1_556 S
C993   N1033   1.366   .     A
C993   H1029   1.081   .     S
C994   N1034   1.368   .     A
C994   H1030   1.080   .     S
C994   C853    1.416   1_655 S
C995   O1044   1.282   .     A
C995   O1043   1.284   .     A
C996   O1046   1.293   .     A
C996   O1045   1.292   .     A
C996   C998    1.452   .     S
C997   C1010   1.403   .     A
C998   C1010   1.394   .     A
C998   C1009   1.389   .     A
C999   C1000   1.393   .     A
C999   H1012   1.080   .     S
C1000  C371    1.402   1_556 S
C1000  H383    1.083   1_556 S
C1001  S1048   1.778   .     S
C1002  N1035   1.447   .     S
C1002  H1018   1.110   .     S
C1002  H1017   1.111   .     S
C1002  H1019   1.111   .     S
C1003  C1008   1.407   .     A
C1004  H1021   1.111   .     S
C1004  H323    1.111   1_556 S
C1004  H394    1.109   1_556 S
C1005  C1009   1.384   .     A
C1006  C1007   1.398   .     A
C1006  C375    1.427   1_556 S
C1006  C367    1.422   1_556 S
C1007  C1008   1.384   .     A
C1007  H1031   1.082   .     S
C1008  H1014   1.077   .     S
C1009  H1032   1.075   .     S
C1010  H1011   1.081   .     S
H1016  N1035   1.031   .     S
H1020  N1036   1.030   .     S
H1023  C234    1.111   1_655 S
H1025  O1039   0.991   .     S
N1033  Zn1049  2.013   .     S
N1034  Zn1050  2.013   .     S
N1036  C864    1.451   1_655 S
N1036  C367    1.436   1_556 S
O1037  Zn1049  1.994   .     S
O1038  S1048   1.503   .     D
O1039  S1048   1.682   .     S
O1040  Zn1050  1.990   .     S
O1041  Zn1049  1.949   .     S
O1042  Zn1050  1.931   .     S
O1043  Zn1049  1.990   .     S
O1044  Zn1050  1.994   .     S
O1045  Zn1049  1.931   .     S
O1046  Zn1050  1.949   .     S
O1047  S1048   1.503   .     D
C1051  C1059   1.409   .     S
C1051  O1110   1.282   .     A
C1051  O1107   1.281   .     A
C1052  C1054   1.476   .     S
C1052  C1073   1.414   .     A
C1052  C1069   1.396   .     A
C1053  C1059   1.393   .     A
C1053  H1085   1.084   .     S
C1053  C635    1.379   1_565 S
C1054  O1111   1.303   .     A
C1054  O1112   1.290   .     A
C1055  C1056   1.407   .     A
C1055  N1105   1.424   .     S
C1056  C1065   1.417   .     S
C1056  C1057   1.397   .     A
C1057  H1092   1.084   .     S
C1058  C1059   1.392   .     A
C1058  H1096   1.084   .     S
C1058  C637    1.370   1_565 S
C1060  N1104   1.366   .     A
C1060  H1097   1.080   .     S
C1060  C1131   1.417   .     S
C1061  N1103   1.367   .     A
C1061  H1098   1.081   .     S
C1061  C1200   1.417   1_455 S
C1062  C1073   1.403   .     A
C1062  C441    1.430   1_556 S
C1062  C445    1.422   1_556 S
C1063  N1103   1.366   .     A
C1063  H1099   1.081   .     S
C1063  C1204   1.416   1_455 S
C1064  N1104   1.368   .     A
C1064  H1100   1.080   .     S
C1064  C1133   1.416   .     S
C1065  O1114   1.282   .     A
C1065  O1113   1.284   .     A
C1066  O1116   1.293   .     A
C1066  O1115   1.292   .     A
C1066  C1068   1.452   .     S
C1067  C1080   1.403   .     A
C1068  C1080   1.394   .     A
C1068  C1079   1.389   .     A
C1069  C1070   1.393   .     A
C1069  H1082   1.080   .     S
C1070  C441    1.402   1_556 S
C1070  H453    1.083   1_556 S
C1071  S1118   1.778   .     S
C1072  N1105   1.447   .     S
C1072  H1088   1.110   .     S
C1072  H1087   1.111   .     S
C1072  H1089   1.111   .     S
C1073  C1078   1.407   .     A
C1074  H1091   1.111   .     S
C1074  H603    1.111   1_456 S
C1074  H464    1.109   1_556 S
C1074  N1246   1.451   1_455 S
C1075  C1079   1.384   .     A
C1076  C1077   1.398   .     A
C1076  C445    1.427   1_556 S
C1076  C437    1.422   1_556 S
C1077  C1078   1.384   .     A
C1077  H1101   1.082   .     S
C1078  H1084   1.077   .     S
C1079  H1102   1.075   .     S
C1080  H1081   1.081   .     S
H1086  N1105   1.031   .     S
H1090  N1106   1.030   .     S
H1095  O1109   0.991   .     S
N1103  Zn1119  2.013   .     S
N1104  Zn1120  2.013   .     S
N1106  C1144   1.451   .     S
N1106  C437    1.436   1_556 S
O1107  Zn1119  1.994   .     S
O1108  S1118   1.503   .     D
O1109  S1118   1.682   .     S
O1110  Zn1120  1.990   .     S
O1111  Zn1119  1.949   .     S
O1112  Zn1120  1.931   .     S
O1113  Zn1119  1.990   .     S
O1114  Zn1120  1.994   .     S
O1115  Zn1119  1.931   .     S
O1116  Zn1120  1.949   .     S
O1117  S1118   1.503   .     D
C1121  C1129   1.409   .     S
C1121  O1180   1.282   .     A
C1121  O1177   1.281   .     A
C1122  C1124   1.476   .     S
C1122  C1143   1.414   .     A
C1122  C1139   1.396   .     A
C1123  C1129   1.393   .     A
C1123  H1155   1.084   .     S
C1123  C705    1.379   1_565 S
C1124  O1181   1.303   .     A
C1124  O1182   1.290   .     A
C1125  C1126   1.407   .     A
C1125  N1175   1.424   .     S
C1126  C1135   1.417   .     S
C1126  C1127   1.397   .     A
C1127  H1162   1.084   .     S
C1128  C1129   1.392   .     A
C1128  H1166   1.084   .     S
C1128  C707    1.370   1_565 S
C1130  N1174   1.366   .     A
C1130  H1167   1.080   .     S
C1130  C1201   1.417   .     S
C1131  N1173   1.367   .     A
C1131  H1168   1.081   .     S
C1132  C1143   1.403   .     A
C1132  C511    1.430   1_556 S
C1132  C515    1.422   1_556 S
C1133  N1173   1.366   .     A
C1133  H1169   1.081   .     S
C1134  N1174   1.368   .     A
C1134  H1170   1.080   .     S
C1134  C1203   1.416   .     S
C1135  O1184   1.282   .     A
C1135  O1183   1.284   .     A
C1136  O1186   1.293   .     A
C1136  O1185   1.292   .     A
C1136  C1138   1.452   .     S
C1137  C1150   1.403   .     A
C1138  C1150   1.394   .     A
C1138  C1149   1.389   .     A
C1139  C1140   1.393   .     A
C1139  H1152   1.080   .     S
C1140  C511    1.402   1_556 S
C1140  H523    1.083   1_556 S
C1141  S1188   1.778   .     S
C1142  N1175   1.447   .     S
C1142  H1158   1.110   .     S
C1142  H1157   1.111   .     S
C1142  H1159   1.111   .     S
C1143  C1148   1.407   .     A
C1144  H1161   1.111   .     S
C1144  H463    1.111   1_556 S
C1144  H534    1.109   1_556 S
C1145  C1149   1.384   .     A
C1146  C1147   1.398   .     A
C1146  C515    1.427   1_556 S
C1146  C507    1.422   1_556 S
C1147  C1148   1.384   .     A
C1147  H1171   1.082   .     S
C1148  H1154   1.077   .     S
C1149  H1172   1.075   .     S
C1150  H1151   1.081   .     S
H1156  N1175   1.031   .     S
H1160  N1176   1.030   .     S
H1165  O1179   0.991   .     S
N1173  Zn1189  2.013   .     S
N1174  Zn1190  2.013   .     S
N1176  C1214   1.451   .     S
N1176  C507    1.436   1_556 S
O1177  Zn1189  1.994   .     S
O1178  S1188   1.503   .     D
O1179  S1188   1.682   .     S
O1180  Zn1190  1.990   .     S
O1181  Zn1189  1.949   .     S
O1182  Zn1190  1.931   .     S
O1183  Zn1189  1.990   .     S
O1184  Zn1190  1.994   .     S
O1185  Zn1189  1.931   .     S
O1186  Zn1190  1.949   .     S
O1187  S1188   1.503   .     D
C1191  C1199   1.409   .     S
C1191  O1250   1.282   .     A
C1191  O1247   1.281   .     A
C1192  C1194   1.476   .     S
C1192  C1213   1.414   .     A
C1192  C1209   1.396   .     A
C1193  C1199   1.393   .     A
C1193  H1225   1.084   .     S
C1193  C775    1.379   1_565 S
C1194  O1251   1.303   .     A
C1194  O1252   1.290   .     A
C1195  C1196   1.407   .     A
C1195  N1245   1.424   .     S
C1196  C1205   1.417   .     S
C1196  C1197   1.397   .     A
C1197  H1232   1.084   .     S
C1198  C1199   1.392   .     A
C1198  H1236   1.084   .     S
C1198  C777    1.370   1_565 S
C1200  N1244   1.366   .     A
C1200  H1237   1.080   .     S
C1200  C1061   1.417   1_655 S
C1201  N1243   1.367   .     A
C1201  H1238   1.081   .     S
C1202  C1213   1.403   .     A
C1202  C581    1.430   1_556 S
C1202  C585    1.422   1_556 S
C1203  N1243   1.366   .     A
C1203  H1239   1.081   .     S
C1204  N1244   1.368   .     A
C1204  H1240   1.080   .     S
C1204  C1063   1.416   1_655 S
C1205  O1254   1.282   .     A
C1205  O1253   1.284   .     A
C1206  O1256   1.293   .     A
C1206  O1255   1.292   .     A
C1206  C1208   1.452   .     S
C1207  C1220   1.403   .     A
C1208  C1220   1.394   .     A
C1208  C1219   1.389   .     A
C1209  C1210   1.393   .     A
C1209  H1222   1.080   .     S
C1210  C581    1.402   1_556 S
C1210  H593    1.083   1_556 S
C1211  S1258   1.778   .     S
C1212  N1245   1.447   .     S
C1212  H1228   1.110   .     S
C1212  H1227   1.111   .     S
C1212  H1229   1.111   .     S
C1213  C1218   1.407   .     A
C1214  H1231   1.111   .     S
C1214  H533    1.111   1_556 S
C1214  H604    1.109   1_556 S
C1215  C1219   1.384   .     A
C1216  C1217   1.398   .     A
C1216  C585    1.427   1_556 S
C1216  C577    1.422   1_556 S
C1217  C1218   1.384   .     A
C1217  H1241   1.082   .     S
C1218  H1224   1.077   .     S
C1219  H1242   1.075   .     S
C1220  H1221   1.081   .     S
H1226  N1245   1.031   .     S
H1230  N1246   1.030   .     S
H1233  C444    1.111   1_655 S
H1235  O1249   0.991   .     S
N1243  Zn1259  2.013   .     S
N1244  Zn1260  2.013   .     S
N1246  C1074   1.451   1_655 S
N1246  C577    1.436   1_556 S
O1247  Zn1259  1.994   .     S
O1248  S1258   1.503   .     D
O1249  S1258   1.682   .     S
O1250  Zn1260  1.990   .     S
O1251  Zn1259  1.949   .     S
O1252  Zn1260  1.931   .     S
O1253  Zn1259  1.990   .     S
O1254  Zn1260  1.994   .     S
O1255  Zn1259  1.931   .     S
O1256  Zn1260  1.949   .     S
O1257  S1258   1.503   .     D
