data_str_m1_o1_o17_pcu_sym.57
_audit_creation_date              2020-01-03
_audit_creation_method            'Materials Studio'
_symmetry_space_group_name_H-M    'P1'
_symmetry_Int_Tables_number       1
_symmetry_cell_setting            triclinic
loop_
_symmetry_equiv_pos_as_xyz
  x,y,z
_cell_length_a                    36.5170
_cell_length_b                    36.5803
_cell_length_c                    34.3757
_cell_angle_alpha                 89.9738
_cell_angle_beta                  90.0207
_cell_angle_gamma                 89.9860
loop_
_atom_site_label
_atom_site_type_symbol
_atom_site_fract_x
_atom_site_fract_y
_atom_site_fract_z
_atom_site_U_iso_or_equiv
_atom_site_adp_type
_atom_site_occupancy
Zn1    Zn    0.20660   0.00000   0.21735   0.00000  Uiso   1.00
Zn2    Zn    0.29341   0.00000   0.78265   0.00000  Uiso   1.00
Zn3    Zn    0.00000   0.20660   0.21735   0.00000  Uiso   1.00
Zn4    Zn    0.00000   0.29341   0.78265   0.00000  Uiso   1.00
Zn5    Zn    0.29341   0.00000   0.21735   0.00000  Uiso   1.00
Zn6    Zn    0.20660   0.00000   0.78265   0.00000  Uiso   1.00
Zn7    Zn    0.00000   0.29341   0.21735   0.00000  Uiso   1.00
Zn8    Zn    0.00000   0.20660   0.78265   0.00000  Uiso   1.00
Zn9    Zn    0.45660   0.25000   0.71735   0.00000  Uiso   1.00
Zn10   Zn    0.04341   0.25000   0.28265   0.00000  Uiso   1.00
Zn11   Zn    0.25000   0.45660   0.71735   0.00000  Uiso   1.00
Zn12   Zn    0.25000   0.04341   0.28265   0.00000  Uiso   1.00
Zn13   Zn    0.04341   0.25000   0.71735   0.00000  Uiso   1.00
Zn14   Zn    0.45660   0.25000   0.28265   0.00000  Uiso   1.00
Zn15   Zn    0.25000   0.04341   0.71735   0.00000  Uiso   1.00
Zn16   Zn    0.25000   0.45660   0.28265   0.00000  Uiso   1.00
C17    C     0.00921   0.28210   0.41846   0.00000  Uiso   1.00
C18    C     0.00868   0.21774   0.58159   0.00000  Uiso   1.00
C19    C     0.21773   0.49114   0.41839   0.00000  Uiso   1.00
C20    C     0.28236   0.49145   0.58165   0.00000  Uiso   1.00
C21    C     0.49083   0.21789   0.41848   0.00000  Uiso   1.00
C22    C     0.49131   0.28225   0.58155   0.00000  Uiso   1.00
C23    C     0.28228   0.00882   0.41840   0.00000  Uiso   1.00
C24    C     0.21765   0.00858   0.58161   0.00000  Uiso   1.00
C25    C     0.26172   0.03356   0.91846   0.00000  Uiso   1.00
C26    C     0.24060   0.47046   0.08029   0.00000  Uiso   1.00
C27    C     0.46805   0.24004   0.91845   0.00000  Uiso   1.00
C28    C     0.03263   0.24259   0.08171   0.00000  Uiso   1.00
C29    C     0.23523   0.47197   0.91926   0.00000  Uiso   1.00
C30    C     0.25275   0.03608   0.08298   0.00000  Uiso   1.00
C31    C     0.03195   0.25993   0.91847   0.00000  Uiso   1.00
C32    C     0.46737   0.25746   0.08168   0.00000  Uiso   1.00
C33    C     0.00002   0.25000   0.39823   0.00000  Uiso   1.00
C34    C     0.49999   0.24999   0.60179   0.00000  Uiso   1.00
C35    C     0.25001   0.49998   0.39818   0.00000  Uiso   1.00
C36    C     0.25001   0.00002   0.60183   0.00000  Uiso   1.00
C37    C     0.24954   0.00198   0.89872   0.00000  Uiso   1.00
C38    C     0.24922   0.00198   0.10168   0.00000  Uiso   1.00
C39    C     0.00000   0.24998   0.89823   0.00000  Uiso   1.00
C40    C     0.00000   0.25002   0.10187   0.00000  Uiso   1.00
O41    O     0.25000   0.00000   0.25000   0.00000  Uiso   1.00
O42    O     0.25000   0.00000   0.75000   0.00000  Uiso   1.00
O43    O     0.00000   0.25000   0.25000   0.00000  Uiso   1.00
O44    O     0.00000   0.25000   0.75000   0.00000  Uiso   1.00
O45    O     0.25000   0.46964   0.33755   0.00000  Uiso   1.00
O46    O     0.25000   0.03037   0.66245   0.00000  Uiso   1.00
O47    O     0.03037   0.25000   0.33755   0.00000  Uiso   1.00
O48    O     0.46964   0.25000   0.66245   0.00000  Uiso   1.00
O49    O     0.25000   0.03037   0.33755   0.00000  Uiso   1.00
O50    O     0.25000   0.46964   0.66245   0.00000  Uiso   1.00
O51    O     0.46964   0.25000   0.33755   0.00000  Uiso   1.00
O52    O     0.03037   0.25000   0.66245   0.00000  Uiso   1.00
O53    O     0.00000   0.21964   0.83755   0.00000  Uiso   1.00
O54    O     0.00000   0.28037   0.16245   0.00000  Uiso   1.00
O55    O     0.28037   0.00000   0.83755   0.00000  Uiso   1.00
O56    O     0.21964   0.00000   0.16245   0.00000  Uiso   1.00
O57    O     0.00000   0.28037   0.83755   0.00000  Uiso   1.00
O58    O     0.00000   0.21964   0.16245   0.00000  Uiso   1.00
O59    O     0.21964   0.00000   0.83755   0.00000  Uiso   1.00
O60    O     0.28037   0.00000   0.16245   0.00000  Uiso   1.00
O61    O     0.20725   0.07308   0.27302   0.00000  Uiso   1.00
O62    O     0.29276   0.42693   0.72698   0.00000  Uiso   1.00
O63    O     0.42693   0.20725   0.27302   0.00000  Uiso   1.00
O64    O     0.07308   0.29276   0.72698   0.00000  Uiso   1.00
O65    O     0.29276   0.42693   0.27302   0.00000  Uiso   1.00
O66    O     0.20725   0.07308   0.72698   0.00000  Uiso   1.00
O67    O     0.07308   0.29276   0.27302   0.00000  Uiso   1.00
O68    O     0.42693   0.20725   0.72698   0.00000  Uiso   1.00
O69    O     0.20725   0.42693   0.72698   0.00000  Uiso   1.00
O70    O     0.29276   0.07308   0.27302   0.00000  Uiso   1.00
O71    O     0.42693   0.29276   0.72698   0.00000  Uiso   1.00
O72    O     0.07308   0.20725   0.27302   0.00000  Uiso   1.00
O73    O     0.29276   0.07308   0.72698   0.00000  Uiso   1.00
O74    O     0.20725   0.42693   0.27302   0.00000  Uiso   1.00
O75    O     0.07308   0.20725   0.72698   0.00000  Uiso   1.00
O76    O     0.42693   0.29276   0.27302   0.00000  Uiso   1.00
O77    O     0.45725   0.32308   0.77302   0.00000  Uiso   1.00
O78    O     0.04276   0.17693   0.22698   0.00000  Uiso   1.00
O79    O     0.17693   0.45725   0.77302   0.00000  Uiso   1.00
O80    O     0.32308   0.04276   0.22698   0.00000  Uiso   1.00
O81    O     0.04276   0.17693   0.77302   0.00000  Uiso   1.00
O82    O     0.45725   0.32308   0.22698   0.00000  Uiso   1.00
O83    O     0.32308   0.04276   0.77302   0.00000  Uiso   1.00
O84    O     0.17693   0.45725   0.22698   0.00000  Uiso   1.00
O85    O     0.45725   0.17693   0.22698   0.00000  Uiso   1.00
O86    O     0.04276   0.32308   0.77302   0.00000  Uiso   1.00
O87    O     0.17693   0.04276   0.22698   0.00000  Uiso   1.00
O88    O     0.32308   0.45725   0.77302   0.00000  Uiso   1.00
O89    O     0.04276   0.32308   0.22698   0.00000  Uiso   1.00
O90    O     0.45725   0.17693   0.77302   0.00000  Uiso   1.00
O91    O     0.32308   0.45725   0.22698   0.00000  Uiso   1.00
O92    O     0.17693   0.04276   0.77302   0.00000  Uiso   1.00
C93    C     0.00086   0.18300   0.47965   0.00000  Uiso   1.00
C94    C     0.00182   0.31698   0.52038   0.00000  Uiso   1.00
C95    C     0.31711   0.49880   0.47965   0.00000  Uiso   1.00
C96    C     0.18291   0.49828   0.52036   0.00000  Uiso   1.00
C97    C     0.49918   0.31700   0.47959   0.00000  Uiso   1.00
C98    C     0.49820   0.18301   0.52044   0.00000  Uiso   1.00
C99    C     0.18290   0.00117   0.47960   0.00000  Uiso   1.00
C100   C     0.31710   0.00171   0.52041   0.00000  Uiso   1.00
C101   C     0.20496   0.45039   0.98010   0.00000  Uiso   1.00
C102   C     0.26806   0.06767   0.02058   0.00000  Uiso   1.00
C103   C     0.06710   0.25099   0.97971   0.00000  Uiso   1.00
C104   C     0.43299   0.24611   0.02042   0.00000  Uiso   1.00
C105   C     0.26239   0.06946   0.98016   0.00000  Uiso   1.00
C106   C     0.20715   0.44903   0.02126   0.00000  Uiso   1.00
C107   C     0.43290   0.24900   0.97965   0.00000  Uiso   1.00
C108   C     0.06701   0.25392   0.02046   0.00000  Uiso   1.00
C109   C     0.25000   0.49999   0.35579   0.00000  Uiso   1.00
C110   C     0.25000   0.00001   0.64421   0.00000  Uiso   1.00
C111   C     0.00001   0.25000   0.35582   0.00000  Uiso   1.00
C112   C     0.49999   0.25000   0.64419   0.00000  Uiso   1.00
C113   C    -0.00000   0.24999   0.85581   0.00000  Uiso   1.00
C114   C    -0.00000   0.25001   0.14423   0.00000  Uiso   1.00
C115   C     0.25002   0.00063   0.85598   0.00000  Uiso   1.00
C116   C     0.24994   0.49994   0.14413   0.00000  Uiso   1.00
C117   C     0.18001   0.06995   0.24995   0.00000  Uiso   1.00
C118   C     0.31998   0.43005   0.75005   0.00000  Uiso   1.00
C119   C     0.43001   0.18004   0.25004   0.00000  Uiso   1.00
C120   C     0.06996   0.31997   0.74992   0.00000  Uiso   1.00
C121   C     0.31998   0.43004   0.24996   0.00000  Uiso   1.00
C122   C     0.18003   0.06996   0.75004   0.00000  Uiso   1.00
C123   C     0.07000   0.31997   0.25000   0.00000  Uiso   1.00
C124   C     0.43003   0.18003   0.74994   0.00000  Uiso   1.00
C125   C     0.17999   0.43006   0.75002   0.00000  Uiso   1.00
C126   C     0.31998   0.06996   0.24994   0.00000  Uiso   1.00
C127   C     0.43002   0.31996   0.74995   0.00000  Uiso   1.00
C128   C     0.06998   0.18005   0.25005   0.00000  Uiso   1.00
C129   C     0.32000   0.06996   0.75003   0.00000  Uiso   1.00
C130   C     0.18004   0.43003   0.24996   0.00000  Uiso   1.00
C131   C     0.06998   0.18003   0.74996   0.00000  Uiso   1.00
C132   C     0.43002   0.31995   0.25002   0.00000  Uiso   1.00
C133   C     0.15016   0.37717   0.21837   0.00000  Uiso   1.00
C134   C     0.37364   0.09934   0.71884   0.00000  Uiso   1.00
C135   C     0.12312   0.15022   0.21847   0.00000  Uiso   1.00
C136   C     0.37642   0.34936   0.78116   0.00000  Uiso   1.00
C137   C     0.35023   0.12229   0.21821   0.00000  Uiso   1.00
C138   C     0.14936   0.37804   0.78197   0.00000  Uiso   1.00
C139   C     0.37661   0.34958   0.21865   0.00000  Uiso   1.00
C140   C     0.12370   0.15071   0.78108   0.00000  Uiso   1.00
C141   C     0.15067   0.12312   0.78104   0.00000  Uiso   1.00
C142   C     0.34965   0.37718   0.21868   0.00000  Uiso   1.00
C143   C     0.12258   0.35030   0.78189   0.00000  Uiso   1.00
C144   C     0.37707   0.14998   0.21826   0.00000  Uiso   1.00
C145   C     0.34948   0.37699   0.78116   0.00000  Uiso   1.00
C146   C     0.15000   0.12255   0.21844   0.00000  Uiso   1.00
C147   C     0.40061   0.12693   0.71887   0.00000  Uiso   1.00
C148   C     0.12256   0.35022   0.21822   0.00000  Uiso   1.00
C149   C     0.37647   0.15062   0.78114   0.00000  Uiso   1.00
C150   C     0.10021   0.37253   0.28169   0.00000  Uiso   1.00
C151   C     0.37352   0.40063   0.71881   0.00000  Uiso   1.00
C152   C     0.12681   0.09975   0.28150   0.00000  Uiso   1.00
C153   C     0.10037   0.37211   0.71802   0.00000  Uiso   1.00
C154   C     0.39983   0.12762   0.28169   0.00000  Uiso   1.00
C155   C     0.12637   0.09931   0.71889   0.00000  Uiso   1.00
C156   C     0.37345   0.40046   0.28128   0.00000  Uiso   1.00
C157   C     0.40040   0.37285   0.28125   0.00000  Uiso   1.00
C158   C     0.09938   0.12687   0.71895   0.00000  Uiso   1.00
C159   C     0.37291   0.10000   0.28170   0.00000  Uiso   1.00
C160   C     0.12728   0.39975   0.71802   0.00000  Uiso   1.00
C161   C     0.09989   0.12739   0.28150   0.00000  Uiso   1.00
C162   C     0.40047   0.37304   0.71884   0.00000  Uiso   1.00
C163   C     0.12711   0.40016   0.28149   0.00000  Uiso   1.00
C164   C     0.34952   0.12303   0.78111   0.00000  Uiso   1.00
C165   C     0.49775   0.21643   0.45897   0.00000  Uiso   1.00
C166   C     0.49822   0.28360   0.54106   0.00000  Uiso   1.00
C167   C     0.28365   0.00203   0.45893   0.00000  Uiso   1.00
C168   C     0.21634   0.00178   0.54109   0.00000  Uiso   1.00
C169   C     0.00229   0.28356   0.45894   0.00000  Uiso   1.00
C170   C     0.00178   0.21639   0.54110   0.00000  Uiso   1.00
C171   C     0.21636   0.49794   0.45891   0.00000  Uiso   1.00
C172   C     0.28367   0.49823   0.54111   0.00000  Uiso   1.00
C173   C     0.22752   0.47550   0.95945   0.00000  Uiso   1.00
C174   C     0.25502   0.03691   0.04171   0.00000  Uiso   1.00
C175   C     0.03355   0.25315   0.95899   0.00000  Uiso   1.00
C176   C     0.46629   0.25067   0.04115   0.00000  Uiso   1.00
C177   C     0.25512   0.03690   0.95907   0.00000  Uiso   1.00
C178   C     0.23012   0.47439   0.04090   0.00000  Uiso   1.00
C179   C     0.46645   0.24683   0.95897   0.00000  Uiso   1.00
C180   C     0.03371   0.24936   0.04117   0.00000  Uiso   1.00
C181   C     0.09816   0.34810   0.24998   0.00000  Uiso   1.00
C182   C     0.40177   0.15211   0.75003   0.00000  Uiso   1.00
C183   C     0.15169   0.09785   0.25003   0.00000  Uiso   1.00
C184   C     0.34826   0.40214   0.74996   0.00000  Uiso   1.00
C185   C     0.40170   0.15213   0.24995   0.00000  Uiso   1.00
C186   C     0.09825   0.34787   0.74998   0.00000  Uiso   1.00
C187   C     0.34827   0.40212   0.25004   0.00000  Uiso   1.00
C188   C     0.15176   0.09789   0.74993   0.00000  Uiso   1.00
C189   C     0.09826   0.15209   0.75007   0.00000  Uiso   1.00
C190   C     0.40174   0.34789   0.24992   0.00000  Uiso   1.00
C191   C     0.15163   0.40218   0.74993   0.00000  Uiso   1.00
C192   C     0.34829   0.09785   0.25002   0.00000  Uiso   1.00
C193   C     0.40171   0.34788   0.75004   0.00000  Uiso   1.00
C194   C     0.09828   0.15214   0.24996   0.00000  Uiso   1.00
C195   C     0.34830   0.09788   0.74992   0.00000  Uiso   1.00
C196   C     0.15196   0.40200   0.24993   0.00000  Uiso   1.00
C197   C     0.00002   0.25000   0.47953   0.00000  Uiso   1.00
C198   C     0.00001   0.25000   0.52051   0.00000  Uiso   1.00
C199   C     0.25000   0.49999   0.47950   0.00000  Uiso   1.00
C200   C     0.25001   0.00000   0.52052   0.00000  Uiso   1.00
C201   C     0.24136   0.00628   0.97970   0.00000  Uiso   1.00
C202   C     0.24171   0.00615   0.02078   0.00000  Uiso   1.00
C203   C    -0.00000   0.24999   0.97956   0.00000  Uiso   1.00
C204   C    -0.00000   0.25001   0.02058   0.00000  Uiso   1.00
C205   C     0.01280   0.14782   0.45997   0.00000  Uiso   1.00
H206   H     0.02495   0.15280   0.43091   0.00000  Uiso   1.00
H207   H     0.03485   0.13461   0.47724   0.00000  Uiso   1.00
H208   H     0.48954   0.12842   0.45760   0.00000  Uiso   1.00
C209   C     0.01424   0.35199   0.54006   0.00000  Uiso   1.00
H210   H     0.02637   0.34684   0.56911   0.00000  Uiso   1.00
H211   H     0.03644   0.36491   0.52279   0.00000  Uiso   1.00
H212   H     0.49124   0.37169   0.54245   0.00000  Uiso   1.00
C213   C     0.35227   0.48644   0.46012   0.00000  Uiso   1.00
H214   H     0.34718   0.47398   0.43124   0.00000  Uiso   1.00
H215   H     0.37185   0.00950   0.45745   0.00000  Uiso   1.00
H216   H     0.36537   0.46455   0.47768   0.00000  Uiso   1.00
C217   C     0.14785   0.48567   0.53991   0.00000  Uiso   1.00
H218   H     0.13490   0.46369   0.52237   0.00000  Uiso   1.00
H219   H     0.15304   0.47323   0.56879   0.00000  Uiso   1.00
H220   H     0.12810   0.00858   0.54258   0.00000  Uiso   1.00
C221   C     0.48726   0.35218   0.45986   0.00000  Uiso   1.00
H222   H     0.47510   0.34721   0.43079   0.00000  Uiso   1.00
H223   H     0.46521   0.36540   0.47709   0.00000  Uiso   1.00
H224   H     0.01052   0.37156   0.45749   0.00000  Uiso   1.00
C225   C     0.48577   0.14800   0.54014   0.00000  Uiso   1.00
H226   H     0.47364   0.15315   0.56917   0.00000  Uiso   1.00
H227   H     0.46358   0.13508   0.52285   0.00000  Uiso   1.00
H228   H     0.00877   0.12829   0.54257   0.00000  Uiso   1.00
C229   C     0.14774   0.01352   0.46003   0.00000  Uiso   1.00
H230   H     0.15282   0.02598   0.43113   0.00000  Uiso   1.00
H231   H     0.12816   0.49046   0.45736   0.00000  Uiso   1.00
H232   H     0.13462   0.03541   0.47754   0.00000  Uiso   1.00
C233   C     0.35216   0.01434   0.53996   0.00000  Uiso   1.00
H234   H     0.34698   0.02678   0.56883   0.00000  Uiso   1.00
H235   H     0.37192   0.49142   0.54267   0.00000  Uiso   1.00
H236   H     0.36510   0.03631   0.52240   0.00000  Uiso   1.00
C237   C     0.17502   0.42900   0.95940   0.00000  Uiso   1.00
H238   H     0.18036   0.39919   0.96163   0.00000  Uiso   1.00
H239   H     0.14789   0.43530   0.97213   0.00000  Uiso   1.00
H240   H     0.17170   0.43683   0.92854   0.00000  Uiso   1.00
C241   C     0.29288   0.09632   0.03849   0.00000  Uiso   1.00
H242   H     0.30665   0.08615   0.06510   0.00000  Uiso   1.00
H243   H     0.31552   0.10302   0.01813   0.00000  Uiso   1.00
H244   H     0.27744   0.12181   0.04460   0.00000  Uiso   1.00
C245   C     0.10263   0.23974   0.96017   0.00000  Uiso   1.00
H246   H     0.11637   0.21821   0.97769   0.00000  Uiso   1.00
H247   H     0.09794   0.22721   0.93125   0.00000  Uiso   1.00
H248   H     0.12151   0.26337   0.95757   0.00000  Uiso   1.00
C249   C     0.39834   0.23240   0.03996   0.00000  Uiso   1.00
H250   H     0.38605   0.21008   0.02238   0.00000  Uiso   1.00
H251   H     0.40393   0.22005   0.06880   0.00000  Uiso   1.00
H252   H     0.37791   0.25471   0.04270   0.00000  Uiso   1.00
C253   C     0.25792   0.10706   0.96214   0.00000  Uiso   1.00
H254   H     0.24362   0.10592   0.93370   0.00000  Uiso   1.00
H255   H     0.24038   0.12424   0.98118   0.00000  Uiso   1.00
H256   H     0.28479   0.12089   0.95888   0.00000  Uiso   1.00
C257   C     0.18141   0.42399   0.04367   0.00000  Uiso   1.00
H258   H     0.18064   0.42985   0.07519   0.00000  Uiso   1.00
H259   H     0.15264   0.42814   0.03454   0.00000  Uiso   1.00
H260   H     0.18915   0.39500   0.03889   0.00000  Uiso   1.00
C261   C     0.39737   0.26025   0.96007   0.00000  Uiso   1.00
H262   H     0.40206   0.27278   0.93114   0.00000  Uiso   1.00
H263   H     0.37850   0.23660   0.95748   0.00000  Uiso   1.00
H264   H     0.38362   0.28177   0.97755   0.00000  Uiso   1.00
C265   C     0.10165   0.26765   0.04000   0.00000  Uiso   1.00
H266   H     0.09607   0.28000   0.06883   0.00000  Uiso   1.00
H267   H     0.12210   0.24536   0.04278   0.00000  Uiso   1.00
H268   H     0.11392   0.28998   0.02240   0.00000  Uiso   1.00
C269   C     0.17778   0.37876   0.18527   0.00000  Uiso   1.00
H270   H     0.19918   0.39993   0.18870   0.00000  Uiso   1.00
H271   H     0.19252   0.35228   0.18319   0.00000  Uiso   1.00
H272   H     0.16342   0.38455   0.15746   0.00000  Uiso   1.00
C273   C     0.37259   0.07133   0.68615   0.00000  Uiso   1.00
H274   H     0.35098   0.05032   0.68928   0.00000  Uiso   1.00
H275   H     0.36771   0.08535   0.65796   0.00000  Uiso   1.00
H276   H     0.39899   0.05628   0.68508   0.00000  Uiso   1.00
C277   C     0.12163   0.17782   0.18538   0.00000  Uiso   1.00
H278   H     0.10029   0.19909   0.18869   0.00000  Uiso   1.00
H279   H     0.14810   0.19262   0.18346   0.00000  Uiso   1.00
H280   H     0.11604   0.16349   0.15753   0.00000  Uiso   1.00
C281   C     0.37750   0.32135   0.81386   0.00000  Uiso   1.00
H282   H     0.39903   0.30026   0.81067   0.00000  Uiso   1.00
H283   H     0.38252   0.33535   0.84201   0.00000  Uiso   1.00
H284   H     0.35106   0.30640   0.81504   0.00000  Uiso   1.00
C285   C     0.32297   0.11827   0.18494   0.00000  Uiso   1.00
H286   H     0.32670   0.09123   0.17085   0.00000  Uiso   1.00
H287   H     0.29459   0.12021   0.19638   0.00000  Uiso   1.00
H288   H     0.32552   0.13901   0.16172   0.00000  Uiso   1.00
C289   C     0.17606   0.38255   0.81564   0.00000  Uiso   1.00
H290   H     0.17168   0.40960   0.82941   0.00000  Uiso   1.00
H291   H     0.17341   0.36193   0.83898   0.00000  Uiso   1.00
H292   H     0.20464   0.38089   0.80472   0.00000  Uiso   1.00
C293   C     0.37790   0.32182   0.18573   0.00000  Uiso   1.00
H294   H     0.39942   0.30072   0.18891   0.00000  Uiso   1.00
H295   H     0.35149   0.30686   0.18423   0.00000  Uiso   1.00
H296   H     0.38308   0.33605   0.15772   0.00000  Uiso   1.00
C297   C     0.12272   0.17876   0.81371   0.00000  Uiso   1.00
H298   H     0.10110   0.19978   0.81058   0.00000  Uiso   1.00
H299   H     0.11788   0.16479   0.84192   0.00000  Uiso   1.00
H300   H     0.14911   0.19379   0.81471   0.00000  Uiso   1.00
C301   C     0.17902   0.12010   0.81339   0.00000  Uiso   1.00
H302   H     0.17619   0.09330   0.82826   0.00000  Uiso   1.00
H303   H     0.20697   0.12218   0.80084   0.00000  Uiso   1.00
H304   H     0.17693   0.14130   0.83617   0.00000  Uiso   1.00
C305   C     0.32163   0.38053   0.18603   0.00000  Uiso   1.00
H306   H     0.32468   0.40743   0.17143   0.00000  Uiso   1.00
H307   H     0.32391   0.35951   0.16308   0.00000  Uiso   1.00
H308   H     0.29355   0.37842   0.19823   0.00000  Uiso   1.00
C309   C     0.12067   0.32316   0.81538   0.00000  Uiso   1.00
H310   H     0.09965   0.30162   0.81190   0.00000  Uiso   1.00
H311   H     0.14724   0.30864   0.81816   0.00000  Uiso   1.00
H312   H     0.11437   0.33782   0.84286   0.00000  Uiso   1.00
C313   C     0.37871   0.17739   0.18501   0.00000  Uiso   1.00
H314   H     0.39993   0.19876   0.18838   0.00000  Uiso   1.00
H315   H     0.38454   0.16292   0.15731   0.00000  Uiso   1.00
H316   H     0.35218   0.19209   0.18277   0.00000  Uiso   1.00
C317   C     0.32130   0.38013   0.81364   0.00000  Uiso   1.00
H318   H     0.32424   0.40695   0.82840   0.00000  Uiso   1.00
H319   H     0.29329   0.37805   0.80125   0.00000  Uiso   1.00
H320   H     0.32349   0.35898   0.83650   0.00000  Uiso   1.00
C321   C     0.17755   0.11882   0.18542   0.00000  Uiso   1.00
H322   H     0.17397   0.09190   0.17104   0.00000  Uiso   1.00
H323   H     0.17517   0.13976   0.16238   0.00000  Uiso   1.00
H324   H     0.20582   0.12068   0.19718   0.00000  Uiso   1.00
C325   C     0.42889   0.12999   0.68645   0.00000  Uiso   1.00
H326   H     0.45687   0.12791   0.69895   0.00000  Uiso   1.00
H327   H     0.42677   0.10881   0.66365   0.00000  Uiso   1.00
H328   H     0.42600   0.15680   0.67162   0.00000  Uiso   1.00
C329   C     0.11877   0.32286   0.18507   0.00000  Uiso   1.00
H330   H     0.12116   0.29461   0.19667   0.00000  Uiso   1.00
H331   H     0.09159   0.32609   0.17102   0.00000  Uiso   1.00
H332   H     0.13944   0.32564   0.16178   0.00000  Uiso   1.00
C333   C     0.37760   0.17855   0.81390   0.00000  Uiso   1.00
H334   H     0.39914   0.19962   0.81073   0.00000  Uiso   1.00
H335   H     0.35118   0.19354   0.81515   0.00000  Uiso   1.00
H336   H     0.38265   0.16448   0.84203   0.00000  Uiso   1.00
C337   C     0.07291   0.36864   0.31489   0.00000  Uiso   1.00
H338   H     0.07651   0.34157   0.32892   0.00000  Uiso   1.00
H339   H     0.07558   0.38931   0.33814   0.00000  Uiso   1.00
H340   H     0.04456   0.37074   0.30339   0.00000  Uiso   1.00
C341   C     0.37233   0.42855   0.68602   0.00000  Uiso   1.00
H342   H     0.35079   0.44963   0.68920   0.00000  Uiso   1.00
H343   H     0.39874   0.44353   0.68471   0.00000  Uiso   1.00
H344   H     0.36725   0.41447   0.65792   0.00000  Uiso   1.00
C345   C     0.12827   0.07212   0.31456   0.00000  Uiso   1.00
H346   H     0.14969   0.05093   0.31133   0.00000  Uiso   1.00
H347   H     0.13370   0.08645   0.34244   0.00000  Uiso   1.00
H348   H     0.10183   0.05724   0.31633   0.00000  Uiso   1.00
C349   C     0.07312   0.36806   0.68472   0.00000  Uiso   1.00
H350   H     0.07663   0.34093   0.67076   0.00000  Uiso   1.00
H351   H     0.04476   0.37027   0.69613   0.00000  Uiso   1.00
H352   H     0.07583   0.38867   0.66139   0.00000  Uiso   1.00
C353   C     0.42723   0.13149   0.31483   0.00000  Uiso   1.00
H354   H     0.42360   0.15851   0.32894   0.00000  Uiso   1.00
H355   H     0.42470   0.11074   0.33805   0.00000  Uiso   1.00
H356   H     0.45555   0.12949   0.30326   0.00000  Uiso   1.00
C357   C     0.12746   0.07135   0.68616   0.00000  Uiso   1.00
H358   H     0.14908   0.05034   0.68928   0.00000  Uiso   1.00
H359   H     0.10108   0.05629   0.68503   0.00000  Uiso   1.00
H360   H     0.13236   0.08541   0.65801   0.00000  Uiso   1.00
C361   C     0.37224   0.42828   0.31413   0.00000  Uiso   1.00
H362   H     0.35072   0.44939   0.31096   0.00000  Uiso   1.00
H363   H     0.36712   0.41411   0.34218   0.00000  Uiso   1.00
H364   H     0.39866   0.44324   0.31553   0.00000  Uiso   1.00
C365   C     0.42846   0.36954   0.31387   0.00000  Uiso   1.00
H366   H     0.42544   0.34266   0.32851   0.00000  Uiso   1.00
H367   H     0.45652   0.37165   0.30162   0.00000  Uiso   1.00
H368   H     0.42621   0.39059   0.33680   0.00000  Uiso   1.00
C369   C     0.07112   0.12996   0.68654   0.00000  Uiso   1.00
H370   H     0.07417   0.15674   0.67176   0.00000  Uiso   1.00
H371   H     0.07321   0.10878   0.66373   0.00000  Uiso   1.00
H372   H     0.04313   0.12801   0.69898   0.00000  Uiso   1.00
C373   C     0.37119   0.07267   0.31503   0.00000  Uiso   1.00
H374   H     0.34986   0.05140   0.31175   0.00000  Uiso   1.00
H375   H     0.39764   0.05784   0.31727   0.00000  Uiso   1.00
H376   H     0.36545   0.08722   0.34270   0.00000  Uiso   1.00
C377   C     0.12919   0.42689   0.68453   0.00000  Uiso   1.00
H378   H     0.15047   0.44820   0.68782   0.00000  Uiso   1.00
H379   H     0.13510   0.41217   0.65700   0.00000  Uiso   1.00
H380   H     0.10274   0.44168   0.68201   0.00000  Uiso   1.00
C381   C     0.07213   0.13093   0.31436   0.00000  Uiso   1.00
H382   H     0.07533   0.15789   0.32877   0.00000  Uiso   1.00
H383   H     0.04396   0.12880   0.30240   0.00000  Uiso   1.00
H384   H     0.07456   0.11002   0.33742   0.00000  Uiso   1.00
C385   C     0.42856   0.36983   0.68630   0.00000  Uiso   1.00
H386   H     0.42540   0.34303   0.67163   0.00000  Uiso   1.00
H387   H     0.42639   0.39096   0.66343   0.00000  Uiso   1.00
H388   H     0.45662   0.37178   0.69859   0.00000  Uiso   1.00
C389   C     0.12865   0.42775   0.31458   0.00000  Uiso   1.00
H390   H     0.14980   0.44917   0.31116   0.00000  Uiso   1.00
H391   H     0.10209   0.44239   0.31669   0.00000  Uiso   1.00
H392   H     0.13450   0.41342   0.34239   0.00000  Uiso   1.00
C393   C     0.32146   0.11979   0.81367   0.00000  Uiso   1.00
H394   H     0.29338   0.12166   0.80140   0.00000  Uiso   1.00
H395   H     0.32474   0.09299   0.82838   0.00000  Uiso   1.00
H396   H     0.32358   0.14094   0.83652   0.00000  Uiso   1.00
C397   C     0.02947   0.31232   0.39719   0.00000  Uiso   1.00
H398   H     0.05283   0.30056   0.38085   0.00000  Uiso   1.00
H399   H     0.01091   0.32650   0.37650   0.00000  Uiso   1.00
H400   H     0.04223   0.33227   0.41723   0.00000  Uiso   1.00
C401   C     0.02843   0.18721   0.60292   0.00000  Uiso   1.00
H402   H     0.05189   0.19861   0.61942   0.00000  Uiso   1.00
H403   H     0.00960   0.17328   0.62349   0.00000  Uiso   1.00
H404   H     0.04099   0.16712   0.58290   0.00000  Uiso   1.00
C405   C     0.18708   0.47157   0.39696   0.00000  Uiso   1.00
H406   H     0.19835   0.44838   0.37998   0.00000  Uiso   1.00
H407   H     0.16714   0.45871   0.41695   0.00000  Uiso   1.00
H408   H     0.17293   0.49062   0.37677   0.00000  Uiso   1.00
C409   C     0.31318   0.47215   0.60311   0.00000  Uiso   1.00
H410   H     0.30210   0.44891   0.62018   0.00000  Uiso   1.00
H411   H     0.33321   0.45940   0.58314   0.00000  Uiso   1.00
H412   H     0.32718   0.49133   0.62324   0.00000  Uiso   1.00
C413   C     0.47057   0.18767   0.39723   0.00000  Uiso   1.00
H414   H     0.44720   0.19943   0.38087   0.00000  Uiso   1.00
H415   H     0.48913   0.17351   0.37655   0.00000  Uiso   1.00
H416   H     0.45782   0.16772   0.41728   0.00000  Uiso   1.00
C417   C     0.47155   0.31279   0.60282   0.00000  Uiso   1.00
H418   H     0.44809   0.30139   0.61932   0.00000  Uiso   1.00
H419   H     0.49039   0.32672   0.62340   0.00000  Uiso   1.00
H420   H     0.45899   0.33287   0.58278   0.00000  Uiso   1.00
C421   C     0.31293   0.02839   0.39698   0.00000  Uiso   1.00
H422   H     0.30166   0.05158   0.37998   0.00000  Uiso   1.00
H423   H     0.33288   0.04124   0.41698   0.00000  Uiso   1.00
H424   H     0.32707   0.00935   0.37681   0.00000  Uiso   1.00
C425   C     0.18683   0.02788   0.60303   0.00000  Uiso   1.00
H426   H     0.19791   0.05111   0.62009   0.00000  Uiso   1.00
H427   H     0.16680   0.04062   0.58303   0.00000  Uiso   1.00
H428   H     0.17283   0.00869   0.62316   0.00000  Uiso   1.00
C429   C     0.28668   0.05984   0.89679   0.00000  Uiso   1.00
H430   H     0.30769   0.04456   0.88020   0.00000  Uiso   1.00
H431   H     0.27048   0.07707   0.87650   0.00000  Uiso   1.00
H432   H     0.30336   0.07706   0.91633   0.00000  Uiso   1.00
C433   C     0.24670   0.43333   0.09885   0.00000  Uiso   1.00
H434   H     0.27451   0.43235   0.11194   0.00000  Uiso   1.00
H435   H     0.22631   0.42842   0.12223   0.00000  Uiso   1.00
H436   H     0.24563   0.41084   0.07727   0.00000  Uiso   1.00
C437   C     0.43805   0.21943   0.89709   0.00000  Uiso   1.00
H438   H     0.45004   0.19646   0.88033   0.00000  Uiso   1.00
H439   H     0.41844   0.20610   0.91710   0.00000  Uiso   1.00
H440   H     0.42338   0.23792   0.87673   0.00000  Uiso   1.00
C441   C     0.06407   0.22436   0.10323   0.00000  Uiso   1.00
H442   H     0.05372   0.20092   0.12051   0.00000  Uiso   1.00
H443   H     0.08443   0.21212   0.08328   0.00000  Uiso   1.00
H444   H     0.07751   0.24408   0.12320   0.00000  Uiso   1.00
C445   C     0.23578   0.43492   0.89929   0.00000  Uiso   1.00
H446   H     0.26217   0.43115   0.88371   0.00000  Uiso   1.00
H447   H     0.23412   0.41190   0.92018   0.00000  Uiso   1.00
H448   H     0.21325   0.43306   0.87777   0.00000  Uiso   1.00
C449   C     0.24898   0.07057   0.10723   0.00000  Uiso   1.00
H450   H     0.22680   0.06728   0.12901   0.00000  Uiso   1.00
H451   H     0.27488   0.07639   0.12292   0.00000  Uiso   1.00
H452   H     0.24037   0.09437   0.08958   0.00000  Uiso   1.00
C453   C     0.06194   0.28056   0.89712   0.00000  Uiso   1.00
H454   H     0.08155   0.29388   0.91714   0.00000  Uiso   1.00
H455   H     0.07661   0.26207   0.87678   0.00000  Uiso   1.00
H456   H     0.04994   0.30353   0.88034   0.00000  Uiso   1.00
C457   C     0.43594   0.27569   0.10316   0.00000  Uiso   1.00
H458   H     0.41559   0.28795   0.08317   0.00000  Uiso   1.00
H459   H     0.42249   0.25598   0.12313   0.00000  Uiso   1.00
H460   H     0.44629   0.29913   0.12043   0.00000  Uiso   1.00
Zn461  Zn    0.70660   0.00000   0.21735   0.00000  Uiso   1.00
Zn462  Zn    0.79341   0.00000   0.78265   0.00000  Uiso   1.00
Zn463  Zn    0.50000   0.20660   0.21735   0.00000  Uiso   1.00
Zn464  Zn    0.50000   0.29341   0.78265   0.00000  Uiso   1.00
Zn465  Zn    0.79341   0.00000   0.21735   0.00000  Uiso   1.00
Zn466  Zn    0.70660   0.00000   0.78265   0.00000  Uiso   1.00
Zn467  Zn    0.50000   0.29341   0.21735   0.00000  Uiso   1.00
Zn468  Zn    0.50000   0.20660   0.78265   0.00000  Uiso   1.00
Zn469  Zn    0.95660   0.25000   0.71735   0.00000  Uiso   1.00
Zn470  Zn    0.54341   0.25000   0.28265   0.00000  Uiso   1.00
Zn471  Zn    0.75000   0.45660   0.71735   0.00000  Uiso   1.00
Zn472  Zn    0.75000   0.04341   0.28265   0.00000  Uiso   1.00
Zn473  Zn    0.54341   0.25000   0.71735   0.00000  Uiso   1.00
Zn474  Zn    0.95660   0.25000   0.28265   0.00000  Uiso   1.00
Zn475  Zn    0.75000   0.04341   0.71735   0.00000  Uiso   1.00
Zn476  Zn    0.75000   0.45660   0.28265   0.00000  Uiso   1.00
C477   C     0.50921   0.28210   0.41846   0.00000  Uiso   1.00
C478   C     0.50868   0.21774   0.58159   0.00000  Uiso   1.00
C479   C     0.71773   0.49114   0.41839   0.00000  Uiso   1.00
C480   C     0.78236   0.49145   0.58165   0.00000  Uiso   1.00
C481   C     0.99083   0.21789   0.41848   0.00000  Uiso   1.00
C482   C     0.99131   0.28225   0.58155   0.00000  Uiso   1.00
C483   C     0.78228   0.00882   0.41840   0.00000  Uiso   1.00
C484   C     0.71765   0.00858   0.58161   0.00000  Uiso   1.00
C485   C     0.76172   0.03356   0.91846   0.00000  Uiso   1.00
C486   C     0.74060   0.47046   0.08029   0.00000  Uiso   1.00
C487   C     0.96805   0.24004   0.91845   0.00000  Uiso   1.00
C488   C     0.53263   0.24259   0.08171   0.00000  Uiso   1.00
C489   C     0.73523   0.47197   0.91926   0.00000  Uiso   1.00
C490   C     0.75275   0.03608   0.08298   0.00000  Uiso   1.00
C491   C     0.53195   0.25993   0.91847   0.00000  Uiso   1.00
C492   C     0.96737   0.25746   0.08168   0.00000  Uiso   1.00
C493   C     0.50002   0.25000   0.39823   0.00000  Uiso   1.00
C494   C     0.99999   0.24999   0.60179   0.00000  Uiso   1.00
C495   C     0.75001   0.49998   0.39818   0.00000  Uiso   1.00
C496   C     0.75001   0.00002   0.60183   0.00000  Uiso   1.00
C497   C     0.74954   0.00198   0.89872   0.00000  Uiso   1.00
C498   C     0.74922   0.00198   0.10168   0.00000  Uiso   1.00
C499   C     0.50000   0.24998   0.89823   0.00000  Uiso   1.00
C500   C     0.50000   0.25002   0.10187   0.00000  Uiso   1.00
O501   O     0.75000   0.00000   0.25000   0.00000  Uiso   1.00
O502   O     0.75000   0.00000   0.75000   0.00000  Uiso   1.00
O503   O     0.50000   0.25000   0.25000   0.00000  Uiso   1.00
O504   O     0.50000   0.25000   0.75000   0.00000  Uiso   1.00
O505   O     0.75000   0.46964   0.33755   0.00000  Uiso   1.00
O506   O     0.75000   0.03037   0.66245   0.00000  Uiso   1.00
O507   O     0.53037   0.25000   0.33755   0.00000  Uiso   1.00
O508   O     0.96964   0.25000   0.66245   0.00000  Uiso   1.00
O509   O     0.75000   0.03037   0.33755   0.00000  Uiso   1.00
O510   O     0.75000   0.46964   0.66245   0.00000  Uiso   1.00
O511   O     0.96964   0.25000   0.33755   0.00000  Uiso   1.00
O512   O     0.53037   0.25000   0.66245   0.00000  Uiso   1.00
O513   O     0.50000   0.21964   0.83755   0.00000  Uiso   1.00
O514   O     0.50000   0.28037   0.16245   0.00000  Uiso   1.00
O515   O     0.78037   0.00000   0.83755   0.00000  Uiso   1.00
O516   O     0.71964   0.00000   0.16245   0.00000  Uiso   1.00
O517   O     0.50000   0.28037   0.83755   0.00000  Uiso   1.00
O518   O     0.50000   0.21964   0.16245   0.00000  Uiso   1.00
O519   O     0.71964   0.00000   0.83755   0.00000  Uiso   1.00
O520   O     0.78037   0.00000   0.16245   0.00000  Uiso   1.00
O521   O     0.70725   0.07308   0.27302   0.00000  Uiso   1.00
O522   O     0.79276   0.42693   0.72698   0.00000  Uiso   1.00
O523   O     0.92693   0.20725   0.27302   0.00000  Uiso   1.00
O524   O     0.57308   0.29276   0.72698   0.00000  Uiso   1.00
O525   O     0.79276   0.42693   0.27302   0.00000  Uiso   1.00
O526   O     0.70725   0.07308   0.72698   0.00000  Uiso   1.00
O527   O     0.57308   0.29276   0.27302   0.00000  Uiso   1.00
O528   O     0.92693   0.20725   0.72698   0.00000  Uiso   1.00
O529   O     0.70725   0.42693   0.72698   0.00000  Uiso   1.00
O530   O     0.79276   0.07308   0.27302   0.00000  Uiso   1.00
O531   O     0.92693   0.29276   0.72698   0.00000  Uiso   1.00
O532   O     0.57308   0.20725   0.27302   0.00000  Uiso   1.00
O533   O     0.79276   0.07308   0.72698   0.00000  Uiso   1.00
O534   O     0.70725   0.42693   0.27302   0.00000  Uiso   1.00
O535   O     0.57308   0.20725   0.72698   0.00000  Uiso   1.00
O536   O     0.92693   0.29276   0.27302   0.00000  Uiso   1.00
O537   O     0.95725   0.32308   0.77302   0.00000  Uiso   1.00
O538   O     0.54276   0.17693   0.22698   0.00000  Uiso   1.00
O539   O     0.67693   0.45725   0.77302   0.00000  Uiso   1.00
O540   O     0.82308   0.04276   0.22698   0.00000  Uiso   1.00
O541   O     0.54276   0.17693   0.77302   0.00000  Uiso   1.00
O542   O     0.95725   0.32308   0.22698   0.00000  Uiso   1.00
O543   O     0.82308   0.04276   0.77302   0.00000  Uiso   1.00
O544   O     0.67693   0.45725   0.22698   0.00000  Uiso   1.00
O545   O     0.95725   0.17693   0.22698   0.00000  Uiso   1.00
O546   O     0.54276   0.32308   0.77302   0.00000  Uiso   1.00
O547   O     0.67693   0.04276   0.22698   0.00000  Uiso   1.00
O548   O     0.82308   0.45725   0.77302   0.00000  Uiso   1.00
O549   O     0.54276   0.32308   0.22698   0.00000  Uiso   1.00
O550   O     0.95725   0.17693   0.77302   0.00000  Uiso   1.00
O551   O     0.82308   0.45725   0.22698   0.00000  Uiso   1.00
O552   O     0.67693   0.04276   0.77302   0.00000  Uiso   1.00
C553   C     0.50086   0.18300   0.47965   0.00000  Uiso   1.00
C554   C     0.50182   0.31698   0.52038   0.00000  Uiso   1.00
C555   C     0.81711   0.49880   0.47965   0.00000  Uiso   1.00
C556   C     0.68291   0.49828   0.52036   0.00000  Uiso   1.00
C557   C     0.99918   0.31700   0.47959   0.00000  Uiso   1.00
C558   C     0.99820   0.18301   0.52044   0.00000  Uiso   1.00
C559   C     0.68290   0.00117   0.47960   0.00000  Uiso   1.00
C560   C     0.81710   0.00171   0.52041   0.00000  Uiso   1.00
C561   C     0.70496   0.45039   0.98010   0.00000  Uiso   1.00
C562   C     0.76806   0.06767   0.02058   0.00000  Uiso   1.00
C563   C     0.56710   0.25099   0.97971   0.00000  Uiso   1.00
C564   C     0.93299   0.24611   0.02042   0.00000  Uiso   1.00
C565   C     0.76239   0.06946   0.98016   0.00000  Uiso   1.00
C566   C     0.70715   0.44903   0.02126   0.00000  Uiso   1.00
C567   C     0.93290   0.24900   0.97965   0.00000  Uiso   1.00
C568   C     0.56701   0.25392   0.02046   0.00000  Uiso   1.00
C569   C     0.75000   0.49999   0.35579   0.00000  Uiso   1.00
C570   C     0.75000   0.00001   0.64421   0.00000  Uiso   1.00
C571   C     0.50001   0.25000   0.35582   0.00000  Uiso   1.00
C572   C     0.99999   0.25000   0.64419   0.00000  Uiso   1.00
C573   C     0.50000   0.24999   0.85581   0.00000  Uiso   1.00
C574   C     0.50000   0.25001   0.14423   0.00000  Uiso   1.00
C575   C     0.75002   0.00063   0.85598   0.00000  Uiso   1.00
C576   C     0.74994   0.49994   0.14413   0.00000  Uiso   1.00
C577   C     0.68001   0.06995   0.24995   0.00000  Uiso   1.00
C578   C     0.81998   0.43005   0.75005   0.00000  Uiso   1.00
C579   C     0.93001   0.18004   0.25004   0.00000  Uiso   1.00
C580   C     0.56996   0.31997   0.74992   0.00000  Uiso   1.00
C581   C     0.81998   0.43004   0.24996   0.00000  Uiso   1.00
C582   C     0.68003   0.06996   0.75004   0.00000  Uiso   1.00
C583   C     0.57000   0.31997   0.25000   0.00000  Uiso   1.00
C584   C     0.93003   0.18003   0.74994   0.00000  Uiso   1.00
C585   C     0.67999   0.43006   0.75002   0.00000  Uiso   1.00
C586   C     0.81998   0.06996   0.24994   0.00000  Uiso   1.00
C587   C     0.93002   0.31996   0.74995   0.00000  Uiso   1.00
C588   C     0.56998   0.18005   0.25005   0.00000  Uiso   1.00
C589   C     0.82000   0.06996   0.75003   0.00000  Uiso   1.00
C590   C     0.68004   0.43003   0.24996   0.00000  Uiso   1.00
C591   C     0.56998   0.18003   0.74996   0.00000  Uiso   1.00
C592   C     0.93002   0.31995   0.25002   0.00000  Uiso   1.00
C593   C     0.65016   0.37717   0.21837   0.00000  Uiso   1.00
C594   C     0.87364   0.09934   0.71884   0.00000  Uiso   1.00
C595   C     0.62312   0.15022   0.21847   0.00000  Uiso   1.00
C596   C     0.87642   0.34936   0.78116   0.00000  Uiso   1.00
C597   C     0.85023   0.12229   0.21821   0.00000  Uiso   1.00
C598   C     0.64936   0.37804   0.78197   0.00000  Uiso   1.00
C599   C     0.87661   0.34958   0.21865   0.00000  Uiso   1.00
C600   C     0.62370   0.15071   0.78108   0.00000  Uiso   1.00
C601   C     0.65067   0.12312   0.78104   0.00000  Uiso   1.00
C602   C     0.84965   0.37718   0.21868   0.00000  Uiso   1.00
C603   C     0.62258   0.35030   0.78189   0.00000  Uiso   1.00
C604   C     0.87707   0.14998   0.21826   0.00000  Uiso   1.00
C605   C     0.84948   0.37699   0.78116   0.00000  Uiso   1.00
C606   C     0.65000   0.12255   0.21844   0.00000  Uiso   1.00
C607   C     0.90061   0.12693   0.71887   0.00000  Uiso   1.00
C608   C     0.62256   0.35022   0.21822   0.00000  Uiso   1.00
C609   C     0.87647   0.15062   0.78114   0.00000  Uiso   1.00
C610   C     0.60021   0.37253   0.28169   0.00000  Uiso   1.00
C611   C     0.87352   0.40063   0.71881   0.00000  Uiso   1.00
C612   C     0.62681   0.09975   0.28150   0.00000  Uiso   1.00
C613   C     0.60037   0.37211   0.71802   0.00000  Uiso   1.00
C614   C     0.89983   0.12762   0.28169   0.00000  Uiso   1.00
C615   C     0.62637   0.09931   0.71889   0.00000  Uiso   1.00
C616   C     0.87345   0.40046   0.28128   0.00000  Uiso   1.00
C617   C     0.90040   0.37285   0.28125   0.00000  Uiso   1.00
C618   C     0.59938   0.12687   0.71895   0.00000  Uiso   1.00
C619   C     0.87291   0.10000   0.28170   0.00000  Uiso   1.00
C620   C     0.62728   0.39975   0.71802   0.00000  Uiso   1.00
C621   C     0.59989   0.12739   0.28150   0.00000  Uiso   1.00
C622   C     0.90047   0.37304   0.71884   0.00000  Uiso   1.00
C623   C     0.62711   0.40016   0.28149   0.00000  Uiso   1.00
C624   C     0.84952   0.12303   0.78111   0.00000  Uiso   1.00
C625   C     0.99775   0.21643   0.45897   0.00000  Uiso   1.00
C626   C     0.99822   0.28360   0.54106   0.00000  Uiso   1.00
C627   C     0.78365   0.00203   0.45893   0.00000  Uiso   1.00
C628   C     0.71634   0.00178   0.54109   0.00000  Uiso   1.00
C629   C     0.50229   0.28356   0.45894   0.00000  Uiso   1.00
C630   C     0.50178   0.21639   0.54110   0.00000  Uiso   1.00
C631   C     0.71636   0.49794   0.45891   0.00000  Uiso   1.00
C632   C     0.78367   0.49823   0.54111   0.00000  Uiso   1.00
C633   C     0.72752   0.47550   0.95945   0.00000  Uiso   1.00
C634   C     0.75502   0.03691   0.04171   0.00000  Uiso   1.00
C635   C     0.53355   0.25315   0.95899   0.00000  Uiso   1.00
C636   C     0.96629   0.25067   0.04115   0.00000  Uiso   1.00
C637   C     0.75512   0.03690   0.95907   0.00000  Uiso   1.00
C638   C     0.73012   0.47439   0.04090   0.00000  Uiso   1.00
C639   C     0.96645   0.24683   0.95897   0.00000  Uiso   1.00
C640   C     0.53371   0.24936   0.04117   0.00000  Uiso   1.00
C641   C     0.59816   0.34810   0.24998   0.00000  Uiso   1.00
C642   C     0.90177   0.15211   0.75003   0.00000  Uiso   1.00
C643   C     0.65169   0.09785   0.25003   0.00000  Uiso   1.00
C644   C     0.84826   0.40214   0.74996   0.00000  Uiso   1.00
C645   C     0.90170   0.15213   0.24995   0.00000  Uiso   1.00
C646   C     0.59825   0.34787   0.74998   0.00000  Uiso   1.00
C647   C     0.84827   0.40212   0.25004   0.00000  Uiso   1.00
C648   C     0.65176   0.09789   0.74993   0.00000  Uiso   1.00
C649   C     0.59826   0.15209   0.75007   0.00000  Uiso   1.00
C650   C     0.90174   0.34789   0.24992   0.00000  Uiso   1.00
C651   C     0.65163   0.40218   0.74993   0.00000  Uiso   1.00
C652   C     0.84829   0.09785   0.25002   0.00000  Uiso   1.00
C653   C     0.90171   0.34788   0.75004   0.00000  Uiso   1.00
C654   C     0.59828   0.15214   0.24996   0.00000  Uiso   1.00
C655   C     0.84830   0.09788   0.74992   0.00000  Uiso   1.00
C656   C     0.65196   0.40200   0.24993   0.00000  Uiso   1.00
C657   C     0.50002   0.25000   0.47953   0.00000  Uiso   1.00
C658   C     0.50001   0.25000   0.52051   0.00000  Uiso   1.00
C659   C     0.75000   0.49999   0.47950   0.00000  Uiso   1.00
C660   C     0.75001   0.00000   0.52052   0.00000  Uiso   1.00
C661   C     0.74136   0.00628   0.97970   0.00000  Uiso   1.00
C662   C     0.74171   0.00615   0.02078   0.00000  Uiso   1.00
C663   C     0.50000   0.24999   0.97956   0.00000  Uiso   1.00
C664   C     0.50000   0.25001   0.02058   0.00000  Uiso   1.00
C665   C     0.51280   0.14782   0.45997   0.00000  Uiso   1.00
H666   H     0.52495   0.15280   0.43091   0.00000  Uiso   1.00
H667   H     0.53485   0.13461   0.47724   0.00000  Uiso   1.00
H668   H     0.98954   0.12842   0.45760   0.00000  Uiso   1.00
C669   C     0.51424   0.35199   0.54006   0.00000  Uiso   1.00
H670   H     0.52637   0.34684   0.56911   0.00000  Uiso   1.00
H671   H     0.53644   0.36491   0.52279   0.00000  Uiso   1.00
H672   H     0.99124   0.37169   0.54245   0.00000  Uiso   1.00
C673   C     0.85227   0.48644   0.46012   0.00000  Uiso   1.00
H674   H     0.84718   0.47398   0.43124   0.00000  Uiso   1.00
H675   H     0.87185   0.00950   0.45745   0.00000  Uiso   1.00
H676   H     0.86537   0.46455   0.47768   0.00000  Uiso   1.00
C677   C     0.64785   0.48567   0.53991   0.00000  Uiso   1.00
H678   H     0.63490   0.46369   0.52237   0.00000  Uiso   1.00
H679   H     0.65304   0.47323   0.56879   0.00000  Uiso   1.00
H680   H     0.62810   0.00858   0.54258   0.00000  Uiso   1.00
C681   C     0.98726   0.35218   0.45986   0.00000  Uiso   1.00
H682   H     0.97510   0.34721   0.43079   0.00000  Uiso   1.00
H683   H     0.96521   0.36540   0.47709   0.00000  Uiso   1.00
H684   H     0.51052   0.37156   0.45749   0.00000  Uiso   1.00
C685   C     0.98577   0.14800   0.54014   0.00000  Uiso   1.00
H686   H     0.97364   0.15315   0.56917   0.00000  Uiso   1.00
H687   H     0.96358   0.13508   0.52285   0.00000  Uiso   1.00
H688   H     0.50877   0.12829   0.54257   0.00000  Uiso   1.00
C689   C     0.64774   0.01352   0.46003   0.00000  Uiso   1.00
H690   H     0.65282   0.02598   0.43113   0.00000  Uiso   1.00
H691   H     0.62816   0.49046   0.45736   0.00000  Uiso   1.00
H692   H     0.63462   0.03541   0.47754   0.00000  Uiso   1.00
C693   C     0.85216   0.01434   0.53996   0.00000  Uiso   1.00
H694   H     0.84698   0.02678   0.56883   0.00000  Uiso   1.00
H695   H     0.87192   0.49142   0.54267   0.00000  Uiso   1.00
H696   H     0.86510   0.03631   0.52240   0.00000  Uiso   1.00
C697   C     0.67502   0.42900   0.95940   0.00000  Uiso   1.00
H698   H     0.68036   0.39919   0.96163   0.00000  Uiso   1.00
H699   H     0.64789   0.43530   0.97213   0.00000  Uiso   1.00
H700   H     0.67170   0.43683   0.92854   0.00000  Uiso   1.00
C701   C     0.79288   0.09632   0.03849   0.00000  Uiso   1.00
H702   H     0.80665   0.08615   0.06510   0.00000  Uiso   1.00
H703   H     0.81552   0.10302   0.01813   0.00000  Uiso   1.00
H704   H     0.77744   0.12181   0.04460   0.00000  Uiso   1.00
C705   C     0.60263   0.23974   0.96017   0.00000  Uiso   1.00
H706   H     0.61637   0.21821   0.97769   0.00000  Uiso   1.00
H707   H     0.59794   0.22721   0.93125   0.00000  Uiso   1.00
H708   H     0.62151   0.26337   0.95757   0.00000  Uiso   1.00
C709   C     0.89834   0.23240   0.03996   0.00000  Uiso   1.00
H710   H     0.88605   0.21008   0.02238   0.00000  Uiso   1.00
H711   H     0.90393   0.22005   0.06880   0.00000  Uiso   1.00
H712   H     0.87791   0.25471   0.04270   0.00000  Uiso   1.00
C713   C     0.75792   0.10706   0.96214   0.00000  Uiso   1.00
H714   H     0.74362   0.10592   0.93370   0.00000  Uiso   1.00
H715   H     0.74038   0.12424   0.98118   0.00000  Uiso   1.00
H716   H     0.78479   0.12089   0.95888   0.00000  Uiso   1.00
C717   C     0.68141   0.42399   0.04367   0.00000  Uiso   1.00
H718   H     0.68064   0.42985   0.07519   0.00000  Uiso   1.00
H719   H     0.65264   0.42814   0.03454   0.00000  Uiso   1.00
H720   H     0.68915   0.39500   0.03889   0.00000  Uiso   1.00
C721   C     0.89737   0.26025   0.96007   0.00000  Uiso   1.00
H722   H     0.90206   0.27278   0.93114   0.00000  Uiso   1.00
H723   H     0.87850   0.23660   0.95748   0.00000  Uiso   1.00
H724   H     0.88362   0.28177   0.97755   0.00000  Uiso   1.00
C725   C     0.60165   0.26765   0.04000   0.00000  Uiso   1.00
H726   H     0.59607   0.28000   0.06883   0.00000  Uiso   1.00
H727   H     0.62210   0.24536   0.04278   0.00000  Uiso   1.00
H728   H     0.61392   0.28998   0.02240   0.00000  Uiso   1.00
C729   C     0.67778   0.37876   0.18527   0.00000  Uiso   1.00
H730   H     0.69918   0.39993   0.18870   0.00000  Uiso   1.00
H731   H     0.69252   0.35228   0.18319   0.00000  Uiso   1.00
H732   H     0.66342   0.38455   0.15746   0.00000  Uiso   1.00
C733   C     0.87259   0.07133   0.68615   0.00000  Uiso   1.00
H734   H     0.85098   0.05032   0.68928   0.00000  Uiso   1.00
H735   H     0.86771   0.08535   0.65796   0.00000  Uiso   1.00
H736   H     0.89899   0.05628   0.68508   0.00000  Uiso   1.00
C737   C     0.62163   0.17782   0.18538   0.00000  Uiso   1.00
H738   H     0.60029   0.19909   0.18869   0.00000  Uiso   1.00
H739   H     0.64810   0.19262   0.18346   0.00000  Uiso   1.00
H740   H     0.61604   0.16349   0.15753   0.00000  Uiso   1.00
C741   C     0.87750   0.32135   0.81386   0.00000  Uiso   1.00
H742   H     0.89903   0.30026   0.81067   0.00000  Uiso   1.00
H743   H     0.88252   0.33535   0.84201   0.00000  Uiso   1.00
H744   H     0.85106   0.30640   0.81504   0.00000  Uiso   1.00
C745   C     0.82297   0.11827   0.18494   0.00000  Uiso   1.00
H746   H     0.82670   0.09123   0.17085   0.00000  Uiso   1.00
H747   H     0.79459   0.12021   0.19638   0.00000  Uiso   1.00
H748   H     0.82552   0.13901   0.16172   0.00000  Uiso   1.00
C749   C     0.67606   0.38255   0.81564   0.00000  Uiso   1.00
H750   H     0.67168   0.40960   0.82941   0.00000  Uiso   1.00
H751   H     0.67341   0.36193   0.83898   0.00000  Uiso   1.00
H752   H     0.70464   0.38089   0.80472   0.00000  Uiso   1.00
C753   C     0.87790   0.32182   0.18573   0.00000  Uiso   1.00
H754   H     0.89942   0.30072   0.18891   0.00000  Uiso   1.00
H755   H     0.85149   0.30686   0.18423   0.00000  Uiso   1.00
H756   H     0.88308   0.33605   0.15772   0.00000  Uiso   1.00
C757   C     0.62272   0.17876   0.81371   0.00000  Uiso   1.00
H758   H     0.60110   0.19978   0.81058   0.00000  Uiso   1.00
H759   H     0.61788   0.16479   0.84192   0.00000  Uiso   1.00
H760   H     0.64911   0.19379   0.81471   0.00000  Uiso   1.00
C761   C     0.67902   0.12010   0.81339   0.00000  Uiso   1.00
H762   H     0.67619   0.09330   0.82826   0.00000  Uiso   1.00
H763   H     0.70697   0.12218   0.80084   0.00000  Uiso   1.00
H764   H     0.67693   0.14130   0.83617   0.00000  Uiso   1.00
C765   C     0.82163   0.38053   0.18603   0.00000  Uiso   1.00
H766   H     0.82468   0.40743   0.17143   0.00000  Uiso   1.00
H767   H     0.82391   0.35951   0.16308   0.00000  Uiso   1.00
H768   H     0.79355   0.37842   0.19823   0.00000  Uiso   1.00
C769   C     0.62067   0.32316   0.81538   0.00000  Uiso   1.00
H770   H     0.59965   0.30162   0.81190   0.00000  Uiso   1.00
H771   H     0.64724   0.30864   0.81816   0.00000  Uiso   1.00
H772   H     0.61437   0.33782   0.84286   0.00000  Uiso   1.00
C773   C     0.87871   0.17739   0.18501   0.00000  Uiso   1.00
H774   H     0.89993   0.19876   0.18838   0.00000  Uiso   1.00
H775   H     0.88454   0.16292   0.15731   0.00000  Uiso   1.00
H776   H     0.85218   0.19209   0.18277   0.00000  Uiso   1.00
C777   C     0.82130   0.38013   0.81364   0.00000  Uiso   1.00
H778   H     0.82424   0.40695   0.82840   0.00000  Uiso   1.00
H779   H     0.79329   0.37805   0.80125   0.00000  Uiso   1.00
H780   H     0.82349   0.35898   0.83650   0.00000  Uiso   1.00
C781   C     0.67755   0.11882   0.18542   0.00000  Uiso   1.00
H782   H     0.67397   0.09190   0.17104   0.00000  Uiso   1.00
H783   H     0.67517   0.13976   0.16238   0.00000  Uiso   1.00
H784   H     0.70582   0.12068   0.19718   0.00000  Uiso   1.00
C785   C     0.92889   0.12999   0.68645   0.00000  Uiso   1.00
H786   H     0.95687   0.12791   0.69895   0.00000  Uiso   1.00
H787   H     0.92677   0.10881   0.66365   0.00000  Uiso   1.00
H788   H     0.92600   0.15680   0.67162   0.00000  Uiso   1.00
C789   C     0.61877   0.32286   0.18507   0.00000  Uiso   1.00
H790   H     0.62116   0.29461   0.19667   0.00000  Uiso   1.00
H791   H     0.59159   0.32609   0.17102   0.00000  Uiso   1.00
H792   H     0.63944   0.32564   0.16178   0.00000  Uiso   1.00
C793   C     0.87760   0.17855   0.81390   0.00000  Uiso   1.00
H794   H     0.89914   0.19962   0.81073   0.00000  Uiso   1.00
H795   H     0.85118   0.19354   0.81515   0.00000  Uiso   1.00
H796   H     0.88265   0.16448   0.84203   0.00000  Uiso   1.00
C797   C     0.57291   0.36864   0.31489   0.00000  Uiso   1.00
H798   H     0.57651   0.34157   0.32892   0.00000  Uiso   1.00
H799   H     0.57558   0.38931   0.33814   0.00000  Uiso   1.00
H800   H     0.54456   0.37074   0.30339   0.00000  Uiso   1.00
C801   C     0.87233   0.42855   0.68602   0.00000  Uiso   1.00
H802   H     0.85079   0.44963   0.68920   0.00000  Uiso   1.00
H803   H     0.89874   0.44353   0.68471   0.00000  Uiso   1.00
H804   H     0.86725   0.41447   0.65792   0.00000  Uiso   1.00
C805   C     0.62827   0.07212   0.31456   0.00000  Uiso   1.00
H806   H     0.64969   0.05093   0.31133   0.00000  Uiso   1.00
H807   H     0.63370   0.08645   0.34244   0.00000  Uiso   1.00
H808   H     0.60183   0.05724   0.31633   0.00000  Uiso   1.00
C809   C     0.57312   0.36806   0.68472   0.00000  Uiso   1.00
H810   H     0.57663   0.34093   0.67076   0.00000  Uiso   1.00
H811   H     0.54476   0.37027   0.69613   0.00000  Uiso   1.00
H812   H     0.57583   0.38867   0.66139   0.00000  Uiso   1.00
C813   C     0.92723   0.13149   0.31483   0.00000  Uiso   1.00
H814   H     0.92360   0.15851   0.32894   0.00000  Uiso   1.00
H815   H     0.92470   0.11074   0.33805   0.00000  Uiso   1.00
H816   H     0.95555   0.12949   0.30326   0.00000  Uiso   1.00
C817   C     0.62746   0.07135   0.68616   0.00000  Uiso   1.00
H818   H     0.64908   0.05034   0.68928   0.00000  Uiso   1.00
H819   H     0.60108   0.05629   0.68503   0.00000  Uiso   1.00
H820   H     0.63236   0.08541   0.65801   0.00000  Uiso   1.00
C821   C     0.87224   0.42828   0.31413   0.00000  Uiso   1.00
H822   H     0.85072   0.44939   0.31096   0.00000  Uiso   1.00
H823   H     0.86712   0.41411   0.34218   0.00000  Uiso   1.00
H824   H     0.89866   0.44324   0.31553   0.00000  Uiso   1.00
C825   C     0.92846   0.36954   0.31387   0.00000  Uiso   1.00
H826   H     0.92544   0.34266   0.32851   0.00000  Uiso   1.00
H827   H     0.95652   0.37165   0.30162   0.00000  Uiso   1.00
H828   H     0.92621   0.39059   0.33680   0.00000  Uiso   1.00
C829   C     0.57112   0.12996   0.68654   0.00000  Uiso   1.00
H830   H     0.57417   0.15674   0.67176   0.00000  Uiso   1.00
H831   H     0.57321   0.10878   0.66373   0.00000  Uiso   1.00
H832   H     0.54313   0.12801   0.69898   0.00000  Uiso   1.00
C833   C     0.87119   0.07267   0.31503   0.00000  Uiso   1.00
H834   H     0.84986   0.05140   0.31175   0.00000  Uiso   1.00
H835   H     0.89764   0.05784   0.31727   0.00000  Uiso   1.00
H836   H     0.86545   0.08722   0.34270   0.00000  Uiso   1.00
C837   C     0.62919   0.42689   0.68453   0.00000  Uiso   1.00
H838   H     0.65047   0.44820   0.68782   0.00000  Uiso   1.00
H839   H     0.63510   0.41217   0.65700   0.00000  Uiso   1.00
H840   H     0.60274   0.44168   0.68201   0.00000  Uiso   1.00
C841   C     0.57213   0.13093   0.31436   0.00000  Uiso   1.00
H842   H     0.57533   0.15789   0.32877   0.00000  Uiso   1.00
H843   H     0.54396   0.12880   0.30240   0.00000  Uiso   1.00
H844   H     0.57456   0.11002   0.33742   0.00000  Uiso   1.00
C845   C     0.92856   0.36983   0.68630   0.00000  Uiso   1.00
H846   H     0.92540   0.34303   0.67163   0.00000  Uiso   1.00
H847   H     0.92639   0.39096   0.66343   0.00000  Uiso   1.00
H848   H     0.95662   0.37178   0.69859   0.00000  Uiso   1.00
C849   C     0.62865   0.42775   0.31458   0.00000  Uiso   1.00
H850   H     0.64980   0.44917   0.31116   0.00000  Uiso   1.00
H851   H     0.60209   0.44239   0.31669   0.00000  Uiso   1.00
H852   H     0.63450   0.41342   0.34239   0.00000  Uiso   1.00
C853   C     0.82146   0.11979   0.81367   0.00000  Uiso   1.00
H854   H     0.79338   0.12166   0.80140   0.00000  Uiso   1.00
H855   H     0.82474   0.09299   0.82838   0.00000  Uiso   1.00
H856   H     0.82358   0.14094   0.83652   0.00000  Uiso   1.00
C857   C     0.52947   0.31232   0.39719   0.00000  Uiso   1.00
H858   H     0.55283   0.30056   0.38085   0.00000  Uiso   1.00
H859   H     0.51091   0.32650   0.37650   0.00000  Uiso   1.00
H860   H     0.54223   0.33227   0.41723   0.00000  Uiso   1.00
C861   C     0.52843   0.18721   0.60292   0.00000  Uiso   1.00
H862   H     0.55189   0.19861   0.61942   0.00000  Uiso   1.00
H863   H     0.50960   0.17328   0.62349   0.00000  Uiso   1.00
H864   H     0.54099   0.16712   0.58290   0.00000  Uiso   1.00
C865   C     0.68708   0.47157   0.39696   0.00000  Uiso   1.00
H866   H     0.69835   0.44838   0.37998   0.00000  Uiso   1.00
H867   H     0.66714   0.45871   0.41695   0.00000  Uiso   1.00
H868   H     0.67293   0.49062   0.37677   0.00000  Uiso   1.00
C869   C     0.81318   0.47215   0.60311   0.00000  Uiso   1.00
H870   H     0.80210   0.44891   0.62018   0.00000  Uiso   1.00
H871   H     0.83321   0.45940   0.58314   0.00000  Uiso   1.00
H872   H     0.82718   0.49133   0.62324   0.00000  Uiso   1.00
C873   C     0.97057   0.18767   0.39723   0.00000  Uiso   1.00
H874   H     0.94720   0.19943   0.38087   0.00000  Uiso   1.00
H875   H     0.98913   0.17351   0.37655   0.00000  Uiso   1.00
H876   H     0.95782   0.16772   0.41728   0.00000  Uiso   1.00
C877   C     0.97155   0.31279   0.60282   0.00000  Uiso   1.00
H878   H     0.94809   0.30139   0.61932   0.00000  Uiso   1.00
H879   H     0.99039   0.32672   0.62340   0.00000  Uiso   1.00
H880   H     0.95899   0.33287   0.58278   0.00000  Uiso   1.00
C881   C     0.81293   0.02839   0.39698   0.00000  Uiso   1.00
H882   H     0.80166   0.05158   0.37998   0.00000  Uiso   1.00
H883   H     0.83288   0.04124   0.41698   0.00000  Uiso   1.00
H884   H     0.82707   0.00935   0.37681   0.00000  Uiso   1.00
C885   C     0.68683   0.02788   0.60303   0.00000  Uiso   1.00
H886   H     0.69791   0.05111   0.62009   0.00000  Uiso   1.00
H887   H     0.66680   0.04062   0.58303   0.00000  Uiso   1.00
H888   H     0.67283   0.00869   0.62316   0.00000  Uiso   1.00
C889   C     0.78668   0.05984   0.89679   0.00000  Uiso   1.00
H890   H     0.80769   0.04456   0.88020   0.00000  Uiso   1.00
H891   H     0.77048   0.07707   0.87650   0.00000  Uiso   1.00
H892   H     0.80336   0.07706   0.91633   0.00000  Uiso   1.00
C893   C     0.74670   0.43333   0.09885   0.00000  Uiso   1.00
H894   H     0.77451   0.43235   0.11194   0.00000  Uiso   1.00
H895   H     0.72631   0.42842   0.12223   0.00000  Uiso   1.00
H896   H     0.74563   0.41084   0.07727   0.00000  Uiso   1.00
C897   C     0.93805   0.21943   0.89709   0.00000  Uiso   1.00
H898   H     0.95004   0.19646   0.88033   0.00000  Uiso   1.00
H899   H     0.91844   0.20610   0.91710   0.00000  Uiso   1.00
H900   H     0.92338   0.23792   0.87673   0.00000  Uiso   1.00
C901   C     0.56407   0.22436   0.10323   0.00000  Uiso   1.00
H902   H     0.55372   0.20092   0.12051   0.00000  Uiso   1.00
H903   H     0.58443   0.21212   0.08328   0.00000  Uiso   1.00
H904   H     0.57751   0.24408   0.12320   0.00000  Uiso   1.00
C905   C     0.73578   0.43492   0.89929   0.00000  Uiso   1.00
H906   H     0.76217   0.43115   0.88371   0.00000  Uiso   1.00
H907   H     0.73412   0.41190   0.92018   0.00000  Uiso   1.00
H908   H     0.71325   0.43306   0.87777   0.00000  Uiso   1.00
C909   C     0.74898   0.07057   0.10723   0.00000  Uiso   1.00
H910   H     0.72680   0.06728   0.12901   0.00000  Uiso   1.00
H911   H     0.77488   0.07639   0.12292   0.00000  Uiso   1.00
H912   H     0.74037   0.09437   0.08958   0.00000  Uiso   1.00
C913   C     0.56194   0.28056   0.89712   0.00000  Uiso   1.00
H914   H     0.58155   0.29388   0.91714   0.00000  Uiso   1.00
H915   H     0.57661   0.26207   0.87678   0.00000  Uiso   1.00
H916   H     0.54994   0.30353   0.88034   0.00000  Uiso   1.00
C917   C     0.93594   0.27569   0.10316   0.00000  Uiso   1.00
H918   H     0.91559   0.28795   0.08317   0.00000  Uiso   1.00
H919   H     0.92249   0.25598   0.12313   0.00000  Uiso   1.00
H920   H     0.94629   0.29913   0.12043   0.00000  Uiso   1.00
Zn921  Zn    0.20660   0.50000   0.21735   0.00000  Uiso   1.00
Zn922  Zn    0.29341   0.50000   0.78265   0.00000  Uiso   1.00
Zn923  Zn    0.00000   0.70660   0.21735   0.00000  Uiso   1.00
Zn924  Zn    0.00000   0.79341   0.78265   0.00000  Uiso   1.00
Zn925  Zn    0.29341   0.50000   0.21735   0.00000  Uiso   1.00
Zn926  Zn    0.20660   0.50000   0.78265   0.00000  Uiso   1.00
Zn927  Zn    0.00000   0.79341   0.21735   0.00000  Uiso   1.00
Zn928  Zn    0.00000   0.70660   0.78265   0.00000  Uiso   1.00
Zn929  Zn    0.45660   0.75000   0.71735   0.00000  Uiso   1.00
Zn930  Zn    0.04341   0.75000   0.28265   0.00000  Uiso   1.00
Zn931  Zn    0.25000   0.95660   0.71735   0.00000  Uiso   1.00
Zn932  Zn    0.25000   0.54341   0.28265   0.00000  Uiso   1.00
Zn933  Zn    0.04341   0.75000   0.71735   0.00000  Uiso   1.00
Zn934  Zn    0.45660   0.75000   0.28265   0.00000  Uiso   1.00
Zn935  Zn    0.25000   0.54341   0.71735   0.00000  Uiso   1.00
Zn936  Zn    0.25000   0.95660   0.28265   0.00000  Uiso   1.00
C937   C     0.00921   0.78210   0.41846   0.00000  Uiso   1.00
C938   C     0.00868   0.71774   0.58159   0.00000  Uiso   1.00
C939   C     0.21773   0.99114   0.41839   0.00000  Uiso   1.00
C940   C     0.28236   0.99145   0.58165   0.00000  Uiso   1.00
C941   C     0.49083   0.71789   0.41848   0.00000  Uiso   1.00
C942   C     0.49131   0.78225   0.58155   0.00000  Uiso   1.00
C943   C     0.28228   0.50882   0.41840   0.00000  Uiso   1.00
C944   C     0.21765   0.50858   0.58161   0.00000  Uiso   1.00
C945   C     0.26172   0.53356   0.91846   0.00000  Uiso   1.00
C946   C     0.24060   0.97046   0.08029   0.00000  Uiso   1.00
C947   C     0.46805   0.74004   0.91845   0.00000  Uiso   1.00
C948   C     0.03263   0.74259   0.08171   0.00000  Uiso   1.00
C949   C     0.23523   0.97197   0.91926   0.00000  Uiso   1.00
C950   C     0.25275   0.53608   0.08298   0.00000  Uiso   1.00
C951   C     0.03195   0.75993   0.91847   0.00000  Uiso   1.00
C952   C     0.46737   0.75746   0.08168   0.00000  Uiso   1.00
C953   C     0.00002   0.75000   0.39823   0.00000  Uiso   1.00
C954   C     0.49999   0.74999   0.60179   0.00000  Uiso   1.00
C955   C     0.25001   0.99998   0.39818   0.00000  Uiso   1.00
C956   C     0.25001   0.50002   0.60183   0.00000  Uiso   1.00
C957   C     0.24954   0.50198   0.89872   0.00000  Uiso   1.00
C958   C     0.24922   0.50198   0.10168   0.00000  Uiso   1.00
C959   C     0.00000   0.74998   0.89823   0.00000  Uiso   1.00
C960   C     0.00000   0.75002   0.10187   0.00000  Uiso   1.00
O961   O     0.25000   0.50000   0.25000   0.00000  Uiso   1.00
O962   O     0.25000   0.50000   0.75000   0.00000  Uiso   1.00
O963   O     0.00000   0.75000   0.25000   0.00000  Uiso   1.00
O964   O     0.00000   0.75000   0.75000   0.00000  Uiso   1.00
O965   O     0.25000   0.96964   0.33755   0.00000  Uiso   1.00
O966   O     0.25000   0.53037   0.66245   0.00000  Uiso   1.00
O967   O     0.03037   0.75000   0.33755   0.00000  Uiso   1.00
O968   O     0.46964   0.75000   0.66245   0.00000  Uiso   1.00
O969   O     0.25000   0.53037   0.33755   0.00000  Uiso   1.00
O970   O     0.25000   0.96964   0.66245   0.00000  Uiso   1.00
O971   O     0.46964   0.75000   0.33755   0.00000  Uiso   1.00
O972   O     0.03037   0.75000   0.66245   0.00000  Uiso   1.00
O973   O     0.00000   0.71964   0.83755   0.00000  Uiso   1.00
O974   O     0.00000   0.78037   0.16245   0.00000  Uiso   1.00
O975   O     0.28037   0.50000   0.83755   0.00000  Uiso   1.00
O976   O     0.21964   0.50000   0.16245   0.00000  Uiso   1.00
O977   O     0.00000   0.78037   0.83755   0.00000  Uiso   1.00
O978   O     0.00000   0.71964   0.16245   0.00000  Uiso   1.00
O979   O     0.21964   0.50000   0.83755   0.00000  Uiso   1.00
O980   O     0.28037   0.50000   0.16245   0.00000  Uiso   1.00
O981   O     0.20725   0.57308   0.27302   0.00000  Uiso   1.00
O982   O     0.29276   0.92693   0.72698   0.00000  Uiso   1.00
O983   O     0.42693   0.70725   0.27302   0.00000  Uiso   1.00
O984   O     0.07308   0.79276   0.72698   0.00000  Uiso   1.00
O985   O     0.29276   0.92693   0.27302   0.00000  Uiso   1.00
O986   O     0.20725   0.57308   0.72698   0.00000  Uiso   1.00
O987   O     0.07308   0.79276   0.27302   0.00000  Uiso   1.00
O988   O     0.42693   0.70725   0.72698   0.00000  Uiso   1.00
O989   O     0.20725   0.92693   0.72698   0.00000  Uiso   1.00
O990   O     0.29276   0.57308   0.27302   0.00000  Uiso   1.00
O991   O     0.42693   0.79276   0.72698   0.00000  Uiso   1.00
O992   O     0.07308   0.70725   0.27302   0.00000  Uiso   1.00
O993   O     0.29276   0.57308   0.72698   0.00000  Uiso   1.00
O994   O     0.20725   0.92693   0.27302   0.00000  Uiso   1.00
O995   O     0.07308   0.70725   0.72698   0.00000  Uiso   1.00
O996   O     0.42693   0.79276   0.27302   0.00000  Uiso   1.00
O997   O     0.45725   0.82308   0.77302   0.00000  Uiso   1.00
O998   O     0.04276   0.67693   0.22698   0.00000  Uiso   1.00
O999   O     0.17693   0.95725   0.77302   0.00000  Uiso   1.00
O1000  O     0.32308   0.54276   0.22698   0.00000  Uiso   1.00
O1001  O     0.04276   0.67693   0.77302   0.00000  Uiso   1.00
O1002  O     0.45725   0.82308   0.22698   0.00000  Uiso   1.00
O1003  O     0.32308   0.54276   0.77302   0.00000  Uiso   1.00
O1004  O     0.17693   0.95725   0.22698   0.00000  Uiso   1.00
O1005  O     0.45725   0.67693   0.22698   0.00000  Uiso   1.00
O1006  O     0.04276   0.82308   0.77302   0.00000  Uiso   1.00
O1007  O     0.17693   0.54276   0.22698   0.00000  Uiso   1.00
O1008  O     0.32308   0.95725   0.77302   0.00000  Uiso   1.00
O1009  O     0.04276   0.82308   0.22698   0.00000  Uiso   1.00
O1010  O     0.45725   0.67693   0.77302   0.00000  Uiso   1.00
O1011  O     0.32308   0.95725   0.22698   0.00000  Uiso   1.00
O1012  O     0.17693   0.54276   0.77302   0.00000  Uiso   1.00
C1013  C     0.00086   0.68300   0.47965   0.00000  Uiso   1.00
C1014  C     0.00182   0.81698   0.52038   0.00000  Uiso   1.00
C1015  C     0.31711   0.99880   0.47965   0.00000  Uiso   1.00
C1016  C     0.18291   0.99828   0.52036   0.00000  Uiso   1.00
C1017  C     0.49918   0.81700   0.47959   0.00000  Uiso   1.00
C1018  C     0.49820   0.68301   0.52044   0.00000  Uiso   1.00
C1019  C     0.18290   0.50117   0.47960   0.00000  Uiso   1.00
C1020  C     0.31710   0.50171   0.52041   0.00000  Uiso   1.00
C1021  C     0.20496   0.95039   0.98010   0.00000  Uiso   1.00
C1022  C     0.26806   0.56767   0.02058   0.00000  Uiso   1.00
C1023  C     0.06710   0.75099   0.97971   0.00000  Uiso   1.00
C1024  C     0.43299   0.74611   0.02042   0.00000  Uiso   1.00
C1025  C     0.26239   0.56946   0.98016   0.00000  Uiso   1.00
C1026  C     0.20715   0.94903   0.02126   0.00000  Uiso   1.00
C1027  C     0.43290   0.74900   0.97965   0.00000  Uiso   1.00
C1028  C     0.06701   0.75392   0.02046   0.00000  Uiso   1.00
C1029  C     0.25000   0.99999   0.35579   0.00000  Uiso   1.00
C1030  C     0.25000   0.50001   0.64421   0.00000  Uiso   1.00
C1031  C     0.00001   0.75000   0.35582   0.00000  Uiso   1.00
C1032  C     0.49999   0.75000   0.64419   0.00000  Uiso   1.00
C1033  C    -0.00000   0.74999   0.85581   0.00000  Uiso   1.00
C1034  C    -0.00000   0.75001   0.14423   0.00000  Uiso   1.00
C1035  C     0.25002   0.50063   0.85598   0.00000  Uiso   1.00
C1036  C     0.24994   0.99994   0.14413   0.00000  Uiso   1.00
C1037  C     0.18001   0.56995   0.24995   0.00000  Uiso   1.00
C1038  C     0.31998   0.93005   0.75005   0.00000  Uiso   1.00
C1039  C     0.43001   0.68004   0.25004   0.00000  Uiso   1.00
C1040  C     0.06996   0.81997   0.74992   0.00000  Uiso   1.00
C1041  C     0.31998   0.93004   0.24996   0.00000  Uiso   1.00
C1042  C     0.18003   0.56996   0.75004   0.00000  Uiso   1.00
C1043  C     0.07000   0.81997   0.25000   0.00000  Uiso   1.00
C1044  C     0.43003   0.68003   0.74994   0.00000  Uiso   1.00
C1045  C     0.17999   0.93006   0.75002   0.00000  Uiso   1.00
C1046  C     0.31998   0.56996   0.24994   0.00000  Uiso   1.00
C1047  C     0.43002   0.81996   0.74995   0.00000  Uiso   1.00
C1048  C     0.06998   0.68005   0.25005   0.00000  Uiso   1.00
C1049  C     0.32000   0.56996   0.75003   0.00000  Uiso   1.00
C1050  C     0.18004   0.93003   0.24996   0.00000  Uiso   1.00
C1051  C     0.06998   0.68003   0.74996   0.00000  Uiso   1.00
C1052  C     0.43002   0.81995   0.25002   0.00000  Uiso   1.00
C1053  C     0.15016   0.87717   0.21837   0.00000  Uiso   1.00
C1054  C     0.37364   0.59934   0.71884   0.00000  Uiso   1.00
C1055  C     0.12312   0.65022   0.21847   0.00000  Uiso   1.00
C1056  C     0.37642   0.84936   0.78116   0.00000  Uiso   1.00
C1057  C     0.35023   0.62229   0.21821   0.00000  Uiso   1.00
C1058  C     0.14936   0.87804   0.78197   0.00000  Uiso   1.00
C1059  C     0.37661   0.84958   0.21865   0.00000  Uiso   1.00
C1060  C     0.12370   0.65071   0.78108   0.00000  Uiso   1.00
C1061  C     0.15067   0.62312   0.78104   0.00000  Uiso   1.00
C1062  C     0.34965   0.87718   0.21868   0.00000  Uiso   1.00
C1063  C     0.12258   0.85030   0.78189   0.00000  Uiso   1.00
C1064  C     0.37707   0.64998   0.21826   0.00000  Uiso   1.00
C1065  C     0.34948   0.87699   0.78116   0.00000  Uiso   1.00
C1066  C     0.15000   0.62255   0.21844   0.00000  Uiso   1.00
C1067  C     0.40061   0.62693   0.71887   0.00000  Uiso   1.00
C1068  C     0.12256   0.85022   0.21822   0.00000  Uiso   1.00
C1069  C     0.37647   0.65062   0.78114   0.00000  Uiso   1.00
C1070  C     0.10021   0.87253   0.28169   0.00000  Uiso   1.00
C1071  C     0.37352   0.90063   0.71881   0.00000  Uiso   1.00
C1072  C     0.12681   0.59975   0.28150   0.00000  Uiso   1.00
C1073  C     0.10037   0.87211   0.71802   0.00000  Uiso   1.00
C1074  C     0.39983   0.62762   0.28169   0.00000  Uiso   1.00
C1075  C     0.12637   0.59931   0.71889   0.00000  Uiso   1.00
C1076  C     0.37345   0.90046   0.28128   0.00000  Uiso   1.00
C1077  C     0.40040   0.87285   0.28125   0.00000  Uiso   1.00
C1078  C     0.09938   0.62687   0.71895   0.00000  Uiso   1.00
C1079  C     0.37291   0.60000   0.28170   0.00000  Uiso   1.00
C1080  C     0.12728   0.89975   0.71802   0.00000  Uiso   1.00
C1081  C     0.09989   0.62739   0.28150   0.00000  Uiso   1.00
C1082  C     0.40047   0.87304   0.71884   0.00000  Uiso   1.00
C1083  C     0.12711   0.90016   0.28149   0.00000  Uiso   1.00
C1084  C     0.34952   0.62303   0.78111   0.00000  Uiso   1.00
C1085  C     0.49775   0.71643   0.45897   0.00000  Uiso   1.00
C1086  C     0.49822   0.78360   0.54106   0.00000  Uiso   1.00
C1087  C     0.28365   0.50203   0.45893   0.00000  Uiso   1.00
C1088  C     0.21634   0.50178   0.54109   0.00000  Uiso   1.00
C1089  C     0.00229   0.78356   0.45894   0.00000  Uiso   1.00
C1090  C     0.00178   0.71639   0.54110   0.00000  Uiso   1.00
C1091  C     0.21636   0.99794   0.45891   0.00000  Uiso   1.00
C1092  C     0.28367   0.99823   0.54111   0.00000  Uiso   1.00
C1093  C     0.22752   0.97550   0.95945   0.00000  Uiso   1.00
C1094  C     0.25502   0.53691   0.04171   0.00000  Uiso   1.00
C1095  C     0.03355   0.75315   0.95899   0.00000  Uiso   1.00
C1096  C     0.46629   0.75067   0.04115   0.00000  Uiso   1.00
C1097  C     0.25512   0.53690   0.95907   0.00000  Uiso   1.00
C1098  C     0.23012   0.97439   0.04090   0.00000  Uiso   1.00
C1099  C     0.46645   0.74683   0.95897   0.00000  Uiso   1.00
C1100  C     0.03371   0.74936   0.04117   0.00000  Uiso   1.00
C1101  C     0.09816   0.84810   0.24998   0.00000  Uiso   1.00
C1102  C     0.40177   0.65211   0.75003   0.00000  Uiso   1.00
C1103  C     0.15169   0.59785   0.25003   0.00000  Uiso   1.00
C1104  C     0.34826   0.90214   0.74996   0.00000  Uiso   1.00
C1105  C     0.40170   0.65213   0.24995   0.00000  Uiso   1.00
C1106  C     0.09825   0.84787   0.74998   0.00000  Uiso   1.00
C1107  C     0.34827   0.90212   0.25004   0.00000  Uiso   1.00
C1108  C     0.15176   0.59789   0.74993   0.00000  Uiso   1.00
C1109  C     0.09826   0.65209   0.75007   0.00000  Uiso   1.00
C1110  C     0.40174   0.84789   0.24992   0.00000  Uiso   1.00
C1111  C     0.15163   0.90218   0.74993   0.00000  Uiso   1.00
C1112  C     0.34829   0.59785   0.25002   0.00000  Uiso   1.00
C1113  C     0.40171   0.84788   0.75004   0.00000  Uiso   1.00
C1114  C     0.09828   0.65214   0.24996   0.00000  Uiso   1.00
C1115  C     0.34830   0.59788   0.74992   0.00000  Uiso   1.00
C1116  C     0.15196   0.90200   0.24993   0.00000  Uiso   1.00
C1117  C     0.00002   0.75000   0.47953   0.00000  Uiso   1.00
C1118  C     0.00001   0.75000   0.52051   0.00000  Uiso   1.00
C1119  C     0.25000   0.99999   0.47950   0.00000  Uiso   1.00
C1120  C     0.25001   0.50000   0.52052   0.00000  Uiso   1.00
C1121  C     0.24136   0.50628   0.97970   0.00000  Uiso   1.00
C1122  C     0.24171   0.50615   0.02078   0.00000  Uiso   1.00
C1123  C    -0.00000   0.74999   0.97956   0.00000  Uiso   1.00
C1124  C    -0.00000   0.75001   0.02058   0.00000  Uiso   1.00
C1125  C     0.01280   0.64782   0.45997   0.00000  Uiso   1.00
H1126  H     0.02495   0.65280   0.43091   0.00000  Uiso   1.00
H1127  H     0.03485   0.63461   0.47724   0.00000  Uiso   1.00
H1128  H     0.48954   0.62842   0.45760   0.00000  Uiso   1.00
C1129  C     0.01424   0.85199   0.54006   0.00000  Uiso   1.00
H1130  H     0.02637   0.84684   0.56911   0.00000  Uiso   1.00
H1131  H     0.03644   0.86491   0.52279   0.00000  Uiso   1.00
H1132  H     0.49124   0.87169   0.54245   0.00000  Uiso   1.00
C1133  C     0.35227   0.98644   0.46012   0.00000  Uiso   1.00
H1134  H     0.34718   0.97398   0.43124   0.00000  Uiso   1.00
H1135  H     0.37185   0.50950   0.45745   0.00000  Uiso   1.00
H1136  H     0.36537   0.96455   0.47768   0.00000  Uiso   1.00
C1137  C     0.14785   0.98567   0.53991   0.00000  Uiso   1.00
H1138  H     0.13490   0.96369   0.52237   0.00000  Uiso   1.00
H1139  H     0.15304   0.97323   0.56879   0.00000  Uiso   1.00
H1140  H     0.12810   0.50858   0.54258   0.00000  Uiso   1.00
C1141  C     0.48726   0.85218   0.45986   0.00000  Uiso   1.00
H1142  H     0.47510   0.84721   0.43079   0.00000  Uiso   1.00
H1143  H     0.46521   0.86540   0.47709   0.00000  Uiso   1.00
H1144  H     0.01052   0.87156   0.45749   0.00000  Uiso   1.00
C1145  C     0.48577   0.64800   0.54014   0.00000  Uiso   1.00
H1146  H     0.47364   0.65315   0.56917   0.00000  Uiso   1.00
H1147  H     0.46358   0.63508   0.52285   0.00000  Uiso   1.00
H1148  H     0.00877   0.62829   0.54257   0.00000  Uiso   1.00
C1149  C     0.14774   0.51352   0.46003   0.00000  Uiso   1.00
H1150  H     0.15282   0.52598   0.43113   0.00000  Uiso   1.00
H1151  H     0.12816   0.99046   0.45736   0.00000  Uiso   1.00
H1152  H     0.13462   0.53541   0.47754   0.00000  Uiso   1.00
C1153  C     0.35216   0.51434   0.53996   0.00000  Uiso   1.00
H1154  H     0.34698   0.52678   0.56883   0.00000  Uiso   1.00
H1155  H     0.37192   0.99142   0.54267   0.00000  Uiso   1.00
H1156  H     0.36510   0.53631   0.52240   0.00000  Uiso   1.00
C1157  C     0.17502   0.92900   0.95940   0.00000  Uiso   1.00
H1158  H     0.18036   0.89919   0.96163   0.00000  Uiso   1.00
H1159  H     0.14789   0.93530   0.97213   0.00000  Uiso   1.00
H1160  H     0.17170   0.93683   0.92854   0.00000  Uiso   1.00
C1161  C     0.29288   0.59632   0.03849   0.00000  Uiso   1.00
H1162  H     0.30665   0.58615   0.06510   0.00000  Uiso   1.00
H1163  H     0.31552   0.60302   0.01813   0.00000  Uiso   1.00
H1164  H     0.27744   0.62181   0.04460   0.00000  Uiso   1.00
C1165  C     0.10263   0.73974   0.96017   0.00000  Uiso   1.00
H1166  H     0.11637   0.71821   0.97769   0.00000  Uiso   1.00
H1167  H     0.09794   0.72721   0.93125   0.00000  Uiso   1.00
H1168  H     0.12151   0.76337   0.95757   0.00000  Uiso   1.00
C1169  C     0.39834   0.73240   0.03996   0.00000  Uiso   1.00
H1170  H     0.38605   0.71008   0.02238   0.00000  Uiso   1.00
H1171  H     0.40393   0.72005   0.06880   0.00000  Uiso   1.00
H1172  H     0.37791   0.75471   0.04270   0.00000  Uiso   1.00
C1173  C     0.25792   0.60706   0.96214   0.00000  Uiso   1.00
H1174  H     0.24362   0.60592   0.93370   0.00000  Uiso   1.00
H1175  H     0.24038   0.62424   0.98118   0.00000  Uiso   1.00
H1176  H     0.28479   0.62089   0.95888   0.00000  Uiso   1.00
C1177  C     0.18141   0.92399   0.04367   0.00000  Uiso   1.00
H1178  H     0.18064   0.92985   0.07519   0.00000  Uiso   1.00
H1179  H     0.15264   0.92814   0.03454   0.00000  Uiso   1.00
H1180  H     0.18915   0.89500   0.03889   0.00000  Uiso   1.00
C1181  C     0.39737   0.76025   0.96007   0.00000  Uiso   1.00
H1182  H     0.40206   0.77278   0.93114   0.00000  Uiso   1.00
H1183  H     0.37850   0.73660   0.95748   0.00000  Uiso   1.00
H1184  H     0.38362   0.78177   0.97755   0.00000  Uiso   1.00
C1185  C     0.10165   0.76765   0.04000   0.00000  Uiso   1.00
H1186  H     0.09607   0.78000   0.06883   0.00000  Uiso   1.00
H1187  H     0.12210   0.74536   0.04278   0.00000  Uiso   1.00
H1188  H     0.11392   0.78998   0.02240   0.00000  Uiso   1.00
C1189  C     0.17778   0.87876   0.18527   0.00000  Uiso   1.00
H1190  H     0.19918   0.89993   0.18870   0.00000  Uiso   1.00
H1191  H     0.19252   0.85228   0.18319   0.00000  Uiso   1.00
H1192  H     0.16342   0.88455   0.15746   0.00000  Uiso   1.00
C1193  C     0.37259   0.57133   0.68615   0.00000  Uiso   1.00
H1194  H     0.35098   0.55032   0.68928   0.00000  Uiso   1.00
H1195  H     0.36771   0.58535   0.65796   0.00000  Uiso   1.00
H1196  H     0.39899   0.55628   0.68508   0.00000  Uiso   1.00
C1197  C     0.12163   0.67782   0.18538   0.00000  Uiso   1.00
H1198  H     0.10029   0.69909   0.18869   0.00000  Uiso   1.00
H1199  H     0.14810   0.69262   0.18346   0.00000  Uiso   1.00
H1200  H     0.11604   0.66349   0.15753   0.00000  Uiso   1.00
C1201  C     0.37750   0.82135   0.81386   0.00000  Uiso   1.00
H1202  H     0.39903   0.80026   0.81067   0.00000  Uiso   1.00
H1203  H     0.38252   0.83535   0.84201   0.00000  Uiso   1.00
H1204  H     0.35106   0.80640   0.81504   0.00000  Uiso   1.00
C1205  C     0.32297   0.61827   0.18494   0.00000  Uiso   1.00
H1206  H     0.32670   0.59123   0.17085   0.00000  Uiso   1.00
H1207  H     0.29459   0.62021   0.19638   0.00000  Uiso   1.00
H1208  H     0.32552   0.63901   0.16172   0.00000  Uiso   1.00
C1209  C     0.17606   0.88255   0.81564   0.00000  Uiso   1.00
H1210  H     0.17168   0.90960   0.82941   0.00000  Uiso   1.00
H1211  H     0.17341   0.86193   0.83898   0.00000  Uiso   1.00
H1212  H     0.20464   0.88089   0.80472   0.00000  Uiso   1.00
C1213  C     0.37790   0.82182   0.18573   0.00000  Uiso   1.00
H1214  H     0.39942   0.80072   0.18891   0.00000  Uiso   1.00
H1215  H     0.35149   0.80686   0.18423   0.00000  Uiso   1.00
H1216  H     0.38308   0.83605   0.15772   0.00000  Uiso   1.00
C1217  C     0.12272   0.67876   0.81371   0.00000  Uiso   1.00
H1218  H     0.10110   0.69978   0.81058   0.00000  Uiso   1.00
H1219  H     0.11788   0.66479   0.84192   0.00000  Uiso   1.00
H1220  H     0.14911   0.69379   0.81471   0.00000  Uiso   1.00
C1221  C     0.17902   0.62010   0.81339   0.00000  Uiso   1.00
H1222  H     0.17619   0.59330   0.82826   0.00000  Uiso   1.00
H1223  H     0.20697   0.62218   0.80084   0.00000  Uiso   1.00
H1224  H     0.17693   0.64130   0.83617   0.00000  Uiso   1.00
C1225  C     0.32163   0.88053   0.18603   0.00000  Uiso   1.00
H1226  H     0.32468   0.90743   0.17143   0.00000  Uiso   1.00
H1227  H     0.32391   0.85951   0.16308   0.00000  Uiso   1.00
H1228  H     0.29355   0.87842   0.19823   0.00000  Uiso   1.00
C1229  C     0.12067   0.82316   0.81538   0.00000  Uiso   1.00
H1230  H     0.09965   0.80162   0.81190   0.00000  Uiso   1.00
H1231  H     0.14724   0.80864   0.81816   0.00000  Uiso   1.00
H1232  H     0.11437   0.83782   0.84286   0.00000  Uiso   1.00
C1233  C     0.37871   0.67739   0.18501   0.00000  Uiso   1.00
H1234  H     0.39993   0.69876   0.18838   0.00000  Uiso   1.00
H1235  H     0.38454   0.66292   0.15731   0.00000  Uiso   1.00
H1236  H     0.35218   0.69209   0.18277   0.00000  Uiso   1.00
C1237  C     0.32130   0.88013   0.81364   0.00000  Uiso   1.00
H1238  H     0.32424   0.90695   0.82840   0.00000  Uiso   1.00
H1239  H     0.29329   0.87805   0.80125   0.00000  Uiso   1.00
H1240  H     0.32349   0.85898   0.83650   0.00000  Uiso   1.00
C1241  C     0.17755   0.61882   0.18542   0.00000  Uiso   1.00
H1242  H     0.17397   0.59190   0.17104   0.00000  Uiso   1.00
H1243  H     0.17517   0.63976   0.16238   0.00000  Uiso   1.00
H1244  H     0.20582   0.62068   0.19718   0.00000  Uiso   1.00
C1245  C     0.42889   0.62999   0.68645   0.00000  Uiso   1.00
H1246  H     0.45687   0.62791   0.69895   0.00000  Uiso   1.00
H1247  H     0.42677   0.60881   0.66365   0.00000  Uiso   1.00
H1248  H     0.42600   0.65680   0.67162   0.00000  Uiso   1.00
C1249  C     0.11877   0.82286   0.18507   0.00000  Uiso   1.00
H1250  H     0.12116   0.79461   0.19667   0.00000  Uiso   1.00
H1251  H     0.09159   0.82609   0.17102   0.00000  Uiso   1.00
H1252  H     0.13944   0.82564   0.16178   0.00000  Uiso   1.00
C1253  C     0.37760   0.67855   0.81390   0.00000  Uiso   1.00
H1254  H     0.39914   0.69962   0.81073   0.00000  Uiso   1.00
H1255  H     0.35118   0.69354   0.81515   0.00000  Uiso   1.00
H1256  H     0.38265   0.66448   0.84203   0.00000  Uiso   1.00
C1257  C     0.07291   0.86864   0.31489   0.00000  Uiso   1.00
H1258  H     0.07651   0.84157   0.32892   0.00000  Uiso   1.00
H1259  H     0.07558   0.88931   0.33814   0.00000  Uiso   1.00
H1260  H     0.04456   0.87074   0.30339   0.00000  Uiso   1.00
C1261  C     0.37233   0.92855   0.68602   0.00000  Uiso   1.00
H1262  H     0.35079   0.94963   0.68920   0.00000  Uiso   1.00
H1263  H     0.39874   0.94353   0.68471   0.00000  Uiso   1.00
H1264  H     0.36725   0.91447   0.65792   0.00000  Uiso   1.00
C1265  C     0.12827   0.57212   0.31456   0.00000  Uiso   1.00
H1266  H     0.14969   0.55093   0.31133   0.00000  Uiso   1.00
H1267  H     0.13370   0.58645   0.34244   0.00000  Uiso   1.00
H1268  H     0.10183   0.55724   0.31633   0.00000  Uiso   1.00
C1269  C     0.07312   0.86806   0.68472   0.00000  Uiso   1.00
H1270  H     0.07663   0.84093   0.67076   0.00000  Uiso   1.00
H1271  H     0.04476   0.87027   0.69613   0.00000  Uiso   1.00
H1272  H     0.07583   0.88867   0.66139   0.00000  Uiso   1.00
C1273  C     0.42723   0.63149   0.31483   0.00000  Uiso   1.00
H1274  H     0.42360   0.65851   0.32894   0.00000  Uiso   1.00
H1275  H     0.42470   0.61074   0.33805   0.00000  Uiso   1.00
H1276  H     0.45555   0.62949   0.30326   0.00000  Uiso   1.00
C1277  C     0.12746   0.57135   0.68616   0.00000  Uiso   1.00
H1278  H     0.14908   0.55034   0.68928   0.00000  Uiso   1.00
H1279  H     0.10108   0.55629   0.68503   0.00000  Uiso   1.00
H1280  H     0.13236   0.58541   0.65801   0.00000  Uiso   1.00
C1281  C     0.37224   0.92828   0.31413   0.00000  Uiso   1.00
H1282  H     0.35072   0.94939   0.31096   0.00000  Uiso   1.00
H1283  H     0.36712   0.91411   0.34218   0.00000  Uiso   1.00
H1284  H     0.39866   0.94324   0.31553   0.00000  Uiso   1.00
C1285  C     0.42846   0.86954   0.31387   0.00000  Uiso   1.00
H1286  H     0.42544   0.84266   0.32851   0.00000  Uiso   1.00
H1287  H     0.45652   0.87165   0.30162   0.00000  Uiso   1.00
H1288  H     0.42621   0.89059   0.33680   0.00000  Uiso   1.00
C1289  C     0.07112   0.62996   0.68654   0.00000  Uiso   1.00
H1290  H     0.07417   0.65674   0.67176   0.00000  Uiso   1.00
H1291  H     0.07321   0.60878   0.66373   0.00000  Uiso   1.00
H1292  H     0.04313   0.62801   0.69898   0.00000  Uiso   1.00
C1293  C     0.37119   0.57267   0.31503   0.00000  Uiso   1.00
H1294  H     0.34986   0.55140   0.31175   0.00000  Uiso   1.00
H1295  H     0.39764   0.55784   0.31727   0.00000  Uiso   1.00
H1296  H     0.36545   0.58722   0.34270   0.00000  Uiso   1.00
C1297  C     0.12919   0.92689   0.68453   0.00000  Uiso   1.00
H1298  H     0.15047   0.94820   0.68782   0.00000  Uiso   1.00
H1299  H     0.13510   0.91217   0.65700   0.00000  Uiso   1.00
H1300  H     0.10274   0.94168   0.68201   0.00000  Uiso   1.00
C1301  C     0.07213   0.63093   0.31436   0.00000  Uiso   1.00
H1302  H     0.07533   0.65789   0.32877   0.00000  Uiso   1.00
H1303  H     0.04396   0.62880   0.30240   0.00000  Uiso   1.00
H1304  H     0.07456   0.61002   0.33742   0.00000  Uiso   1.00
C1305  C     0.42856   0.86983   0.68630   0.00000  Uiso   1.00
H1306  H     0.42540   0.84303   0.67163   0.00000  Uiso   1.00
H1307  H     0.42639   0.89096   0.66343   0.00000  Uiso   1.00
H1308  H     0.45662   0.87178   0.69859   0.00000  Uiso   1.00
C1309  C     0.12865   0.92775   0.31458   0.00000  Uiso   1.00
H1310  H     0.14980   0.94917   0.31116   0.00000  Uiso   1.00
H1311  H     0.10209   0.94239   0.31669   0.00000  Uiso   1.00
H1312  H     0.13450   0.91342   0.34239   0.00000  Uiso   1.00
C1313  C     0.32146   0.61979   0.81367   0.00000  Uiso   1.00
H1314  H     0.29338   0.62166   0.80140   0.00000  Uiso   1.00
H1315  H     0.32474   0.59299   0.82838   0.00000  Uiso   1.00
H1316  H     0.32358   0.64094   0.83652   0.00000  Uiso   1.00
C1317  C     0.02947   0.81232   0.39719   0.00000  Uiso   1.00
H1318  H     0.05283   0.80056   0.38085   0.00000  Uiso   1.00
H1319  H     0.01091   0.82650   0.37650   0.00000  Uiso   1.00
H1320  H     0.04223   0.83227   0.41723   0.00000  Uiso   1.00
C1321  C     0.02843   0.68721   0.60292   0.00000  Uiso   1.00
H1322  H     0.05189   0.69861   0.61942   0.00000  Uiso   1.00
H1323  H     0.00960   0.67328   0.62349   0.00000  Uiso   1.00
H1324  H     0.04099   0.66712   0.58290   0.00000  Uiso   1.00
C1325  C     0.18708   0.97157   0.39696   0.00000  Uiso   1.00
H1326  H     0.19835   0.94838   0.37998   0.00000  Uiso   1.00
H1327  H     0.16714   0.95871   0.41695   0.00000  Uiso   1.00
H1328  H     0.17293   0.99062   0.37677   0.00000  Uiso   1.00
C1329  C     0.31318   0.97215   0.60311   0.00000  Uiso   1.00
H1330  H     0.30210   0.94891   0.62018   0.00000  Uiso   1.00
H1331  H     0.33321   0.95940   0.58314   0.00000  Uiso   1.00
H1332  H     0.32718   0.99133   0.62324   0.00000  Uiso   1.00
C1333  C     0.47057   0.68767   0.39723   0.00000  Uiso   1.00
H1334  H     0.44720   0.69943   0.38087   0.00000  Uiso   1.00
H1335  H     0.48913   0.67351   0.37655   0.00000  Uiso   1.00
H1336  H     0.45782   0.66772   0.41728   0.00000  Uiso   1.00
C1337  C     0.47155   0.81279   0.60282   0.00000  Uiso   1.00
H1338  H     0.44809   0.80139   0.61932   0.00000  Uiso   1.00
H1339  H     0.49039   0.82672   0.62340   0.00000  Uiso   1.00
H1340  H     0.45899   0.83287   0.58278   0.00000  Uiso   1.00
C1341  C     0.31293   0.52839   0.39698   0.00000  Uiso   1.00
H1342  H     0.30166   0.55158   0.37998   0.00000  Uiso   1.00
H1343  H     0.33288   0.54124   0.41698   0.00000  Uiso   1.00
H1344  H     0.32707   0.50935   0.37681   0.00000  Uiso   1.00
C1345  C     0.18683   0.52788   0.60303   0.00000  Uiso   1.00
H1346  H     0.19791   0.55111   0.62009   0.00000  Uiso   1.00
H1347  H     0.16680   0.54062   0.58303   0.00000  Uiso   1.00
H1348  H     0.17283   0.50869   0.62316   0.00000  Uiso   1.00
C1349  C     0.28668   0.55984   0.89679   0.00000  Uiso   1.00
H1350  H     0.30769   0.54456   0.88020   0.00000  Uiso   1.00
H1351  H     0.27048   0.57707   0.87650   0.00000  Uiso   1.00
H1352  H     0.30336   0.57706   0.91633   0.00000  Uiso   1.00
C1353  C     0.24670   0.93333   0.09885   0.00000  Uiso   1.00
H1354  H     0.27451   0.93235   0.11194   0.00000  Uiso   1.00
H1355  H     0.22631   0.92842   0.12223   0.00000  Uiso   1.00
H1356  H     0.24563   0.91084   0.07727   0.00000  Uiso   1.00
C1357  C     0.43805   0.71943   0.89709   0.00000  Uiso   1.00
H1358  H     0.45004   0.69646   0.88033   0.00000  Uiso   1.00
H1359  H     0.41844   0.70610   0.91710   0.00000  Uiso   1.00
H1360  H     0.42338   0.73792   0.87673   0.00000  Uiso   1.00
C1361  C     0.06407   0.72436   0.10323   0.00000  Uiso   1.00
H1362  H     0.05372   0.70092   0.12051   0.00000  Uiso   1.00
H1363  H     0.08443   0.71212   0.08328   0.00000  Uiso   1.00
H1364  H     0.07751   0.74408   0.12320   0.00000  Uiso   1.00
C1365  C     0.23578   0.93492   0.89929   0.00000  Uiso   1.00
H1366  H     0.26217   0.93115   0.88371   0.00000  Uiso   1.00
H1367  H     0.23412   0.91190   0.92018   0.00000  Uiso   1.00
H1368  H     0.21325   0.93306   0.87777   0.00000  Uiso   1.00
C1369  C     0.24898   0.57057   0.10723   0.00000  Uiso   1.00
H1370  H     0.22680   0.56728   0.12901   0.00000  Uiso   1.00
H1371  H     0.27488   0.57639   0.12292   0.00000  Uiso   1.00
H1372  H     0.24037   0.59437   0.08958   0.00000  Uiso   1.00
C1373  C     0.06194   0.78056   0.89712   0.00000  Uiso   1.00
H1374  H     0.08155   0.79388   0.91714   0.00000  Uiso   1.00
H1375  H     0.07661   0.76207   0.87678   0.00000  Uiso   1.00
H1376  H     0.04994   0.80353   0.88034   0.00000  Uiso   1.00
C1377  C     0.43594   0.77569   0.10316   0.00000  Uiso   1.00
H1378  H     0.41559   0.78795   0.08317   0.00000  Uiso   1.00
H1379  H     0.42249   0.75598   0.12313   0.00000  Uiso   1.00
H1380  H     0.44629   0.79913   0.12043   0.00000  Uiso   1.00
Zn1381 Zn    0.70660   0.50000   0.21735   0.00000  Uiso   1.00
Zn1382 Zn    0.79341   0.50000   0.78265   0.00000  Uiso   1.00
Zn1383 Zn    0.50000   0.70660   0.21735   0.00000  Uiso   1.00
Zn1384 Zn    0.50000   0.79341   0.78265   0.00000  Uiso   1.00
Zn1385 Zn    0.79341   0.50000   0.21735   0.00000  Uiso   1.00
Zn1386 Zn    0.70660   0.50000   0.78265   0.00000  Uiso   1.00
Zn1387 Zn    0.50000   0.79341   0.21735   0.00000  Uiso   1.00
Zn1388 Zn    0.50000   0.70660   0.78265   0.00000  Uiso   1.00
Zn1389 Zn    0.95660   0.75000   0.71735   0.00000  Uiso   1.00
Zn1390 Zn    0.54341   0.75000   0.28265   0.00000  Uiso   1.00
Zn1391 Zn    0.75000   0.95660   0.71735   0.00000  Uiso   1.00
Zn1392 Zn    0.75000   0.54341   0.28265   0.00000  Uiso   1.00
Zn1393 Zn    0.54341   0.75000   0.71735   0.00000  Uiso   1.00
Zn1394 Zn    0.95660   0.75000   0.28265   0.00000  Uiso   1.00
Zn1395 Zn    0.75000   0.54341   0.71735   0.00000  Uiso   1.00
Zn1396 Zn    0.75000   0.95660   0.28265   0.00000  Uiso   1.00
C1397  C     0.50921   0.78210   0.41846   0.00000  Uiso   1.00
C1398  C     0.50868   0.71774   0.58159   0.00000  Uiso   1.00
C1399  C     0.71773   0.99114   0.41839   0.00000  Uiso   1.00
C1400  C     0.78236   0.99145   0.58165   0.00000  Uiso   1.00
C1401  C     0.99083   0.71789   0.41848   0.00000  Uiso   1.00
C1402  C     0.99131   0.78225   0.58155   0.00000  Uiso   1.00
C1403  C     0.78228   0.50882   0.41840   0.00000  Uiso   1.00
C1404  C     0.71765   0.50858   0.58161   0.00000  Uiso   1.00
C1405  C     0.76172   0.53356   0.91846   0.00000  Uiso   1.00
C1406  C     0.74060   0.97046   0.08029   0.00000  Uiso   1.00
C1407  C     0.96805   0.74004   0.91845   0.00000  Uiso   1.00
C1408  C     0.53263   0.74259   0.08171   0.00000  Uiso   1.00
C1409  C     0.73523   0.97197   0.91926   0.00000  Uiso   1.00
C1410  C     0.75275   0.53608   0.08298   0.00000  Uiso   1.00
C1411  C     0.53195   0.75993   0.91847   0.00000  Uiso   1.00
C1412  C     0.96737   0.75746   0.08168   0.00000  Uiso   1.00
C1413  C     0.50002   0.75000   0.39823   0.00000  Uiso   1.00
C1414  C     0.99999   0.74999   0.60179   0.00000  Uiso   1.00
C1415  C     0.75001   0.99998   0.39818   0.00000  Uiso   1.00
C1416  C     0.75001   0.50002   0.60183   0.00000  Uiso   1.00
C1417  C     0.74954   0.50198   0.89872   0.00000  Uiso   1.00
C1418  C     0.74922   0.50198   0.10168   0.00000  Uiso   1.00
C1419  C     0.50000   0.74998   0.89823   0.00000  Uiso   1.00
C1420  C     0.50000   0.75002   0.10187   0.00000  Uiso   1.00
O1421  O     0.75000   0.50000   0.25000   0.00000  Uiso   1.00
O1422  O     0.75000   0.50000   0.75000   0.00000  Uiso   1.00
O1423  O     0.50000   0.75000   0.25000   0.00000  Uiso   1.00
O1424  O     0.50000   0.75000   0.75000   0.00000  Uiso   1.00
O1425  O     0.75000   0.96964   0.33755   0.00000  Uiso   1.00
O1426  O     0.75000   0.53037   0.66245   0.00000  Uiso   1.00
O1427  O     0.53037   0.75000   0.33755   0.00000  Uiso   1.00
O1428  O     0.96964   0.75000   0.66245   0.00000  Uiso   1.00
O1429  O     0.75000   0.53037   0.33755   0.00000  Uiso   1.00
O1430  O     0.75000   0.96964   0.66245   0.00000  Uiso   1.00
O1431  O     0.96964   0.75000   0.33755   0.00000  Uiso   1.00
O1432  O     0.53037   0.75000   0.66245   0.00000  Uiso   1.00
O1433  O     0.50000   0.71964   0.83755   0.00000  Uiso   1.00
O1434  O     0.50000   0.78037   0.16245   0.00000  Uiso   1.00
O1435  O     0.78037   0.50000   0.83755   0.00000  Uiso   1.00
O1436  O     0.71964   0.50000   0.16245   0.00000  Uiso   1.00
O1437  O     0.50000   0.78037   0.83755   0.00000  Uiso   1.00
O1438  O     0.50000   0.71964   0.16245   0.00000  Uiso   1.00
O1439  O     0.71964   0.50000   0.83755   0.00000  Uiso   1.00
O1440  O     0.78037   0.50000   0.16245   0.00000  Uiso   1.00
O1441  O     0.70725   0.57308   0.27302   0.00000  Uiso   1.00
O1442  O     0.79276   0.92693   0.72698   0.00000  Uiso   1.00
O1443  O     0.92693   0.70725   0.27302   0.00000  Uiso   1.00
O1444  O     0.57308   0.79276   0.72698   0.00000  Uiso   1.00
O1445  O     0.79276   0.92693   0.27302   0.00000  Uiso   1.00
O1446  O     0.70725   0.57308   0.72698   0.00000  Uiso   1.00
O1447  O     0.57308   0.79276   0.27302   0.00000  Uiso   1.00
O1448  O     0.92693   0.70725   0.72698   0.00000  Uiso   1.00
O1449  O     0.70725   0.92693   0.72698   0.00000  Uiso   1.00
O1450  O     0.79276   0.57308   0.27302   0.00000  Uiso   1.00
O1451  O     0.92693   0.79276   0.72698   0.00000  Uiso   1.00
O1452  O     0.57308   0.70725   0.27302   0.00000  Uiso   1.00
O1453  O     0.79276   0.57308   0.72698   0.00000  Uiso   1.00
O1454  O     0.70725   0.92693   0.27302   0.00000  Uiso   1.00
O1455  O     0.57308   0.70725   0.72698   0.00000  Uiso   1.00
O1456  O     0.92693   0.79276   0.27302   0.00000  Uiso   1.00
O1457  O     0.95725   0.82308   0.77302   0.00000  Uiso   1.00
O1458  O     0.54276   0.67693   0.22698   0.00000  Uiso   1.00
O1459  O     0.67693   0.95725   0.77302   0.00000  Uiso   1.00
O1460  O     0.82308   0.54276   0.22698   0.00000  Uiso   1.00
O1461  O     0.54276   0.67693   0.77302   0.00000  Uiso   1.00
O1462  O     0.95725   0.82308   0.22698   0.00000  Uiso   1.00
O1463  O     0.82308   0.54276   0.77302   0.00000  Uiso   1.00
O1464  O     0.67693   0.95725   0.22698   0.00000  Uiso   1.00
O1465  O     0.95725   0.67693   0.22698   0.00000  Uiso   1.00
O1466  O     0.54276   0.82308   0.77302   0.00000  Uiso   1.00
O1467  O     0.67693   0.54276   0.22698   0.00000  Uiso   1.00
O1468  O     0.82308   0.95725   0.77302   0.00000  Uiso   1.00
O1469  O     0.54276   0.82308   0.22698   0.00000  Uiso   1.00
O1470  O     0.95725   0.67693   0.77302   0.00000  Uiso   1.00
O1471  O     0.82308   0.95725   0.22698   0.00000  Uiso   1.00
O1472  O     0.67693   0.54276   0.77302   0.00000  Uiso   1.00
C1473  C     0.50086   0.68300   0.47965   0.00000  Uiso   1.00
C1474  C     0.50182   0.81698   0.52038   0.00000  Uiso   1.00
C1475  C     0.81711   0.99880   0.47965   0.00000  Uiso   1.00
C1476  C     0.68291   0.99828   0.52036   0.00000  Uiso   1.00
C1477  C     0.99918   0.81700   0.47959   0.00000  Uiso   1.00
C1478  C     0.99820   0.68301   0.52044   0.00000  Uiso   1.00
C1479  C     0.68290   0.50117   0.47960   0.00000  Uiso   1.00
C1480  C     0.81710   0.50171   0.52041   0.00000  Uiso   1.00
C1481  C     0.70496   0.95039   0.98010   0.00000  Uiso   1.00
C1482  C     0.76806   0.56767   0.02058   0.00000  Uiso   1.00
C1483  C     0.56710   0.75099   0.97971   0.00000  Uiso   1.00
C1484  C     0.93299   0.74611   0.02042   0.00000  Uiso   1.00
C1485  C     0.76239   0.56946   0.98016   0.00000  Uiso   1.00
C1486  C     0.70715   0.94903   0.02126   0.00000  Uiso   1.00
C1487  C     0.93290   0.74900   0.97965   0.00000  Uiso   1.00
C1488  C     0.56701   0.75392   0.02046   0.00000  Uiso   1.00
C1489  C     0.75000   0.99999   0.35579   0.00000  Uiso   1.00
C1490  C     0.75000   0.50001   0.64421   0.00000  Uiso   1.00
C1491  C     0.50001   0.75000   0.35582   0.00000  Uiso   1.00
C1492  C     0.99999   0.75000   0.64419   0.00000  Uiso   1.00
C1493  C     0.50000   0.74999   0.85581   0.00000  Uiso   1.00
C1494  C     0.50000   0.75001   0.14423   0.00000  Uiso   1.00
C1495  C     0.75002   0.50063   0.85598   0.00000  Uiso   1.00
C1496  C     0.74994   0.99994   0.14413   0.00000  Uiso   1.00
C1497  C     0.68001   0.56995   0.24995   0.00000  Uiso   1.00
C1498  C     0.81998   0.93005   0.75005   0.00000  Uiso   1.00
C1499  C     0.93001   0.68004   0.25004   0.00000  Uiso   1.00
C1500  C     0.56996   0.81997   0.74992   0.00000  Uiso   1.00
C1501  C     0.81998   0.93004   0.24996   0.00000  Uiso   1.00
C1502  C     0.68003   0.56996   0.75004   0.00000  Uiso   1.00
C1503  C     0.57000   0.81997   0.25000   0.00000  Uiso   1.00
C1504  C     0.93003   0.68003   0.74994   0.00000  Uiso   1.00
C1505  C     0.67999   0.93006   0.75002   0.00000  Uiso   1.00
C1506  C     0.81998   0.56996   0.24994   0.00000  Uiso   1.00
C1507  C     0.93002   0.81996   0.74995   0.00000  Uiso   1.00
C1508  C     0.56998   0.68005   0.25005   0.00000  Uiso   1.00
C1509  C     0.82000   0.56996   0.75003   0.00000  Uiso   1.00
C1510  C     0.68004   0.93003   0.24996   0.00000  Uiso   1.00
C1511  C     0.56998   0.68003   0.74996   0.00000  Uiso   1.00
C1512  C     0.93002   0.81995   0.25002   0.00000  Uiso   1.00
C1513  C     0.65016   0.87717   0.21837   0.00000  Uiso   1.00
C1514  C     0.87364   0.59934   0.71884   0.00000  Uiso   1.00
C1515  C     0.62312   0.65022   0.21847   0.00000  Uiso   1.00
C1516  C     0.87642   0.84936   0.78116   0.00000  Uiso   1.00
C1517  C     0.85023   0.62229   0.21821   0.00000  Uiso   1.00
C1518  C     0.64936   0.87804   0.78197   0.00000  Uiso   1.00
C1519  C     0.87661   0.84958   0.21865   0.00000  Uiso   1.00
C1520  C     0.62370   0.65071   0.78108   0.00000  Uiso   1.00
C1521  C     0.65067   0.62312   0.78104   0.00000  Uiso   1.00
C1522  C     0.84965   0.87718   0.21868   0.00000  Uiso   1.00
C1523  C     0.62258   0.85030   0.78189   0.00000  Uiso   1.00
C1524  C     0.87707   0.64998   0.21826   0.00000  Uiso   1.00
C1525  C     0.84948   0.87699   0.78116   0.00000  Uiso   1.00
C1526  C     0.65000   0.62255   0.21844   0.00000  Uiso   1.00
C1527  C     0.90061   0.62693   0.71887   0.00000  Uiso   1.00
C1528  C     0.62256   0.85022   0.21822   0.00000  Uiso   1.00
C1529  C     0.87647   0.65062   0.78114   0.00000  Uiso   1.00
C1530  C     0.60021   0.87253   0.28169   0.00000  Uiso   1.00
C1531  C     0.87352   0.90063   0.71881   0.00000  Uiso   1.00
C1532  C     0.62681   0.59975   0.28150   0.00000  Uiso   1.00
C1533  C     0.60037   0.87211   0.71802   0.00000  Uiso   1.00
C1534  C     0.89983   0.62762   0.28169   0.00000  Uiso   1.00
C1535  C     0.62637   0.59931   0.71889   0.00000  Uiso   1.00
C1536  C     0.87345   0.90046   0.28128   0.00000  Uiso   1.00
C1537  C     0.90040   0.87285   0.28125   0.00000  Uiso   1.00
C1538  C     0.59938   0.62687   0.71895   0.00000  Uiso   1.00
C1539  C     0.87291   0.60000   0.28170   0.00000  Uiso   1.00
C1540  C     0.62728   0.89975   0.71802   0.00000  Uiso   1.00
C1541  C     0.59989   0.62739   0.28150   0.00000  Uiso   1.00
C1542  C     0.90047   0.87304   0.71884   0.00000  Uiso   1.00
C1543  C     0.62711   0.90016   0.28149   0.00000  Uiso   1.00
C1544  C     0.84952   0.62303   0.78111   0.00000  Uiso   1.00
C1545  C     0.99775   0.71643   0.45897   0.00000  Uiso   1.00
C1546  C     0.99822   0.78360   0.54106   0.00000  Uiso   1.00
C1547  C     0.78365   0.50203   0.45893   0.00000  Uiso   1.00
C1548  C     0.71634   0.50178   0.54109   0.00000  Uiso   1.00
C1549  C     0.50229   0.78356   0.45894   0.00000  Uiso   1.00
C1550  C     0.50178   0.71639   0.54110   0.00000  Uiso   1.00
C1551  C     0.71636   0.99794   0.45891   0.00000  Uiso   1.00
C1552  C     0.78367   0.99823   0.54111   0.00000  Uiso   1.00
C1553  C     0.72752   0.97550   0.95945   0.00000  Uiso   1.00
C1554  C     0.75502   0.53691   0.04171   0.00000  Uiso   1.00
C1555  C     0.53355   0.75315   0.95899   0.00000  Uiso   1.00
C1556  C     0.96629   0.75067   0.04115   0.00000  Uiso   1.00
C1557  C     0.75512   0.53690   0.95907   0.00000  Uiso   1.00
C1558  C     0.73012   0.97439   0.04090   0.00000  Uiso   1.00
C1559  C     0.96645   0.74683   0.95897   0.00000  Uiso   1.00
C1560  C     0.53371   0.74936   0.04117   0.00000  Uiso   1.00
C1561  C     0.59816   0.84810   0.24998   0.00000  Uiso   1.00
C1562  C     0.90177   0.65211   0.75003   0.00000  Uiso   1.00
C1563  C     0.65169   0.59785   0.25003   0.00000  Uiso   1.00
C1564  C     0.84826   0.90214   0.74996   0.00000  Uiso   1.00
C1565  C     0.90170   0.65213   0.24995   0.00000  Uiso   1.00
C1566  C     0.59825   0.84787   0.74998   0.00000  Uiso   1.00
C1567  C     0.84827   0.90212   0.25004   0.00000  Uiso   1.00
C1568  C     0.65176   0.59789   0.74993   0.00000  Uiso   1.00
C1569  C     0.59826   0.65209   0.75007   0.00000  Uiso   1.00
C1570  C     0.90174   0.84789   0.24992   0.00000  Uiso   1.00
C1571  C     0.65163   0.90218   0.74993   0.00000  Uiso   1.00
C1572  C     0.84829   0.59785   0.25002   0.00000  Uiso   1.00
C1573  C     0.90171   0.84788   0.75004   0.00000  Uiso   1.00
C1574  C     0.59828   0.65214   0.24996   0.00000  Uiso   1.00
C1575  C     0.84830   0.59788   0.74992   0.00000  Uiso   1.00
C1576  C     0.65196   0.90200   0.24993   0.00000  Uiso   1.00
C1577  C     0.50002   0.75000   0.47953   0.00000  Uiso   1.00
C1578  C     0.50001   0.75000   0.52051   0.00000  Uiso   1.00
C1579  C     0.75000   0.99999   0.47950   0.00000  Uiso   1.00
C1580  C     0.75001   0.50000   0.52052   0.00000  Uiso   1.00
C1581  C     0.74136   0.50628   0.97970   0.00000  Uiso   1.00
C1582  C     0.74171   0.50615   0.02078   0.00000  Uiso   1.00
C1583  C     0.50000   0.74999   0.97956   0.00000  Uiso   1.00
C1584  C     0.50000   0.75001   0.02058   0.00000  Uiso   1.00
C1585  C     0.51280   0.64782   0.45997   0.00000  Uiso   1.00
H1586  H     0.52495   0.65280   0.43091   0.00000  Uiso   1.00
H1587  H     0.53485   0.63461   0.47724   0.00000  Uiso   1.00
H1588  H     0.98954   0.62842   0.45760   0.00000  Uiso   1.00
C1589  C     0.51424   0.85199   0.54006   0.00000  Uiso   1.00
H1590  H     0.52637   0.84684   0.56911   0.00000  Uiso   1.00
H1591  H     0.53644   0.86491   0.52279   0.00000  Uiso   1.00
H1592  H     0.99124   0.87169   0.54245   0.00000  Uiso   1.00
C1593  C     0.85227   0.98644   0.46012   0.00000  Uiso   1.00
H1594  H     0.84718   0.97398   0.43124   0.00000  Uiso   1.00
H1595  H     0.87185   0.50950   0.45745   0.00000  Uiso   1.00
H1596  H     0.86537   0.96455   0.47768   0.00000  Uiso   1.00
C1597  C     0.64785   0.98567   0.53991   0.00000  Uiso   1.00
H1598  H     0.63490   0.96369   0.52237   0.00000  Uiso   1.00
H1599  H     0.65304   0.97323   0.56879   0.00000  Uiso   1.00
H1600  H     0.62810   0.50858   0.54258   0.00000  Uiso   1.00
C1601  C     0.98726   0.85218   0.45986   0.00000  Uiso   1.00
H1602  H     0.97510   0.84721   0.43079   0.00000  Uiso   1.00
H1603  H     0.96521   0.86540   0.47709   0.00000  Uiso   1.00
H1604  H     0.51052   0.87156   0.45749   0.00000  Uiso   1.00
C1605  C     0.98577   0.64800   0.54014   0.00000  Uiso   1.00
H1606  H     0.97364   0.65315   0.56917   0.00000  Uiso   1.00
H1607  H     0.96358   0.63508   0.52285   0.00000  Uiso   1.00
H1608  H     0.50877   0.62829   0.54257   0.00000  Uiso   1.00
C1609  C     0.64774   0.51352   0.46003   0.00000  Uiso   1.00
H1610  H     0.65282   0.52598   0.43113   0.00000  Uiso   1.00
H1611  H     0.62816   0.99046   0.45736   0.00000  Uiso   1.00
H1612  H     0.63462   0.53541   0.47754   0.00000  Uiso   1.00
C1613  C     0.85216   0.51434   0.53996   0.00000  Uiso   1.00
H1614  H     0.84698   0.52678   0.56883   0.00000  Uiso   1.00
H1615  H     0.87192   0.99142   0.54267   0.00000  Uiso   1.00
H1616  H     0.86510   0.53631   0.52240   0.00000  Uiso   1.00
C1617  C     0.67502   0.92900   0.95940   0.00000  Uiso   1.00
H1618  H     0.68036   0.89919   0.96163   0.00000  Uiso   1.00
H1619  H     0.64789   0.93530   0.97213   0.00000  Uiso   1.00
H1620  H     0.67170   0.93683   0.92854   0.00000  Uiso   1.00
C1621  C     0.79288   0.59632   0.03849   0.00000  Uiso   1.00
H1622  H     0.80665   0.58615   0.06510   0.00000  Uiso   1.00
H1623  H     0.81552   0.60302   0.01813   0.00000  Uiso   1.00
H1624  H     0.77744   0.62181   0.04460   0.00000  Uiso   1.00
C1625  C     0.60263   0.73974   0.96017   0.00000  Uiso   1.00
H1626  H     0.61637   0.71821   0.97769   0.00000  Uiso   1.00
H1627  H     0.59794   0.72721   0.93125   0.00000  Uiso   1.00
H1628  H     0.62151   0.76337   0.95757   0.00000  Uiso   1.00
C1629  C     0.89834   0.73240   0.03996   0.00000  Uiso   1.00
H1630  H     0.88605   0.71008   0.02238   0.00000  Uiso   1.00
H1631  H     0.90393   0.72005   0.06880   0.00000  Uiso   1.00
H1632  H     0.87791   0.75471   0.04270   0.00000  Uiso   1.00
C1633  C     0.75792   0.60706   0.96214   0.00000  Uiso   1.00
H1634  H     0.74362   0.60592   0.93370   0.00000  Uiso   1.00
H1635  H     0.74038   0.62424   0.98118   0.00000  Uiso   1.00
H1636  H     0.78479   0.62089   0.95888   0.00000  Uiso   1.00
C1637  C     0.68141   0.92399   0.04367   0.00000  Uiso   1.00
H1638  H     0.68064   0.92985   0.07519   0.00000  Uiso   1.00
H1639  H     0.65264   0.92814   0.03454   0.00000  Uiso   1.00
H1640  H     0.68915   0.89500   0.03889   0.00000  Uiso   1.00
C1641  C     0.89737   0.76025   0.96007   0.00000  Uiso   1.00
H1642  H     0.90206   0.77278   0.93114   0.00000  Uiso   1.00
H1643  H     0.87850   0.73660   0.95748   0.00000  Uiso   1.00
H1644  H     0.88362   0.78177   0.97755   0.00000  Uiso   1.00
C1645  C     0.60165   0.76765   0.04000   0.00000  Uiso   1.00
H1646  H     0.59607   0.78000   0.06883   0.00000  Uiso   1.00
H1647  H     0.62210   0.74536   0.04278   0.00000  Uiso   1.00
H1648  H     0.61392   0.78998   0.02240   0.00000  Uiso   1.00
C1649  C     0.67778   0.87876   0.18527   0.00000  Uiso   1.00
H1650  H     0.69918   0.89993   0.18870   0.00000  Uiso   1.00
H1651  H     0.69252   0.85228   0.18319   0.00000  Uiso   1.00
H1652  H     0.66342   0.88455   0.15746   0.00000  Uiso   1.00
C1653  C     0.87259   0.57133   0.68615   0.00000  Uiso   1.00
H1654  H     0.85098   0.55032   0.68928   0.00000  Uiso   1.00
H1655  H     0.86771   0.58535   0.65796   0.00000  Uiso   1.00
H1656  H     0.89899   0.55628   0.68508   0.00000  Uiso   1.00
C1657  C     0.62163   0.67782   0.18538   0.00000  Uiso   1.00
H1658  H     0.60029   0.69909   0.18869   0.00000  Uiso   1.00
H1659  H     0.64810   0.69262   0.18346   0.00000  Uiso   1.00
H1660  H     0.61604   0.66349   0.15753   0.00000  Uiso   1.00
C1661  C     0.87750   0.82135   0.81386   0.00000  Uiso   1.00
H1662  H     0.89903   0.80026   0.81067   0.00000  Uiso   1.00
H1663  H     0.88252   0.83535   0.84201   0.00000  Uiso   1.00
H1664  H     0.85106   0.80640   0.81504   0.00000  Uiso   1.00
C1665  C     0.82297   0.61827   0.18494   0.00000  Uiso   1.00
H1666  H     0.82670   0.59123   0.17085   0.00000  Uiso   1.00
H1667  H     0.79459   0.62021   0.19638   0.00000  Uiso   1.00
H1668  H     0.82552   0.63901   0.16172   0.00000  Uiso   1.00
C1669  C     0.67606   0.88255   0.81564   0.00000  Uiso   1.00
H1670  H     0.67168   0.90960   0.82941   0.00000  Uiso   1.00
H1671  H     0.67341   0.86193   0.83898   0.00000  Uiso   1.00
H1672  H     0.70464   0.88089   0.80472   0.00000  Uiso   1.00
C1673  C     0.87790   0.82182   0.18573   0.00000  Uiso   1.00
H1674  H     0.89942   0.80072   0.18891   0.00000  Uiso   1.00
H1675  H     0.85149   0.80686   0.18423   0.00000  Uiso   1.00
H1676  H     0.88308   0.83605   0.15772   0.00000  Uiso   1.00
C1677  C     0.62272   0.67876   0.81371   0.00000  Uiso   1.00
H1678  H     0.60110   0.69978   0.81058   0.00000  Uiso   1.00
H1679  H     0.61788   0.66479   0.84192   0.00000  Uiso   1.00
H1680  H     0.64911   0.69379   0.81471   0.00000  Uiso   1.00
C1681  C     0.67902   0.62010   0.81339   0.00000  Uiso   1.00
H1682  H     0.67619   0.59330   0.82826   0.00000  Uiso   1.00
H1683  H     0.70697   0.62218   0.80084   0.00000  Uiso   1.00
H1684  H     0.67693   0.64130   0.83617   0.00000  Uiso   1.00
C1685  C     0.82163   0.88053   0.18603   0.00000  Uiso   1.00
H1686  H     0.82468   0.90743   0.17143   0.00000  Uiso   1.00
H1687  H     0.82391   0.85951   0.16308   0.00000  Uiso   1.00
H1688  H     0.79355   0.87842   0.19823   0.00000  Uiso   1.00
C1689  C     0.62067   0.82316   0.81538   0.00000  Uiso   1.00
H1690  H     0.59965   0.80162   0.81190   0.00000  Uiso   1.00
H1691  H     0.64724   0.80864   0.81816   0.00000  Uiso   1.00
H1692  H     0.61437   0.83782   0.84286   0.00000  Uiso   1.00
C1693  C     0.87871   0.67739   0.18501   0.00000  Uiso   1.00
H1694  H     0.89993   0.69876   0.18838   0.00000  Uiso   1.00
H1695  H     0.88454   0.66292   0.15731   0.00000  Uiso   1.00
H1696  H     0.85218   0.69209   0.18277   0.00000  Uiso   1.00
C1697  C     0.82130   0.88013   0.81364   0.00000  Uiso   1.00
H1698  H     0.82424   0.90695   0.82840   0.00000  Uiso   1.00
H1699  H     0.79329   0.87805   0.80125   0.00000  Uiso   1.00
H1700  H     0.82349   0.85898   0.83650   0.00000  Uiso   1.00
C1701  C     0.67755   0.61882   0.18542   0.00000  Uiso   1.00
H1702  H     0.67397   0.59190   0.17104   0.00000  Uiso   1.00
H1703  H     0.67517   0.63976   0.16238   0.00000  Uiso   1.00
H1704  H     0.70582   0.62068   0.19718   0.00000  Uiso   1.00
C1705  C     0.92889   0.62999   0.68645   0.00000  Uiso   1.00
H1706  H     0.95687   0.62791   0.69895   0.00000  Uiso   1.00
H1707  H     0.92677   0.60881   0.66365   0.00000  Uiso   1.00
H1708  H     0.92600   0.65680   0.67162   0.00000  Uiso   1.00
C1709  C     0.61877   0.82286   0.18507   0.00000  Uiso   1.00
H1710  H     0.62116   0.79461   0.19667   0.00000  Uiso   1.00
H1711  H     0.59159   0.82609   0.17102   0.00000  Uiso   1.00
H1712  H     0.63944   0.82564   0.16178   0.00000  Uiso   1.00
C1713  C     0.87760   0.67855   0.81390   0.00000  Uiso   1.00
H1714  H     0.89914   0.69962   0.81073   0.00000  Uiso   1.00
H1715  H     0.85118   0.69354   0.81515   0.00000  Uiso   1.00
H1716  H     0.88265   0.66448   0.84203   0.00000  Uiso   1.00
C1717  C     0.57291   0.86864   0.31489   0.00000  Uiso   1.00
H1718  H     0.57651   0.84157   0.32892   0.00000  Uiso   1.00
H1719  H     0.57558   0.88931   0.33814   0.00000  Uiso   1.00
H1720  H     0.54456   0.87074   0.30339   0.00000  Uiso   1.00
C1721  C     0.87233   0.92855   0.68602   0.00000  Uiso   1.00
H1722  H     0.85079   0.94963   0.68920   0.00000  Uiso   1.00
H1723  H     0.89874   0.94353   0.68471   0.00000  Uiso   1.00
H1724  H     0.86725   0.91447   0.65792   0.00000  Uiso   1.00
C1725  C     0.62827   0.57212   0.31456   0.00000  Uiso   1.00
H1726  H     0.64969   0.55093   0.31133   0.00000  Uiso   1.00
H1727  H     0.63370   0.58645   0.34244   0.00000  Uiso   1.00
H1728  H     0.60183   0.55724   0.31633   0.00000  Uiso   1.00
C1729  C     0.57312   0.86806   0.68472   0.00000  Uiso   1.00
H1730  H     0.57663   0.84093   0.67076   0.00000  Uiso   1.00
H1731  H     0.54476   0.87027   0.69613   0.00000  Uiso   1.00
H1732  H     0.57583   0.88867   0.66139   0.00000  Uiso   1.00
C1733  C     0.92723   0.63149   0.31483   0.00000  Uiso   1.00
H1734  H     0.92360   0.65851   0.32894   0.00000  Uiso   1.00
H1735  H     0.92470   0.61074   0.33805   0.00000  Uiso   1.00
H1736  H     0.95555   0.62949   0.30326   0.00000  Uiso   1.00
C1737  C     0.62746   0.57135   0.68616   0.00000  Uiso   1.00
H1738  H     0.64908   0.55034   0.68928   0.00000  Uiso   1.00
H1739  H     0.60108   0.55629   0.68503   0.00000  Uiso   1.00
H1740  H     0.63236   0.58541   0.65801   0.00000  Uiso   1.00
C1741  C     0.87224   0.92828   0.31413   0.00000  Uiso   1.00
H1742  H     0.85072   0.94939   0.31096   0.00000  Uiso   1.00
H1743  H     0.86712   0.91411   0.34218   0.00000  Uiso   1.00
H1744  H     0.89866   0.94324   0.31553   0.00000  Uiso   1.00
C1745  C     0.92846   0.86954   0.31387   0.00000  Uiso   1.00
H1746  H     0.92544   0.84266   0.32851   0.00000  Uiso   1.00
H1747  H     0.95652   0.87165   0.30162   0.00000  Uiso   1.00
H1748  H     0.92621   0.89059   0.33680   0.00000  Uiso   1.00
C1749  C     0.57112   0.62996   0.68654   0.00000  Uiso   1.00
H1750  H     0.57417   0.65674   0.67176   0.00000  Uiso   1.00
H1751  H     0.57321   0.60878   0.66373   0.00000  Uiso   1.00
H1752  H     0.54313   0.62801   0.69898   0.00000  Uiso   1.00
C1753  C     0.87119   0.57267   0.31503   0.00000  Uiso   1.00
H1754  H     0.84986   0.55140   0.31175   0.00000  Uiso   1.00
H1755  H     0.89764   0.55784   0.31727   0.00000  Uiso   1.00
H1756  H     0.86545   0.58722   0.34270   0.00000  Uiso   1.00
C1757  C     0.62919   0.92689   0.68453   0.00000  Uiso   1.00
H1758  H     0.65047   0.94820   0.68782   0.00000  Uiso   1.00
H1759  H     0.63510   0.91217   0.65700   0.00000  Uiso   1.00
H1760  H     0.60274   0.94168   0.68201   0.00000  Uiso   1.00
C1761  C     0.57213   0.63093   0.31436   0.00000  Uiso   1.00
H1762  H     0.57533   0.65789   0.32877   0.00000  Uiso   1.00
H1763  H     0.54396   0.62880   0.30240   0.00000  Uiso   1.00
H1764  H     0.57456   0.61002   0.33742   0.00000  Uiso   1.00
C1765  C     0.92856   0.86983   0.68630   0.00000  Uiso   1.00
H1766  H     0.92540   0.84303   0.67163   0.00000  Uiso   1.00
H1767  H     0.92639   0.89096   0.66343   0.00000  Uiso   1.00
H1768  H     0.95662   0.87178   0.69859   0.00000  Uiso   1.00
C1769  C     0.62865   0.92775   0.31458   0.00000  Uiso   1.00
H1770  H     0.64980   0.94917   0.31116   0.00000  Uiso   1.00
H1771  H     0.60209   0.94239   0.31669   0.00000  Uiso   1.00
H1772  H     0.63450   0.91342   0.34239   0.00000  Uiso   1.00
C1773  C     0.82146   0.61979   0.81367   0.00000  Uiso   1.00
H1774  H     0.79338   0.62166   0.80140   0.00000  Uiso   1.00
H1775  H     0.82474   0.59299   0.82838   0.00000  Uiso   1.00
H1776  H     0.82358   0.64094   0.83652   0.00000  Uiso   1.00
C1777  C     0.52947   0.81232   0.39719   0.00000  Uiso   1.00
H1778  H     0.55283   0.80056   0.38085   0.00000  Uiso   1.00
H1779  H     0.51091   0.82650   0.37650   0.00000  Uiso   1.00
H1780  H     0.54223   0.83227   0.41723   0.00000  Uiso   1.00
C1781  C     0.52843   0.68721   0.60292   0.00000  Uiso   1.00
H1782  H     0.55189   0.69861   0.61942   0.00000  Uiso   1.00
H1783  H     0.50960   0.67328   0.62349   0.00000  Uiso   1.00
H1784  H     0.54099   0.66712   0.58290   0.00000  Uiso   1.00
C1785  C     0.68708   0.97157   0.39696   0.00000  Uiso   1.00
H1786  H     0.69835   0.94838   0.37998   0.00000  Uiso   1.00
H1787  H     0.66714   0.95871   0.41695   0.00000  Uiso   1.00
H1788  H     0.67293   0.99062   0.37677   0.00000  Uiso   1.00
C1789  C     0.81318   0.97215   0.60311   0.00000  Uiso   1.00
H1790  H     0.80210   0.94891   0.62018   0.00000  Uiso   1.00
H1791  H     0.83321   0.95940   0.58314   0.00000  Uiso   1.00
H1792  H     0.82718   0.99133   0.62324   0.00000  Uiso   1.00
C1793  C     0.97057   0.68767   0.39723   0.00000  Uiso   1.00
H1794  H     0.94720   0.69943   0.38087   0.00000  Uiso   1.00
H1795  H     0.98913   0.67351   0.37655   0.00000  Uiso   1.00
H1796  H     0.95782   0.66772   0.41728   0.00000  Uiso   1.00
C1797  C     0.97155   0.81279   0.60282   0.00000  Uiso   1.00
H1798  H     0.94809   0.80139   0.61932   0.00000  Uiso   1.00
H1799  H     0.99039   0.82672   0.62340   0.00000  Uiso   1.00
H1800  H     0.95899   0.83287   0.58278   0.00000  Uiso   1.00
C1801  C     0.81293   0.52839   0.39698   0.00000  Uiso   1.00
H1802  H     0.80166   0.55158   0.37998   0.00000  Uiso   1.00
H1803  H     0.83288   0.54124   0.41698   0.00000  Uiso   1.00
H1804  H     0.82707   0.50935   0.37681   0.00000  Uiso   1.00
C1805  C     0.68683   0.52788   0.60303   0.00000  Uiso   1.00
H1806  H     0.69791   0.55111   0.62009   0.00000  Uiso   1.00
H1807  H     0.66680   0.54062   0.58303   0.00000  Uiso   1.00
H1808  H     0.67283   0.50869   0.62316   0.00000  Uiso   1.00
C1809  C     0.78668   0.55984   0.89679   0.00000  Uiso   1.00
H1810  H     0.80769   0.54456   0.88020   0.00000  Uiso   1.00
H1811  H     0.77048   0.57707   0.87650   0.00000  Uiso   1.00
H1812  H     0.80336   0.57706   0.91633   0.00000  Uiso   1.00
C1813  C     0.74670   0.93333   0.09885   0.00000  Uiso   1.00
H1814  H     0.77451   0.93235   0.11194   0.00000  Uiso   1.00
H1815  H     0.72631   0.92842   0.12223   0.00000  Uiso   1.00
H1816  H     0.74563   0.91084   0.07727   0.00000  Uiso   1.00
C1817  C     0.93805   0.71943   0.89709   0.00000  Uiso   1.00
H1818  H     0.95004   0.69646   0.88033   0.00000  Uiso   1.00
H1819  H     0.91844   0.70610   0.91710   0.00000  Uiso   1.00
H1820  H     0.92338   0.73792   0.87673   0.00000  Uiso   1.00
C1821  C     0.56407   0.72436   0.10323   0.00000  Uiso   1.00
H1822  H     0.55372   0.70092   0.12051   0.00000  Uiso   1.00
H1823  H     0.58443   0.71212   0.08328   0.00000  Uiso   1.00
H1824  H     0.57751   0.74408   0.12320   0.00000  Uiso   1.00
C1825  C     0.73578   0.93492   0.89929   0.00000  Uiso   1.00
H1826  H     0.76217   0.93115   0.88371   0.00000  Uiso   1.00
H1827  H     0.73412   0.91190   0.92018   0.00000  Uiso   1.00
H1828  H     0.71325   0.93306   0.87777   0.00000  Uiso   1.00
C1829  C     0.74898   0.57057   0.10723   0.00000  Uiso   1.00
H1830  H     0.72680   0.56728   0.12901   0.00000  Uiso   1.00
H1831  H     0.77488   0.57639   0.12292   0.00000  Uiso   1.00
H1832  H     0.74037   0.59437   0.08958   0.00000  Uiso   1.00
C1833  C     0.56194   0.78056   0.89712   0.00000  Uiso   1.00
H1834  H     0.58155   0.79388   0.91714   0.00000  Uiso   1.00
H1835  H     0.57661   0.76207   0.87678   0.00000  Uiso   1.00
H1836  H     0.54994   0.80353   0.88034   0.00000  Uiso   1.00
C1837  C     0.93594   0.77569   0.10316   0.00000  Uiso   1.00
H1838  H     0.91559   0.78795   0.08317   0.00000  Uiso   1.00
H1839  H     0.92249   0.75598   0.12313   0.00000  Uiso   1.00
H1840  H     0.94629   0.79913   0.12043   0.00000  Uiso   1.00
loop_
_geom_bond_atom_site_label_1
_geom_bond_atom_site_label_2
_geom_bond_distance
_geom_bond_site_symmetry_2
_ccdc_geom_bond_type
Zn1    O87     1.931   .     S
Zn1    O56     1.947   .     S
Zn1    O41     1.942   .     S
Zn1    O1004   1.931   1_545 S
Zn2    O42     1.942   .     S
Zn2    O1008   1.931   1_545 S
Zn2    O55     1.947   .     S
Zn2    O83     1.931   .     S
Zn3    O545    1.930   1_455 S
Zn3    O43     1.945   .     S
Zn3    O58     1.946   .     S
Zn3    O78     1.930   .     S
Zn4    O86     1.930   .     S
Zn4    O44     1.945   .     S
Zn4    O57     1.946   .     S
Zn4    O537    1.930   1_455 S
Zn5    O60     1.946   .     S
Zn5    O80     1.931   .     S
Zn5    O41     1.942   .     S
Zn5    O1011   1.931   1_545 S
Zn6    O42     1.942   .     S
Zn6    O999    1.931   1_545 S
Zn6    O59     1.946   .     S
Zn6    O92     1.931   .     S
Zn7    O43     1.944   .     S
Zn7    O89     1.930   .     S
Zn7    O54     1.947   .     S
Zn7    O542    1.930   1_455 S
Zn8    O81     1.930   .     S
Zn8    O53     1.947   .     S
Zn8    O44     1.944   .     S
Zn8    O550    1.930   1_455 S
Zn9    O48     1.947   .     S
Zn9    O71     1.931   .     S
Zn9    O68     1.931   .     S
Zn9    O504    1.942   .     S
Zn10   O47     1.947   .     S
Zn10   O72     1.931   .     S
Zn10   O67     1.931   .     S
Zn10   O43     1.942   .     S
Zn11   O62     1.930   .     S
Zn11   O962    1.945   .     S
Zn11   O69     1.930   .     S
Zn11   O50     1.946   .     S
Zn12   O49     1.946   .     S
Zn12   O70     1.930   .     S
Zn12   O61     1.930   .     S
Zn12   O41     1.945   .     S
Zn13   O44     1.942   .     S
Zn13   O75     1.931   .     S
Zn13   O52     1.946   .     S
Zn13   O64     1.931   .     S
Zn14   O76     1.931   .     S
Zn14   O51     1.946   .     S
Zn14   O63     1.931   .     S
Zn14   O503    1.942   .     S
Zn15   O66     1.930   .     S
Zn15   O73     1.930   .     S
Zn15   O46     1.947   .     S
Zn15   O42     1.944   .     S
Zn16   O45     1.947   .     S
Zn16   O65     1.930   .     S
Zn16   O74     1.930   .     S
Zn16   O961    1.944   .     S
C17    C33     1.406   .     A
C17    C169    1.415   .     A
C17    C397    1.518   .     S
C18    C170    1.415   .     A
C18    C401    1.518   .     S
C18    C494    1.406   1_455 S
C19    C35     1.406   .     A
C19    C405    1.519   .     S
C19    C171    1.416   .     A
C20    C172    1.416   .     A
C20    C409    1.519   .     S
C20    C956    1.406   .     S
C21    C165    1.415   .     A
C21    C413    1.518   .     S
C21    C493    1.406   .     S
C22    C166    1.415   .     A
C22    C34     1.406   .     A
C22    C417    1.518   .     S
C23    C167    1.416   .     A
C23    C421    1.519   .     S
C23    C955    1.406   1_545 S
C24    C425    1.519   .     S
C24    C36     1.406   .     A
C24    C168    1.416   .     A
C25    C177    1.422   .     A
C25    C429    1.520   .     S
C25    C37     1.412   .     A
C26    C433    1.517   .     S
C26    C178    1.414   .     A
C26    C958    1.403   .     S
C27    C179    1.416   .     A
C27    C437    1.519   .     S
C27    C499    1.406   .     S
C28    C40     1.405   .     A
C28    C180    1.416   .     A
C28    C441    1.519   .     S
C29    C445    1.520   .     S
C29    C173    1.416   .     A
C29    C957    1.406   .     S
C30    C38     1.409   .     A
C30    C174    1.421   .     A
C30    C449    1.519   .     S
C31    C453    1.519   .     S
C31    C39     1.406   .     A
C31    C175    1.416   .     A
C32    C176    1.416   .     A
C32    C457    1.519   .     S
C32    C500    1.405   .     S
C33    C111    1.458   .     S
C33    C481    1.406   1_455 S
C34    C112    1.457   .     S
C34    C478    1.406   .     S
C35    C109    1.457   .     S
C35    C943    1.406   .     S
C36    C110    1.457   .     S
C36    C940    1.406   1_545 S
C37    C115    1.470   .     S
C37    C949    1.406   1_545 S
C38    C946    1.403   1_545 S
C38    C1036   1.461   1_545 S
C39    C487    1.406   1_455 S
C39    C113    1.458   .     S
C40    C492    1.405   1_455 S
C40    C114    1.456   .     S
O41    Zn936   1.944   1_545 S
O42    Zn931   1.945   1_545 S
O43    Zn474   1.942   1_455 S
O44    Zn469   1.942   1_455 S
O45    C109    1.276   .     A
O46    C110    1.275   .     A
O47    C111    1.274   .     A
O48    C112    1.274   .     A
O49    C1029   1.276   1_545 S
O50    C1030   1.275   .     S
O51    C571    1.274   .     S
O52    C572    1.274   1_455 S
O53    C113    1.276   .     S
O54    C114    1.275   .     A
O55    C115    1.277   .     A
O56    C1036   1.273   1_545 S
O57    C113    1.276   .     S
O58    C114    1.275   .     S
O59    C115    1.278   .     A
O60    C1036   1.277   1_545 S
O61    C117    1.277   .     A
O62    C118    1.277   .     A
O63    C119    1.276   .     A
O64    C120    1.275   .     A
O65    C121    1.277   .     A
O66    C122    1.276   .     A
O67    C123    1.276   .     A
O68    C124    1.275   .     A
O69    C125    1.277   .     A
O70    C126    1.277   .     A
O71    C127    1.276   .     A
O72    C128    1.275   .     A
O73    C129    1.277   .     A
O74    C130    1.276   .     A
O75    C131    1.276   .     A
O76    C132    1.276   .     A
O77    C127    1.277   .     A
O77    Zn464   1.930   .     S
O78    C128    1.277   .     A
O79    C125    1.276   .     A
O79    Zn926   1.931   .     S
O80    C126    1.275   .     A
O81    C131    1.277   .     A
O82    C132    1.277   .     A
O82    Zn467   1.930   .     S
O83    C129    1.275   .     A
O84    C130    1.276   .     A
O84    Zn921   1.931   .     S
O85    Zn463   1.930   .     S
O85    C119    1.277   .     A
O86    C120    1.277   .     A
O87    C117    1.275   .     A
O88    C118    1.276   .     A
O88    Zn922   1.931   .     S
O89    C123    1.276   .     A
O90    C124    1.276   .     A
O90    Zn468   1.930   .     S
O91    C121    1.275   .     A
O91    Zn925   1.931   .     S
O92    C122    1.275   .     A
C93    C205    1.518   .     S
C93    C558    1.406   1_455 S
C93    C625    1.419   1_455 S
C94    C209    1.518   .     S
C94    C557    1.406   1_455 S
C94    C626    1.419   1_455 S
C95    C213    1.518   .     S
C95    C1020   1.405   .     S
C95    C1087   1.419   .     S
C96    C217    1.518   .     S
C96    C1019   1.405   .     S
C96    C1088   1.419   .     S
C97    C221    1.518   .     S
C97    C554    1.406   .     S
C97    C629    1.419   .     S
C98    C225    1.518   .     S
C98    C553    1.406   .     S
C98    C630    1.419   .     S
C99    C229    1.518   .     S
C99    C1016   1.405   1_545 S
C99    C1091   1.419   1_545 S
C100   C233    1.518   .     S
C100   C1015   1.405   1_545 S
C100   C1092   1.419   1_545 S
C101   C173    1.423   .     A
C101   C237    1.521   .     S
C101   C106    1.418   1_556 S
C102   C241    1.516   .     S
C102   C174    1.421   .     A
C102   C105    1.406   1_554 S
C103   C245    1.518   .     S
C103   C175    1.419   .     A
C103   C108    1.405   1_556 S
C104   C176    1.419   .     A
C104   C249    1.518   .     S
C104   C107    1.405   1_554 S
C105   C253    1.517   .     S
C105   C177    1.420   .     A
C105   C102    1.406   1_556 S
C106   C178    1.421   .     A
C106   C257    1.522   .     S
C106   C101    1.418   1_554 S
C107   C261    1.518   .     S
C107   C179    1.419   .     A
C107   C104    1.405   1_556 S
C108   C265    1.518   .     S
C108   C180    1.419   .     A
C108   C103    1.405   1_554 S
C109   O969    1.276   .     S
C110   O970    1.275   1_545 S
C111   O511    1.274   1_455 S
C112   O512    1.274   .     S
C116   C958    1.461   .     S
C116   O980    1.277   .     S
C116   O976    1.273   .     S
C117   C183    1.453   .     S
C118   C184    1.452   .     S
C119   C185    1.453   .     S
C120   C186    1.452   .     S
C121   C187    1.453   .     S
C122   C188    1.452   .     S
C123   C181    1.455   .     S
C124   C182    1.452   .     S
C125   C191    1.454   .     S
C126   C192    1.453   .     S
C127   C193    1.453   .     S
C128   C194    1.452   .     S
C129   C195    1.453   .     S
C130   C196    1.450   .     S
C131   C189    1.453   .     S
C132   C190    1.452   .     S
C133   C196    1.417   .     A
C133   C269    1.522   .     S
C133   C148    1.410   .     A
C134   C273    1.521   .     S
C134   C147    1.410   .     A
C134   C195    1.415   .     A
C135   C146    1.410   .     A
C135   C194    1.415   .     A
C135   C277    1.521   .     S
C136   C281    1.521   .     S
C136   C145    1.410   .     A
C136   C193    1.415   .     A
C137   C144    1.410   .     A
C137   C192    1.414   .     A
C137   C285    1.523   .     S
C138   C143    1.409   .     A
C138   C191    1.414   .     A
C138   C289    1.522   .     S
C139   C142    1.410   .     A
C139   C190    1.415   .     A
C139   C293    1.521   .     S
C140   C141    1.410   .     A
C140   C189    1.415   .     A
C140   C297    1.521   .     S
C141   C301    1.523   .     S
C141   C188    1.413   .     A
C142   C187    1.413   .     A
C142   C305    1.523   .     S
C143   C309    1.522   .     S
C143   C186    1.414   .     A
C144   C185    1.415   .     A
C144   C313    1.521   .     S
C145   C184    1.413   .     A
C145   C317    1.523   .     S
C146   C183    1.414   .     A
C146   C321    1.523   .     S
C147   C325    1.524   .     S
C147   C182    1.414   .     A
C148   C329    1.523   .     S
C148   C181    1.412   .     A
C149   C164    1.410   .     A
C149   C333    1.522   .     S
C149   C182    1.415   .     A
C150   C163    1.410   .     A
C150   C181    1.412   .     A
C150   C337    1.522   .     S
C151   C184    1.414   .     A
C151   C341    1.521   .     S
C151   C162    1.410   .     A
C152   C161    1.410   .     A
C152   C183    1.415   .     A
C152   C345    1.521   .     S
C153   C349    1.524   .     S
C153   C160    1.410   .     A
C153   C186    1.414   .     A
C154   C159    1.410   .     A
C154   C353    1.523   .     S
C154   C185    1.414   .     A
C155   C158    1.410   .     A
C155   C357    1.521   .     S
C155   C188    1.414   .     A
C156   C187    1.415   .     A
C156   C361    1.521   .     S
C156   C157    1.410   .     A
C157   C190    1.413   .     A
C157   C365    1.523   .     S
C158   C369    1.523   .     S
C158   C189    1.413   .     A
C159   C192    1.414   .     A
C159   C373    1.522   .     S
C160   C191    1.415   .     A
C160   C377    1.521   .     S
C161   C381    1.523   .     S
C161   C194    1.413   .     A
C162   C193    1.413   .     A
C162   C385    1.523   .     S
C163   C196    1.416   .     A
C163   C389    1.522   .     S
C164   C195    1.414   .     A
C164   C393    1.522   .     S
C165   C553    1.419   .     S
C165   C657    1.419   .     S
C166   C554    1.419   .     S
C166   C658    1.420   .     S
C167   C1015   1.419   1_545 S
C167   C1119   1.420   1_545 S
C168   C1016   1.419   1_545 S
C168   C200    1.420   .     S
C169   C197    1.419   .     A
C169   C557    1.419   1_455 S
C170   C198    1.420   .     A
C170   C558    1.419   1_455 S
C171   C199    1.420   .     A
C171   C1019   1.419   .     S
C172   C1120   1.420   .     A
C172   C1020   1.419   .     S
C173   C1121   1.417   .     S
C174   C202    1.422   .     A
C175   C203    1.420   .     S
C176   C664    1.420   .     A
C177   C201    1.418   .     A
C178   C1122   1.417   .     S
C179   C663    1.420   .     A
C180   C204    1.420   .     S
C197   C198    1.409   .     A
C197   C625    1.419   1_455 S
C198   C626    1.420   1_455 S
C199   C1120   1.410   .     A
C199   C1087   1.420   .     S
C200   C1119   1.410   1_545 A
C200   C1092   1.420   1_545 A
C201   C1093   1.417   1_545 S
C201   C202    1.412   1_556 S
C202   C1098   1.417   1_545 S
C202   C201    1.412   1_554 S
C203   C639    1.420   1_455 A
C203   C204    1.410   1_556 S
C204   C636    1.420   1_455 A
C204   C203    1.410   1_554 S
C205   H207    1.111   .     S
C205   H206    1.108   .     S
C205   H668    1.110   1_455 S
H208   C665    1.110   .     S
C209   H210    1.108   .     S
C209   H211    1.111   .     S
C209   H672    1.110   1_455 S
H212   C669    1.110   .     S
C213   H214    1.108   .     S
C213   H216    1.111   .     S
C213   H1135   1.110   .     S
H215   C1133   1.110   1_545 S
C217   H218    1.111   .     S
C217   H219    1.108   .     S
C217   H1140   1.110   .     S
H220   C1137   1.110   1_545 S
C221   H222    1.108   .     S
C221   H223    1.111   .     S
C221   H684    1.110   .     S
H224   C681    1.110   1_455 S
C225   H227    1.111   .     S
C225   H226    1.108   .     S
C225   H688    1.110   .     S
H228   C685    1.110   1_455 S
C229   H230    1.108   .     S
C229   H232    1.111   .     S
C229   H1151   1.110   1_545 S
H231   C1149   1.110   .     S
C233   H234    1.108   .     S
C233   H236    1.111   .     S
C233   H1155   1.110   1_545 S
H235   C1153   1.110   .     S
C237   H240    1.105   .     S
C237   H239    1.108   .     S
C237   H238    1.110   .     S
C241   H243    1.111   .     S
C241   H242    1.108   .     S
C241   H244    1.110   .     S
C245   H246    1.111   .     S
C245   H248    1.110   .     S
C245   H247    1.108   .     S
C249   H250    1.111   .     S
C249   H252    1.110   .     S
C249   H251    1.108   .     S
C253   H255    1.111   .     S
C253   H254    1.109   .     S
C253   H256    1.110   .     S
C257   H260    1.110   .     S
C257   H258    1.105   .     S
C257   H259    1.107   .     S
C261   H263    1.110   .     S
C261   H264    1.111   .     S
C261   H262    1.108   .     S
C265   H267    1.110   .     S
C265   H266    1.108   .     S
C265   H268    1.111   .     S
C269   H270    1.107   .     S
C269   H272    1.110   .     S
C269   H271    1.110   .     S
C273   H276    1.111   .     S
C273   H275    1.111   .     S
C273   H274    1.107   .     S
C277   H278    1.107   .     S
C277   H279    1.110   .     S
C277   H280    1.110   .     S
C281   H284    1.110   .     S
C281   H283    1.110   .     S
C281   H282    1.107   .     S
C285   H287    1.111   .     S
C285   H286    1.110   .     S
C285   H288    1.105   .     S
C289   H290    1.109   .     S
C289   H292    1.111   .     S
C289   H291    1.105   .     S
C293   H294    1.107   .     S
C293   H296    1.110   .     S
C293   H295    1.110   .     S
C297   H298    1.107   .     S
C297   H299    1.110   .     S
C297   H300    1.110   .     S
C301   H304    1.105   .     S
C301   H302    1.110   .     S
C301   H303    1.111   .     S
C305   H306    1.110   .     S
C305   H307    1.105   .     S
C305   H308    1.111   .     S
C309   H311    1.110   .     S
C309   H312    1.110   .     S
C309   H310    1.107   .     S
C313   H314    1.107   .     S
C313   H315    1.110   .     S
C313   H316    1.110   .     S
C317   H319    1.111   .     S
C317   H320    1.105   .     S
C317   H318    1.110   .     S
C321   H322    1.110   .     S
C321   H324    1.111   .     S
C321   H323    1.105   .     S
C325   H327    1.105   .     S
C325   H326    1.111   .     S
C325   H328    1.110   .     S
C329   H331    1.110   .     S
C329   H330    1.111   .     S
C329   H332    1.105   .     S
C333   H334    1.107   .     S
C333   H335    1.111   .     S
C333   H336    1.111   .     S
C337   H338    1.109   .     S
C337   H340    1.111   .     S
C337   H339    1.105   .     S
C341   H344    1.110   .     S
C341   H343    1.110   .     S
C341   H342    1.107   .     S
C345   H348    1.110   .     S
C345   H347    1.110   .     S
C345   H346    1.107   .     S
C349   H352    1.105   .     S
C349   H350    1.110   .     S
C349   H351    1.111   .     S
C353   H355    1.105   .     S
C353   H354    1.109   .     S
C353   H356    1.111   .     S
C357   H358    1.107   .     S
C357   H360    1.110   .     S
C357   H359    1.110   .     S
C361   H364    1.110   .     S
C361   H363    1.110   .     S
C361   H362    1.107   .     S
C365   H368    1.105   .     S
C365   H366    1.110   .     S
C365   H367    1.111   .     S
C369   H372    1.111   .     S
C369   H370    1.109   .     S
C369   H371    1.105   .     S
C373   H376    1.110   .     S
C373   H375    1.110   .     S
C373   H374    1.107   .     S
C377   H380    1.110   .     S
C377   H379    1.110   .     S
C377   H378    1.107   .     S
C381   H382    1.110   .     S
C381   H383    1.111   .     S
C381   H384    1.105   .     S
C385   H387    1.105   .     S
C385   H386    1.109   .     S
C385   H388    1.111   .     S
C389   H392    1.110   .     S
C389   H391    1.110   .     S
C389   H390    1.107   .     S
C393   H394    1.111   .     S
C393   H396    1.105   .     S
C393   H395    1.109   .     S
C397   H399    1.111   .     S
C397   H398    1.109   .     S
C397   H400    1.106   .     S
C401   H402    1.109   .     S
C401   H404    1.106   .     S
C401   H403    1.111   .     S
C405   H406    1.109   .     S
C405   H408    1.110   .     S
C405   H407    1.106   .     S
C409   H410    1.109   .     S
C409   H412    1.110   .     S
C409   H411    1.106   .     S
C413   H415    1.111   .     S
C413   H414    1.109   .     S
C413   H416    1.106   .     S
C417   H419    1.111   .     S
C417   H418    1.109   .     S
C417   H420    1.106   .     S
C421   H424    1.110   .     S
C421   H422    1.109   .     S
C421   H423    1.106   .     S
C425   H427    1.106   .     S
C425   H426    1.109   .     S
C425   H428    1.110   .     S
C429   H430    1.108   .     S
C429   H432    1.104   .     S
C429   H431    1.110   .     S
C433   H435    1.110   .     S
C433   H436    1.109   .     S
C433   H434    1.111   .     S
C437   H439    1.106   .     S
C437   H438    1.109   .     S
C437   H440    1.110   .     S
C441   H444    1.110   .     S
C441   H443    1.106   .     S
C441   H442    1.109   .     S
C445   H446    1.111   .     S
C445   H448    1.108   .     S
C445   H447    1.108   .     S
C449   H451    1.109   .     S
C449   H450    1.110   .     S
C449   H452    1.107   .     S
C453   H456    1.109   .     S
C453   H455    1.110   .     S
C453   H454    1.106   .     S
C457   H458    1.106   .     S
C457   H460    1.109   .     S
C457   H459    1.110   .     S
Zn461  O547    1.931   .     S
Zn461  O516    1.947   .     S
Zn461  O501    1.942   .     S
Zn461  O1464   1.931   1_545 S
Zn462  O502    1.942   .     S
Zn462  O1468   1.931   1_545 S
Zn462  O515    1.947   .     S
Zn462  O543    1.931   .     S
Zn463  O503    1.945   .     S
Zn463  O518    1.946   .     S
Zn463  O538    1.930   .     S
Zn464  O546    1.930   .     S
Zn464  O504    1.945   .     S
Zn464  O517    1.946   .     S
Zn465  O520    1.946   .     S
Zn465  O540    1.931   .     S
Zn465  O501    1.942   .     S
Zn465  O1471   1.931   1_545 S
Zn466  O502    1.942   .     S
Zn466  O1459   1.931   1_545 S
Zn466  O519    1.946   .     S
Zn466  O552    1.931   .     S
Zn467  O503    1.944   .     S
Zn467  O549    1.930   .     S
Zn467  O514    1.947   .     S
Zn468  O541    1.930   .     S
Zn468  O513    1.947   .     S
Zn468  O504    1.944   .     S
Zn469  O508    1.947   .     S
Zn469  O531    1.931   .     S
Zn469  O528    1.931   .     S
Zn469  O44     1.942   1_655 S
Zn470  O507    1.947   .     S
Zn470  O532    1.931   .     S
Zn470  O527    1.931   .     S
Zn470  O503    1.942   .     S
Zn471  O522    1.930   .     S
Zn471  O1422   1.945   .     S
Zn471  O529    1.930   .     S
Zn471  O510    1.946   .     S
Zn472  O509    1.946   .     S
Zn472  O530    1.930   .     S
Zn472  O521    1.930   .     S
Zn472  O501    1.945   .     S
Zn473  O504    1.942   .     S
Zn473  O535    1.931   .     S
Zn473  O512    1.946   .     S
Zn473  O524    1.931   .     S
Zn474  O536    1.931   .     S
Zn474  O511    1.946   .     S
Zn474  O523    1.931   .     S
Zn474  O43     1.942   1_655 S
Zn475  O526    1.930   .     S
Zn475  O533    1.930   .     S
Zn475  O506    1.947   .     S
Zn475  O502    1.944   .     S
Zn476  O505    1.947   .     S
Zn476  O525    1.930   .     S
Zn476  O534    1.930   .     S
Zn476  O1421   1.944   .     S
C477   C493    1.406   .     A
C477   C629    1.415   .     A
C477   C857    1.518   .     S
C478   C630    1.415   .     A
C478   C861    1.518   .     S
C479   C495    1.406   .     A
C479   C865    1.519   .     S
C479   C631    1.416   .     A
C480   C632    1.416   .     A
C480   C869    1.519   .     S
C480   C1416   1.406   .     S
C481   C625    1.415   .     A
C481   C873    1.518   .     S
C481   C33     1.406   1_655 S
C482   C626    1.415   .     A
C482   C494    1.406   .     A
C482   C877    1.518   .     S
C483   C627    1.416   .     A
C483   C881    1.519   .     S
C483   C1415   1.406   1_545 S
C484   C885    1.519   .     S
C484   C496    1.406   .     A
C484   C628    1.416   .     A
C485   C637    1.422   .     A
C485   C889    1.520   .     S
C485   C497    1.412   .     A
C486   C893    1.517   .     S
C486   C638    1.414   .     A
C486   C1418   1.403   .     S
C487   C639    1.416   .     A
C487   C897    1.519   .     S
C487   C39     1.406   1_655 S
C488   C500    1.405   .     A
C488   C640    1.416   .     A
C488   C901    1.519   .     S
C489   C905    1.520   .     S
C489   C633    1.416   .     A
C489   C1417   1.406   .     S
C490   C498    1.409   .     A
C490   C634    1.421   .     A
C490   C909    1.519   .     S
C491   C913    1.519   .     S
C491   C499    1.406   .     A
C491   C635    1.416   .     A
C492   C636    1.416   .     A
C492   C917    1.519   .     S
C492   C40     1.405   1_655 S
C493   C571    1.458   .     S
C494   C572    1.457   .     S
C494   C18     1.406   1_655 S
C495   C569    1.457   .     S
C495   C1403   1.406   .     S
C496   C570    1.457   .     S
C496   C1400   1.406   1_545 S
C497   C575    1.470   .     S
C497   C1409   1.406   1_545 S
C498   C1406   1.403   1_545 S
C498   C1496   1.461   1_545 S
C499   C573    1.458   .     S
C500   C574    1.456   .     S
O501   Zn1396  1.944   1_545 S
O502   Zn1391  1.945   1_545 S
O505   C569    1.276   .     A
O506   C570    1.275   .     A
O507   C571    1.274   .     A
O508   C572    1.274   .     A
O509   C1489   1.276   1_545 S
O510   C1490   1.275   .     S
O511   C111    1.274   1_655 S
O513   C573    1.276   .     S
O514   C574    1.275   .     A
O515   C575    1.277   .     A
O516   C1496   1.273   1_545 S
O517   C573    1.276   .     S
O518   C574    1.275   .     S
O519   C575    1.278   .     A
O520   C1496   1.277   1_545 S
O521   C577    1.277   .     A
O522   C578    1.277   .     A
O523   C579    1.276   .     A
O524   C580    1.275   .     A
O525   C581    1.277   .     A
O526   C582    1.276   .     A
O527   C583    1.276   .     A
O528   C584    1.275   .     A
O529   C585    1.277   .     A
O530   C586    1.277   .     A
O531   C587    1.276   .     A
O532   C588    1.275   .     A
O533   C589    1.277   .     A
O534   C590    1.276   .     A
O535   C591    1.276   .     A
O536   C592    1.276   .     A
O537   C587    1.277   .     A
O537   Zn4     1.930   1_655 S
O538   C588    1.277   .     A
O539   C585    1.276   .     A
O539   Zn1386  1.931   .     S
O540   C586    1.275   .     A
O541   C591    1.277   .     A
O542   C592    1.277   .     A
O542   Zn7     1.930   1_655 S
O543   C589    1.275   .     A
O544   C590    1.276   .     A
O544   Zn1381  1.931   .     S
O545   Zn3     1.930   1_655 S
O545   C579    1.277   .     A
O546   C580    1.277   .     A
O547   C577    1.275   .     A
O548   C578    1.276   .     A
O548   Zn1382  1.931   .     S
O549   C583    1.276   .     A
O550   C584    1.276   .     A
O550   Zn8     1.930   1_655 S
O551   C581    1.275   .     A
O551   Zn1385  1.931   .     S
O552   C582    1.275   .     A
C553   C665    1.518   .     S
C554   C669    1.518   .     S
C555   C673    1.518   .     S
C555   C1480   1.405   .     S
C555   C1547   1.419   .     S
C556   C677    1.518   .     S
C556   C1479   1.405   .     S
C556   C1548   1.419   .     S
C557   C681    1.518   .     S
C557   C94     1.406   1_655 S
C557   C169    1.419   1_655 S
C558   C685    1.518   .     S
C558   C93     1.406   1_655 S
C558   C170    1.419   1_655 S
C559   C689    1.518   .     S
C559   C1476   1.405   1_545 S
C559   C1551   1.419   1_545 S
C560   C693    1.518   .     S
C560   C1475   1.405   1_545 S
C560   C1552   1.419   1_545 S
C561   C633    1.423   .     A
C561   C697    1.521   .     S
C561   C566    1.418   1_556 S
C562   C701    1.516   .     S
C562   C634    1.421   .     A
C562   C565    1.406   1_554 S
C563   C705    1.518   .     S
C563   C635    1.419   .     A
C563   C568    1.405   1_556 S
C564   C636    1.419   .     A
C564   C709    1.518   .     S
C564   C567    1.405   1_554 S
C565   C713    1.517   .     S
C565   C637    1.420   .     A
C565   C562    1.406   1_556 S
C566   C638    1.421   .     A
C566   C717    1.522   .     S
C566   C561    1.418   1_554 S
C567   C721    1.518   .     S
C567   C639    1.419   .     A
C567   C564    1.405   1_556 S
C568   C725    1.518   .     S
C568   C640    1.419   .     A
C568   C563    1.405   1_554 S
C569   O1429   1.276   .     S
C570   O1430   1.275   1_545 S
C572   O52     1.274   1_655 S
C576   C1418   1.461   .     S
C576   O1440   1.277   .     S
C576   O1436   1.273   .     S
C577   C643    1.453   .     S
C578   C644    1.452   .     S
C579   C645    1.453   .     S
C580   C646    1.452   .     S
C581   C647    1.453   .     S
C582   C648    1.452   .     S
C583   C641    1.455   .     S
C584   C642    1.452   .     S
C585   C651    1.454   .     S
C586   C652    1.453   .     S
C587   C653    1.453   .     S
C588   C654    1.452   .     S
C589   C655    1.453   .     S
C590   C656    1.450   .     S
C591   C649    1.453   .     S
C592   C650    1.452   .     S
C593   C656    1.417   .     A
C593   C729    1.522   .     S
C593   C608    1.410   .     A
C594   C733    1.521   .     S
C594   C607    1.410   .     A
C594   C655    1.415   .     A
C595   C606    1.410   .     A
C595   C654    1.415   .     A
C595   C737    1.521   .     S
C596   C741    1.521   .     S
C596   C605    1.410   .     A
C596   C653    1.415   .     A
C597   C604    1.410   .     A
C597   C652    1.414   .     A
C597   C745    1.523   .     S
C598   C603    1.409   .     A
C598   C651    1.414   .     A
C598   C749    1.522   .     S
C599   C602    1.410   .     A
C599   C650    1.415   .     A
C599   C753    1.521   .     S
C600   C601    1.410   .     A
C600   C649    1.415   .     A
C600   C757    1.521   .     S
C601   C761    1.523   .     S
C601   C648    1.413   .     A
C602   C647    1.413   .     A
C602   C765    1.523   .     S
C603   C769    1.522   .     S
C603   C646    1.414   .     A
C604   C645    1.415   .     A
C604   C773    1.521   .     S
C605   C644    1.413   .     A
C605   C777    1.523   .     S
C606   C643    1.414   .     A
C606   C781    1.523   .     S
C607   C785    1.524   .     S
C607   C642    1.414   .     A
C608   C789    1.523   .     S
C608   C641    1.412   .     A
C609   C624    1.410   .     A
C609   C793    1.522   .     S
C609   C642    1.415   .     A
C610   C623    1.410   .     A
C610   C641    1.412   .     A
C610   C797    1.522   .     S
C611   C644    1.414   .     A
C611   C801    1.521   .     S
C611   C622    1.410   .     A
C612   C621    1.410   .     A
C612   C643    1.415   .     A
C612   C805    1.521   .     S
C613   C809    1.524   .     S
C613   C620    1.410   .     A
C613   C646    1.414   .     A
C614   C619    1.410   .     A
C614   C813    1.523   .     S
C614   C645    1.414   .     A
C615   C618    1.410   .     A
C615   C817    1.521   .     S
C615   C648    1.414   .     A
C616   C647    1.415   .     A
C616   C821    1.521   .     S
C616   C617    1.410   .     A
C617   C650    1.413   .     A
C617   C825    1.523   .     S
C618   C829    1.523   .     S
C618   C649    1.413   .     A
C619   C652    1.414   .     A
C619   C833    1.522   .     S
C620   C651    1.415   .     A
C620   C837    1.521   .     S
C621   C841    1.523   .     S
C621   C654    1.413   .     A
C622   C653    1.413   .     A
C622   C845    1.523   .     S
C623   C656    1.416   .     A
C623   C849    1.522   .     S
C624   C655    1.414   .     A
C624   C853    1.522   .     S
C625   C93     1.419   1_655 S
C625   C197    1.419   1_655 S
C626   C94     1.419   1_655 S
C626   C198    1.420   1_655 S
C627   C1475   1.419   1_545 S
C627   C1579   1.420   1_545 S
C628   C1476   1.419   1_545 S
C628   C660    1.420   .     S
C629   C657    1.419   .     A
C630   C658    1.420   .     A
C631   C659    1.420   .     A
C631   C1479   1.419   .     S
C632   C1580   1.420   .     A
C632   C1480   1.419   .     S
C633   C1581   1.417   .     S
C634   C662    1.422   .     A
C635   C663    1.420   .     S
C636   C204    1.420   1_655 A
C637   C661    1.418   .     A
C638   C1582   1.417   .     S
C639   C203    1.420   1_655 A
C640   C664    1.420   .     S
C657   C658    1.409   .     A
C659   C1580   1.410   .     A
C659   C1547   1.420   .     S
C660   C1579   1.410   1_545 A
C660   C1552   1.420   1_545 A
C661   C1553   1.417   1_545 S
C661   C662    1.412   1_556 S
C662   C1558   1.417   1_545 S
C662   C661    1.412   1_554 S
C663   C664    1.410   1_556 S
C664   C663    1.410   1_554 S
C665   H667    1.111   .     S
C665   H666    1.108   .     S
H668   C205    1.110   1_655 S
C669   H670    1.108   .     S
C669   H671    1.111   .     S
H672   C209    1.110   1_655 S
C673   H674    1.108   .     S
C673   H676    1.111   .     S
C673   H1595   1.110   .     S
H675   C1593   1.110   1_545 S
C677   H678    1.111   .     S
C677   H679    1.108   .     S
C677   H1600   1.110   .     S
H680   C1597   1.110   1_545 S
C681   H682    1.108   .     S
C681   H683    1.111   .     S
C681   H224    1.110   1_655 S
C685   H687    1.111   .     S
C685   H686    1.108   .     S
C685   H228    1.110   1_655 S
C689   H690    1.108   .     S
C689   H692    1.111   .     S
C689   H1611   1.110   1_545 S
H691   C1609   1.110   .     S
C693   H694    1.108   .     S
C693   H696    1.111   .     S
C693   H1615   1.110   1_545 S
H695   C1613   1.110   .     S
C697   H700    1.105   .     S
C697   H699    1.108   .     S
C697   H698    1.110   .     S
C701   H703    1.111   .     S
C701   H702    1.108   .     S
C701   H704    1.110   .     S
C705   H706    1.111   .     S
C705   H708    1.110   .     S
C705   H707    1.108   .     S
C709   H710    1.111   .     S
C709   H712    1.110   .     S
C709   H711    1.108   .     S
C713   H715    1.111   .     S
C713   H714    1.109   .     S
C713   H716    1.110   .     S
C717   H720    1.110   .     S
C717   H718    1.105   .     S
C717   H719    1.107   .     S
C721   H723    1.110   .     S
C721   H724    1.111   .     S
C721   H722    1.108   .     S
C725   H727    1.110   .     S
C725   H726    1.108   .     S
C725   H728    1.111   .     S
C729   H730    1.107   .     S
C729   H732    1.110   .     S
C729   H731    1.110   .     S
C733   H736    1.111   .     S
C733   H735    1.111   .     S
C733   H734    1.107   .     S
C737   H738    1.107   .     S
C737   H739    1.110   .     S
C737   H740    1.110   .     S
C741   H744    1.110   .     S
C741   H743    1.110   .     S
C741   H742    1.107   .     S
C745   H747    1.111   .     S
C745   H746    1.110   .     S
C745   H748    1.105   .     S
C749   H750    1.109   .     S
C749   H752    1.111   .     S
C749   H751    1.105   .     S
C753   H754    1.107   .     S
C753   H756    1.110   .     S
C753   H755    1.110   .     S
C757   H758    1.107   .     S
C757   H759    1.110   .     S
C757   H760    1.110   .     S
C761   H764    1.105   .     S
C761   H762    1.110   .     S
C761   H763    1.111   .     S
C765   H766    1.110   .     S
C765   H767    1.105   .     S
C765   H768    1.111   .     S
C769   H771    1.110   .     S
C769   H772    1.110   .     S
C769   H770    1.107   .     S
C773   H774    1.107   .     S
C773   H775    1.110   .     S
C773   H776    1.110   .     S
C777   H779    1.111   .     S
C777   H780    1.105   .     S
C777   H778    1.110   .     S
C781   H782    1.110   .     S
C781   H784    1.111   .     S
C781   H783    1.105   .     S
C785   H787    1.105   .     S
C785   H786    1.111   .     S
C785   H788    1.110   .     S
C789   H791    1.110   .     S
C789   H790    1.111   .     S
C789   H792    1.105   .     S
C793   H794    1.107   .     S
C793   H795    1.111   .     S
C793   H796    1.111   .     S
C797   H798    1.109   .     S
C797   H800    1.111   .     S
C797   H799    1.105   .     S
C801   H804    1.110   .     S
C801   H803    1.110   .     S
C801   H802    1.107   .     S
C805   H808    1.110   .     S
C805   H807    1.110   .     S
C805   H806    1.107   .     S
C809   H812    1.105   .     S
C809   H810    1.110   .     S
C809   H811    1.111   .     S
C813   H815    1.105   .     S
C813   H814    1.109   .     S
C813   H816    1.111   .     S
C817   H818    1.107   .     S
C817   H820    1.110   .     S
C817   H819    1.110   .     S
C821   H824    1.110   .     S
C821   H823    1.110   .     S
C821   H822    1.107   .     S
C825   H828    1.105   .     S
C825   H826    1.110   .     S
C825   H827    1.111   .     S
C829   H832    1.111   .     S
C829   H830    1.109   .     S
C829   H831    1.105   .     S
C833   H836    1.110   .     S
C833   H835    1.110   .     S
C833   H834    1.107   .     S
C837   H840    1.110   .     S
C837   H839    1.110   .     S
C837   H838    1.107   .     S
C841   H842    1.110   .     S
C841   H843    1.111   .     S
C841   H844    1.105   .     S
C845   H847    1.105   .     S
C845   H846    1.109   .     S
C845   H848    1.111   .     S
C849   H852    1.110   .     S
C849   H851    1.110   .     S
C849   H850    1.107   .     S
C853   H854    1.111   .     S
C853   H856    1.105   .     S
C853   H855    1.109   .     S
C857   H859    1.111   .     S
C857   H858    1.109   .     S
C857   H860    1.106   .     S
C861   H862    1.109   .     S
C861   H864    1.106   .     S
C861   H863    1.111   .     S
C865   H866    1.109   .     S
C865   H868    1.110   .     S
C865   H867    1.106   .     S
C869   H870    1.109   .     S
C869   H872    1.110   .     S
C869   H871    1.106   .     S
C873   H875    1.111   .     S
C873   H874    1.109   .     S
C873   H876    1.106   .     S
C877   H879    1.111   .     S
C877   H878    1.109   .     S
C877   H880    1.106   .     S
C881   H884    1.110   .     S
C881   H882    1.109   .     S
C881   H883    1.106   .     S
C885   H887    1.106   .     S
C885   H886    1.109   .     S
C885   H888    1.110   .     S
C889   H890    1.108   .     S
C889   H892    1.104   .     S
C889   H891    1.110   .     S
C893   H895    1.110   .     S
C893   H896    1.109   .     S
C893   H894    1.111   .     S
C897   H899    1.106   .     S
C897   H898    1.109   .     S
C897   H900    1.110   .     S
C901   H904    1.110   .     S
C901   H903    1.106   .     S
C901   H902    1.109   .     S
C905   H906    1.111   .     S
C905   H908    1.108   .     S
C905   H907    1.108   .     S
C909   H911    1.109   .     S
C909   H910    1.110   .     S
C909   H912    1.107   .     S
C913   H916    1.109   .     S
C913   H915    1.110   .     S
C913   H914    1.106   .     S
C917   H918    1.106   .     S
C917   H920    1.109   .     S
C917   H919    1.110   .     S
Zn921  O1007   1.931   .     S
Zn921  O976    1.947   .     S
Zn921  O961    1.942   .     S
Zn922  O962    1.942   .     S
Zn922  O975    1.947   .     S
Zn922  O1003   1.931   .     S
Zn923  O1465   1.930   1_455 S
Zn923  O963    1.945   .     S
Zn923  O978    1.946   .     S
Zn923  O998    1.930   .     S
Zn924  O1006   1.930   .     S
Zn924  O964    1.945   .     S
Zn924  O977    1.946   .     S
Zn924  O1457   1.930   1_455 S
Zn925  O980    1.946   .     S
Zn925  O1000   1.931   .     S
Zn925  O961    1.942   .     S
Zn926  O962    1.942   .     S
Zn926  O979    1.946   .     S
Zn926  O1012   1.931   .     S
Zn927  O963    1.944   .     S
Zn927  O1009   1.930   .     S
Zn927  O974    1.947   .     S
Zn927  O1462   1.930   1_455 S
Zn928  O1001   1.930   .     S
Zn928  O973    1.947   .     S
Zn928  O964    1.944   .     S
Zn928  O1470   1.930   1_455 S
Zn929  O968    1.947   .     S
Zn929  O991    1.931   .     S
Zn929  O988    1.931   .     S
Zn929  O1424   1.942   .     S
Zn930  O967    1.947   .     S
Zn930  O992    1.931   .     S
Zn930  O987    1.931   .     S
Zn930  O963    1.942   .     S
Zn931  O982    1.930   .     S
Zn931  O42     1.945   1_565 S
Zn931  O989    1.930   .     S
Zn931  O970    1.946   .     S
Zn932  O969    1.946   .     S
Zn932  O990    1.930   .     S
Zn932  O981    1.930   .     S
Zn932  O961    1.945   .     S
Zn933  O964    1.942   .     S
Zn933  O995    1.931   .     S
Zn933  O972    1.946   .     S
Zn933  O984    1.931   .     S
Zn934  O996    1.931   .     S
Zn934  O971    1.946   .     S
Zn934  O983    1.931   .     S
Zn934  O1423   1.942   .     S
Zn935  O986    1.930   .     S
Zn935  O993    1.930   .     S
Zn935  O966    1.947   .     S
Zn935  O962    1.944   .     S
Zn936  O965    1.947   .     S
Zn936  O985    1.930   .     S
Zn936  O994    1.930   .     S
Zn936  O41     1.944   1_565 S
C937   C953    1.406   .     A
C937   C1089   1.415   .     A
C937   C1317   1.518   .     S
C938   C1090   1.415   .     A
C938   C1321   1.518   .     S
C938   C1414   1.406   1_455 S
C939   C955    1.406   .     A
C939   C1325   1.519   .     S
C939   C1091   1.416   .     A
C940   C1092   1.416   .     A
C940   C1329   1.519   .     S
C940   C36     1.406   1_565 S
C941   C1085   1.415   .     A
C941   C1333   1.518   .     S
C941   C1413   1.406   .     S
C942   C1086   1.415   .     A
C942   C954    1.406   .     A
C942   C1337   1.518   .     S
C943   C1087   1.416   .     A
C943   C1341   1.519   .     S
C944   C1345   1.519   .     S
C944   C956    1.406   .     A
C944   C1088   1.416   .     A
C945   C1097   1.422   .     A
C945   C1349   1.520   .     S
C945   C957    1.412   .     A
C946   C1353   1.517   .     S
C946   C1098   1.414   .     A
C946   C38     1.403   1_565 S
C947   C1099   1.416   .     A
C947   C1357   1.519   .     S
C947   C1419   1.406   .     S
C948   C960    1.405   .     A
C948   C1100   1.416   .     A
C948   C1361   1.519   .     S
C949   C1365   1.520   .     S
C949   C1093   1.416   .     A
C949   C37     1.406   1_565 S
C950   C958    1.409   .     A
C950   C1094   1.421   .     A
C950   C1369   1.519   .     S
C951   C1373   1.519   .     S
C951   C959    1.406   .     A
C951   C1095   1.416   .     A
C952   C1096   1.416   .     A
C952   C1377   1.519   .     S
C952   C1420   1.405   .     S
C953   C1031   1.458   .     S
C953   C1401   1.406   1_455 S
C954   C1032   1.457   .     S
C954   C1398   1.406   .     S
C955   C1029   1.457   .     S
C955   C23     1.406   1_565 S
C956   C1030   1.457   .     S
C957   C1035   1.470   .     S
C959   C1407   1.406   1_455 S
C959   C1033   1.458   .     S
C960   C1412   1.405   1_455 S
C960   C1034   1.456   .     S
O963   Zn1394  1.942   1_455 S
O964   Zn1389  1.942   1_455 S
O965   C1029   1.276   .     A
O966   C1030   1.275   .     A
O967   C1031   1.274   .     A
O968   C1032   1.274   .     A
O970   C110    1.275   1_565 S
O971   C1491   1.274   .     S
O972   C1492   1.274   1_455 S
O973   C1033   1.276   .     S
O974   C1034   1.275   .     A
O975   C1035   1.277   .     A
O977   C1033   1.276   .     S
O978   C1034   1.275   .     S
O979   C1035   1.278   .     A
O981   C1037   1.277   .     A
O982   C1038   1.277   .     A
O983   C1039   1.276   .     A
O984   C1040   1.275   .     A
O985   C1041   1.277   .     A
O986   C1042   1.276   .     A
O987   C1043   1.276   .     A
O988   C1044   1.275   .     A
O989   C1045   1.277   .     A
O990   C1046   1.277   .     A
O991   C1047   1.276   .     A
O992   C1048   1.275   .     A
O993   C1049   1.277   .     A
O994   C1050   1.276   .     A
O995   C1051   1.276   .     A
O996   C1052   1.276   .     A
O997   C1047   1.277   .     A
O997   Zn1384  1.930   .     S
O998   C1048   1.277   .     A
O999   C1045   1.276   .     A
O999   Zn6     1.931   1_565 S
O1000  C1046   1.275   .     A
O1001  C1051   1.277   .     A
O1002  C1052   1.277   .     A
O1002  Zn1387  1.930   .     S
O1003  C1049   1.275   .     A
O1004  C1050   1.276   .     A
O1004  Zn1     1.931   1_565 S
O1005  Zn1383  1.930   .     S
O1005  C1039   1.277   .     A
O1006  C1040   1.277   .     A
O1007  C1037   1.275   .     A
O1008  C1038   1.276   .     A
O1008  Zn2     1.931   1_565 S
O1009  C1043   1.276   .     A
O1010  C1044   1.276   .     A
O1010  Zn1388  1.930   .     S
O1011  C1041   1.275   .     A
O1011  Zn5     1.931   1_565 S
O1012  C1042   1.275   .     A
C1013  C1125   1.518   .     S
C1013  C1478   1.406   1_455 S
C1013  C1545   1.419   1_455 S
C1014  C1129   1.518   .     S
C1014  C1477   1.406   1_455 S
C1014  C1546   1.419   1_455 S
C1015  C1133   1.518   .     S
C1015  C100    1.405   1_565 S
C1015  C167    1.419   1_565 S
C1016  C1137   1.518   .     S
C1016  C99     1.405   1_565 S
C1016  C168    1.419   1_565 S
C1017  C1141   1.518   .     S
C1017  C1474   1.406   .     S
C1017  C1549   1.419   .     S
C1018  C1145   1.518   .     S
C1018  C1473   1.406   .     S
C1018  C1550   1.419   .     S
C1019  C1149   1.518   .     S
C1020  C1153   1.518   .     S
C1021  C1093   1.423   .     A
C1021  C1157   1.521   .     S
C1021  C1026   1.418   1_556 S
C1022  C1161   1.516   .     S
C1022  C1094   1.421   .     A
C1022  C1025   1.406   1_554 S
C1023  C1165   1.518   .     S
C1023  C1095   1.419   .     A
C1023  C1028   1.405   1_556 S
C1024  C1096   1.419   .     A
C1024  C1169   1.518   .     S
C1024  C1027   1.405   1_554 S
C1025  C1173   1.517   .     S
C1025  C1097   1.420   .     A
C1025  C1022   1.406   1_556 S
C1026  C1098   1.421   .     A
C1026  C1177   1.522   .     S
C1026  C1021   1.418   1_554 S
C1027  C1181   1.518   .     S
C1027  C1099   1.419   .     A
C1027  C1024   1.405   1_556 S
C1028  C1185   1.518   .     S
C1028  C1100   1.419   .     A
C1028  C1023   1.405   1_554 S
C1029  O49     1.276   1_565 S
C1031  O1431   1.274   1_455 S
C1032  O1432   1.274   .     S
C1036  C38     1.461   1_565 S
C1036  O60     1.277   1_565 S
C1036  O56     1.273   1_565 S
C1037  C1103   1.453   .     S
C1038  C1104   1.452   .     S
C1039  C1105   1.453   .     S
C1040  C1106   1.452   .     S
C1041  C1107   1.453   .     S
C1042  C1108   1.452   .     S
C1043  C1101   1.455   .     S
C1044  C1102   1.452   .     S
C1045  C1111   1.454   .     S
C1046  C1112   1.453   .     S
C1047  C1113   1.453   .     S
C1048  C1114   1.452   .     S
C1049  C1115   1.453   .     S
C1050  C1116   1.450   .     S
C1051  C1109   1.453   .     S
C1052  C1110   1.452   .     S
C1053  C1116   1.417   .     A
C1053  C1189   1.522   .     S
C1053  C1068   1.410   .     A
C1054  C1193   1.521   .     S
C1054  C1067   1.410   .     A
C1054  C1115   1.415   .     A
C1055  C1066   1.410   .     A
C1055  C1114   1.415   .     A
C1055  C1197   1.521   .     S
C1056  C1201   1.521   .     S
C1056  C1065   1.410   .     A
C1056  C1113   1.415   .     A
C1057  C1064   1.410   .     A
C1057  C1112   1.414   .     A
C1057  C1205   1.523   .     S
C1058  C1063   1.409   .     A
C1058  C1111   1.414   .     A
C1058  C1209   1.522   .     S
C1059  C1062   1.410   .     A
C1059  C1110   1.415   .     A
C1059  C1213   1.521   .     S
C1060  C1061   1.410   .     A
C1060  C1109   1.415   .     A
C1060  C1217   1.521   .     S
C1061  C1221   1.523   .     S
C1061  C1108   1.413   .     A
C1062  C1107   1.413   .     A
C1062  C1225   1.523   .     S
C1063  C1229   1.522   .     S
C1063  C1106   1.414   .     A
C1064  C1105   1.415   .     A
C1064  C1233   1.521   .     S
C1065  C1104   1.413   .     A
C1065  C1237   1.523   .     S
C1066  C1103   1.414   .     A
C1066  C1241   1.523   .     S
C1067  C1245   1.524   .     S
C1067  C1102   1.414   .     A
C1068  C1249   1.523   .     S
C1068  C1101   1.412   .     A
C1069  C1084   1.410   .     A
C1069  C1253   1.522   .     S
C1069  C1102   1.415   .     A
C1070  C1083   1.410   .     A
C1070  C1101   1.412   .     A
C1070  C1257   1.522   .     S
C1071  C1104   1.414   .     A
C1071  C1261   1.521   .     S
C1071  C1082   1.410   .     A
C1072  C1081   1.410   .     A
C1072  C1103   1.415   .     A
C1072  C1265   1.521   .     S
C1073  C1269   1.524   .     S
C1073  C1080   1.410   .     A
C1073  C1106   1.414   .     A
C1074  C1079   1.410   .     A
C1074  C1273   1.523   .     S
C1074  C1105   1.414   .     A
C1075  C1078   1.410   .     A
C1075  C1277   1.521   .     S
C1075  C1108   1.414   .     A
C1076  C1107   1.415   .     A
C1076  C1281   1.521   .     S
C1076  C1077   1.410   .     A
C1077  C1110   1.413   .     A
C1077  C1285   1.523   .     S
C1078  C1289   1.523   .     S
C1078  C1109   1.413   .     A
C1079  C1112   1.414   .     A
C1079  C1293   1.522   .     S
C1080  C1111   1.415   .     A
C1080  C1297   1.521   .     S
C1081  C1301   1.523   .     S
C1081  C1114   1.413   .     A
C1082  C1113   1.413   .     A
C1082  C1305   1.523   .     S
C1083  C1116   1.416   .     A
C1083  C1309   1.522   .     S
C1084  C1115   1.414   .     A
C1084  C1313   1.522   .     S
C1085  C1473   1.419   .     S
C1085  C1577   1.419   .     S
C1086  C1474   1.419   .     S
C1086  C1578   1.420   .     S
C1088  C1120   1.420   .     S
C1089  C1117   1.419   .     A
C1089  C1477   1.419   1_455 S
C1090  C1118   1.420   .     A
C1090  C1478   1.419   1_455 S
C1091  C1119   1.420   .     A
C1091  C99     1.419   1_565 S
C1092  C200    1.420   1_565 A
C1092  C100    1.419   1_565 S
C1093  C201    1.417   1_565 S
C1094  C1122   1.422   .     A
C1095  C1123   1.420   .     S
C1096  C1584   1.420   .     A
C1097  C1121   1.418   .     A
C1098  C202    1.417   1_565 S
C1099  C1583   1.420   .     A
C1100  C1124   1.420   .     S
C1117  C1118   1.409   .     A
C1117  C1545   1.419   1_455 S
C1118  C1546   1.420   1_455 S
C1119  C200    1.410   1_565 A
C1119  C167    1.420   1_565 S
C1121  C1122   1.412   1_556 S
C1122  C1121   1.412   1_554 S
C1123  C1559   1.420   1_455 A
C1123  C1124   1.410   1_556 S
C1124  C1556   1.420   1_455 A
C1124  C1123   1.410   1_554 S
C1125  H1127   1.111   .     S
C1125  H1126   1.108   .     S
C1125  H1588   1.110   1_455 S
H1128  C1585   1.110   .     S
C1129  H1130   1.108   .     S
C1129  H1131   1.111   .     S
C1129  H1592   1.110   1_455 S
H1132  C1589   1.110   .     S
C1133  H1134   1.108   .     S
C1133  H1136   1.111   .     S
C1133  H215    1.110   1_565 S
C1137  H1138   1.111   .     S
C1137  H1139   1.108   .     S
C1137  H220    1.110   1_565 S
C1141  H1142   1.108   .     S
C1141  H1143   1.111   .     S
C1141  H1604   1.110   .     S
H1144  C1601   1.110   1_455 S
C1145  H1147   1.111   .     S
C1145  H1146   1.108   .     S
C1145  H1608   1.110   .     S
H1148  C1605   1.110   1_455 S
C1149  H1150   1.108   .     S
C1149  H1152   1.111   .     S
H1151  C229    1.110   1_565 S
C1153  H1154   1.108   .     S
C1153  H1156   1.111   .     S
H1155  C233    1.110   1_565 S
C1157  H1160   1.105   .     S
C1157  H1159   1.108   .     S
C1157  H1158   1.110   .     S
C1161  H1163   1.111   .     S
C1161  H1162   1.108   .     S
C1161  H1164   1.110   .     S
C1165  H1166   1.111   .     S
C1165  H1168   1.110   .     S
C1165  H1167   1.108   .     S
C1169  H1170   1.111   .     S
C1169  H1172   1.110   .     S
C1169  H1171   1.108   .     S
C1173  H1175   1.111   .     S
C1173  H1174   1.109   .     S
C1173  H1176   1.110   .     S
C1177  H1180   1.110   .     S
C1177  H1178   1.105   .     S
C1177  H1179   1.107   .     S
C1181  H1183   1.110   .     S
C1181  H1184   1.111   .     S
C1181  H1182   1.108   .     S
C1185  H1187   1.110   .     S
C1185  H1186   1.108   .     S
C1185  H1188   1.111   .     S
C1189  H1190   1.107   .     S
C1189  H1192   1.110   .     S
C1189  H1191   1.110   .     S
C1193  H1196   1.111   .     S
C1193  H1195   1.111   .     S
C1193  H1194   1.107   .     S
C1197  H1198   1.107   .     S
C1197  H1199   1.110   .     S
C1197  H1200   1.110   .     S
C1201  H1204   1.110   .     S
C1201  H1203   1.110   .     S
C1201  H1202   1.107   .     S
C1205  H1207   1.111   .     S
C1205  H1206   1.110   .     S
C1205  H1208   1.105   .     S
C1209  H1210   1.109   .     S
C1209  H1212   1.111   .     S
C1209  H1211   1.105   .     S
C1213  H1214   1.107   .     S
C1213  H1216   1.110   .     S
C1213  H1215   1.110   .     S
C1217  H1218   1.107   .     S
C1217  H1219   1.110   .     S
C1217  H1220   1.110   .     S
C1221  H1224   1.105   .     S
C1221  H1222   1.110   .     S
C1221  H1223   1.111   .     S
C1225  H1226   1.110   .     S
C1225  H1227   1.105   .     S
C1225  H1228   1.111   .     S
C1229  H1231   1.110   .     S
C1229  H1232   1.110   .     S
C1229  H1230   1.107   .     S
C1233  H1234   1.107   .     S
C1233  H1235   1.110   .     S
C1233  H1236   1.110   .     S
C1237  H1239   1.111   .     S
C1237  H1240   1.105   .     S
C1237  H1238   1.110   .     S
C1241  H1242   1.110   .     S
C1241  H1244   1.111   .     S
C1241  H1243   1.105   .     S
C1245  H1247   1.105   .     S
C1245  H1246   1.111   .     S
C1245  H1248   1.110   .     S
C1249  H1251   1.110   .     S
C1249  H1250   1.111   .     S
C1249  H1252   1.105   .     S
C1253  H1254   1.107   .     S
C1253  H1255   1.111   .     S
C1253  H1256   1.111   .     S
C1257  H1258   1.109   .     S
C1257  H1260   1.111   .     S
C1257  H1259   1.105   .     S
C1261  H1264   1.110   .     S
C1261  H1263   1.110   .     S
C1261  H1262   1.107   .     S
C1265  H1268   1.110   .     S
C1265  H1267   1.110   .     S
C1265  H1266   1.107   .     S
C1269  H1272   1.105   .     S
C1269  H1270   1.110   .     S
C1269  H1271   1.111   .     S
C1273  H1275   1.105   .     S
C1273  H1274   1.109   .     S
C1273  H1276   1.111   .     S
C1277  H1278   1.107   .     S
C1277  H1280   1.110   .     S
C1277  H1279   1.110   .     S
C1281  H1284   1.110   .     S
C1281  H1283   1.110   .     S
C1281  H1282   1.107   .     S
C1285  H1288   1.105   .     S
C1285  H1286   1.110   .     S
C1285  H1287   1.111   .     S
C1289  H1292   1.111   .     S
C1289  H1290   1.109   .     S
C1289  H1291   1.105   .     S
C1293  H1296   1.110   .     S
C1293  H1295   1.110   .     S
C1293  H1294   1.107   .     S
C1297  H1300   1.110   .     S
C1297  H1299   1.110   .     S
C1297  H1298   1.107   .     S
C1301  H1302   1.110   .     S
C1301  H1303   1.111   .     S
C1301  H1304   1.105   .     S
C1305  H1307   1.105   .     S
C1305  H1306   1.109   .     S
C1305  H1308   1.111   .     S
C1309  H1312   1.110   .     S
C1309  H1311   1.110   .     S
C1309  H1310   1.107   .     S
C1313  H1314   1.111   .     S
C1313  H1316   1.105   .     S
C1313  H1315   1.109   .     S
C1317  H1319   1.111   .     S
C1317  H1318   1.109   .     S
C1317  H1320   1.106   .     S
C1321  H1322   1.109   .     S
C1321  H1324   1.106   .     S
C1321  H1323   1.111   .     S
C1325  H1326   1.109   .     S
C1325  H1328   1.110   .     S
C1325  H1327   1.106   .     S
C1329  H1330   1.109   .     S
C1329  H1332   1.110   .     S
C1329  H1331   1.106   .     S
C1333  H1335   1.111   .     S
C1333  H1334   1.109   .     S
C1333  H1336   1.106   .     S
C1337  H1339   1.111   .     S
C1337  H1338   1.109   .     S
C1337  H1340   1.106   .     S
C1341  H1344   1.110   .     S
C1341  H1342   1.109   .     S
C1341  H1343   1.106   .     S
C1345  H1347   1.106   .     S
C1345  H1346   1.109   .     S
C1345  H1348   1.110   .     S
C1349  H1350   1.108   .     S
C1349  H1352   1.104   .     S
C1349  H1351   1.110   .     S
C1353  H1355   1.110   .     S
C1353  H1356   1.109   .     S
C1353  H1354   1.111   .     S
C1357  H1359   1.106   .     S
C1357  H1358   1.109   .     S
C1357  H1360   1.110   .     S
C1361  H1364   1.110   .     S
C1361  H1363   1.106   .     S
C1361  H1362   1.109   .     S
C1365  H1366   1.111   .     S
C1365  H1368   1.108   .     S
C1365  H1367   1.108   .     S
C1369  H1371   1.109   .     S
C1369  H1370   1.110   .     S
C1369  H1372   1.107   .     S
C1373  H1376   1.109   .     S
C1373  H1375   1.110   .     S
C1373  H1374   1.106   .     S
C1377  H1378   1.106   .     S
C1377  H1380   1.109   .     S
C1377  H1379   1.110   .     S
Zn1381 O1467   1.931   .     S
Zn1381 O1436   1.947   .     S
Zn1381 O1421   1.942   .     S
Zn1382 O1422   1.942   .     S
Zn1382 O1435   1.947   .     S
Zn1382 O1463   1.931   .     S
Zn1383 O1423   1.945   .     S
Zn1383 O1438   1.946   .     S
Zn1383 O1458   1.930   .     S
Zn1384 O1466   1.930   .     S
Zn1384 O1424   1.945   .     S
Zn1384 O1437   1.946   .     S
Zn1385 O1440   1.946   .     S
Zn1385 O1460   1.931   .     S
Zn1385 O1421   1.942   .     S
Zn1386 O1422   1.942   .     S
Zn1386 O1439   1.946   .     S
Zn1386 O1472   1.931   .     S
Zn1387 O1423   1.944   .     S
Zn1387 O1469   1.930   .     S
Zn1387 O1434   1.947   .     S
Zn1388 O1461   1.930   .     S
Zn1388 O1433   1.947   .     S
Zn1388 O1424   1.944   .     S
Zn1389 O1428   1.947   .     S
Zn1389 O1451   1.931   .     S
Zn1389 O1448   1.931   .     S
Zn1389 O964    1.942   1_655 S
Zn1390 O1427   1.947   .     S
Zn1390 O1452   1.931   .     S
Zn1390 O1447   1.931   .     S
Zn1390 O1423   1.942   .     S
Zn1391 O1442   1.930   .     S
Zn1391 O502    1.945   1_565 S
Zn1391 O1449   1.930   .     S
Zn1391 O1430   1.946   .     S
Zn1392 O1429   1.946   .     S
Zn1392 O1450   1.930   .     S
Zn1392 O1441   1.930   .     S
Zn1392 O1421   1.945   .     S
Zn1393 O1424   1.942   .     S
Zn1393 O1455   1.931   .     S
Zn1393 O1432   1.946   .     S
Zn1393 O1444   1.931   .     S
Zn1394 O1456   1.931   .     S
Zn1394 O1431   1.946   .     S
Zn1394 O1443   1.931   .     S
Zn1394 O963    1.942   1_655 S
Zn1395 O1446   1.930   .     S
Zn1395 O1453   1.930   .     S
Zn1395 O1426   1.947   .     S
Zn1395 O1422   1.944   .     S
Zn1396 O1425   1.947   .     S
Zn1396 O1445   1.930   .     S
Zn1396 O1454   1.930   .     S
Zn1396 O501    1.944   1_565 S
C1397  C1413   1.406   .     A
C1397  C1549   1.415   .     A
C1397  C1777   1.518   .     S
C1398  C1550   1.415   .     A
C1398  C1781   1.518   .     S
C1399  C1415   1.406   .     A
C1399  C1785   1.519   .     S
C1399  C1551   1.416   .     A
C1400  C1552   1.416   .     A
C1400  C1789   1.519   .     S
C1400  C496    1.406   1_565 S
C1401  C1545   1.415   .     A
C1401  C1793   1.518   .     S
C1401  C953    1.406   1_655 S
C1402  C1546   1.415   .     A
C1402  C1414   1.406   .     A
C1402  C1797   1.518   .     S
C1403  C1547   1.416   .     A
C1403  C1801   1.519   .     S
C1404  C1805   1.519   .     S
C1404  C1416   1.406   .     A
C1404  C1548   1.416   .     A
C1405  C1557   1.422   .     A
C1405  C1809   1.520   .     S
C1405  C1417   1.412   .     A
C1406  C1813   1.517   .     S
C1406  C1558   1.414   .     A
C1406  C498    1.403   1_565 S
C1407  C1559   1.416   .     A
C1407  C1817   1.519   .     S
C1407  C959    1.406   1_655 S
C1408  C1420   1.405   .     A
C1408  C1560   1.416   .     A
C1408  C1821   1.519   .     S
C1409  C1825   1.520   .     S
C1409  C1553   1.416   .     A
C1409  C497    1.406   1_565 S
C1410  C1418   1.409   .     A
C1410  C1554   1.421   .     A
C1410  C1829   1.519   .     S
C1411  C1833   1.519   .     S
C1411  C1419   1.406   .     A
C1411  C1555   1.416   .     A
C1412  C1556   1.416   .     A
C1412  C1837   1.519   .     S
C1412  C960    1.405   1_655 S
C1413  C1491   1.458   .     S
C1414  C1492   1.457   .     S
C1414  C938    1.406   1_655 S
C1415  C1489   1.457   .     S
C1415  C483    1.406   1_565 S
C1416  C1490   1.457   .     S
C1417  C1495   1.470   .     S
C1419  C1493   1.458   .     S
C1420  C1494   1.456   .     S
O1425  C1489   1.276   .     A
O1426  C1490   1.275   .     A
O1427  C1491   1.274   .     A
O1428  C1492   1.274   .     A
O1430  C570    1.275   1_565 S
O1431  C1031   1.274   1_655 S
O1433  C1493   1.276   .     S
O1434  C1494   1.275   .     A
O1435  C1495   1.277   .     A
O1437  C1493   1.276   .     S
O1438  C1494   1.275   .     S
O1439  C1495   1.278   .     A
O1441  C1497   1.277   .     A
O1442  C1498   1.277   .     A
O1443  C1499   1.276   .     A
O1444  C1500   1.275   .     A
O1445  C1501   1.277   .     A
O1446  C1502   1.276   .     A
O1447  C1503   1.276   .     A
O1448  C1504   1.275   .     A
O1449  C1505   1.277   .     A
O1450  C1506   1.277   .     A
O1451  C1507   1.276   .     A
O1452  C1508   1.275   .     A
O1453  C1509   1.277   .     A
O1454  C1510   1.276   .     A
O1455  C1511   1.276   .     A
O1456  C1512   1.276   .     A
O1457  C1507   1.277   .     A
O1457  Zn924   1.930   1_655 S
O1458  C1508   1.277   .     A
O1459  C1505   1.276   .     A
O1459  Zn466   1.931   1_565 S
O1460  C1506   1.275   .     A
O1461  C1511   1.277   .     A
O1462  C1512   1.277   .     A
O1462  Zn927   1.930   1_655 S
O1463  C1509   1.275   .     A
O1464  C1510   1.276   .     A
O1464  Zn461   1.931   1_565 S
O1465  Zn923   1.930   1_655 S
O1465  C1499   1.277   .     A
O1466  C1500   1.277   .     A
O1467  C1497   1.275   .     A
O1468  C1498   1.276   .     A
O1468  Zn462   1.931   1_565 S
O1469  C1503   1.276   .     A
O1470  C1504   1.276   .     A
O1470  Zn928   1.930   1_655 S
O1471  C1501   1.275   .     A
O1471  Zn465   1.931   1_565 S
O1472  C1502   1.275   .     A
C1473  C1585   1.518   .     S
C1474  C1589   1.518   .     S
C1475  C1593   1.518   .     S
C1475  C560    1.405   1_565 S
C1475  C627    1.419   1_565 S
C1476  C1597   1.518   .     S
C1476  C559    1.405   1_565 S
C1476  C628    1.419   1_565 S
C1477  C1601   1.518   .     S
C1477  C1014   1.406   1_655 S
C1477  C1089   1.419   1_655 S
C1478  C1605   1.518   .     S
C1478  C1013   1.406   1_655 S
C1478  C1090   1.419   1_655 S
C1479  C1609   1.518   .     S
C1480  C1613   1.518   .     S
C1481  C1553   1.423   .     A
C1481  C1617   1.521   .     S
C1481  C1486   1.418   1_556 S
C1482  C1621   1.516   .     S
C1482  C1554   1.421   .     A
C1482  C1485   1.406   1_554 S
C1483  C1625   1.518   .     S
C1483  C1555   1.419   .     A
C1483  C1488   1.405   1_556 S
C1484  C1556   1.419   .     A
C1484  C1629   1.518   .     S
C1484  C1487   1.405   1_554 S
C1485  C1633   1.517   .     S
C1485  C1557   1.420   .     A
C1485  C1482   1.406   1_556 S
C1486  C1558   1.421   .     A
C1486  C1637   1.522   .     S
C1486  C1481   1.418   1_554 S
C1487  C1641   1.518   .     S
C1487  C1559   1.419   .     A
C1487  C1484   1.405   1_556 S
C1488  C1645   1.518   .     S
C1488  C1560   1.419   .     A
C1488  C1483   1.405   1_554 S
C1489  O509    1.276   1_565 S
C1492  O972    1.274   1_655 S
C1496  C498    1.461   1_565 S
C1496  O520    1.277   1_565 S
C1496  O516    1.273   1_565 S
C1497  C1563   1.453   .     S
C1498  C1564   1.452   .     S
C1499  C1565   1.453   .     S
C1500  C1566   1.452   .     S
C1501  C1567   1.453   .     S
C1502  C1568   1.452   .     S
C1503  C1561   1.455   .     S
C1504  C1562   1.452   .     S
C1505  C1571   1.454   .     S
C1506  C1572   1.453   .     S
C1507  C1573   1.453   .     S
C1508  C1574   1.452   .     S
C1509  C1575   1.453   .     S
C1510  C1576   1.450   .     S
C1511  C1569   1.453   .     S
C1512  C1570   1.452   .     S
C1513  C1576   1.417   .     A
C1513  C1649   1.522   .     S
C1513  C1528   1.410   .     A
C1514  C1653   1.521   .     S
C1514  C1527   1.410   .     A
C1514  C1575   1.415   .     A
C1515  C1526   1.410   .     A
C1515  C1574   1.415   .     A
C1515  C1657   1.521   .     S
C1516  C1661   1.521   .     S
C1516  C1525   1.410   .     A
C1516  C1573   1.415   .     A
C1517  C1524   1.410   .     A
C1517  C1572   1.414   .     A
C1517  C1665   1.523   .     S
C1518  C1523   1.409   .     A
C1518  C1571   1.414   .     A
C1518  C1669   1.522   .     S
C1519  C1522   1.410   .     A
C1519  C1570   1.415   .     A
C1519  C1673   1.521   .     S
C1520  C1521   1.410   .     A
C1520  C1569   1.415   .     A
C1520  C1677   1.521   .     S
C1521  C1681   1.523   .     S
C1521  C1568   1.413   .     A
C1522  C1567   1.413   .     A
C1522  C1685   1.523   .     S
C1523  C1689   1.522   .     S
C1523  C1566   1.414   .     A
C1524  C1565   1.415   .     A
C1524  C1693   1.521   .     S
C1525  C1564   1.413   .     A
C1525  C1697   1.523   .     S
C1526  C1563   1.414   .     A
C1526  C1701   1.523   .     S
C1527  C1705   1.524   .     S
C1527  C1562   1.414   .     A
C1528  C1709   1.523   .     S
C1528  C1561   1.412   .     A
C1529  C1544   1.410   .     A
C1529  C1713   1.522   .     S
C1529  C1562   1.415   .     A
C1530  C1543   1.410   .     A
C1530  C1561   1.412   .     A
C1530  C1717   1.522   .     S
C1531  C1564   1.414   .     A
C1531  C1721   1.521   .     S
C1531  C1542   1.410   .     A
C1532  C1541   1.410   .     A
C1532  C1563   1.415   .     A
C1532  C1725   1.521   .     S
C1533  C1729   1.524   .     S
C1533  C1540   1.410   .     A
C1533  C1566   1.414   .     A
C1534  C1539   1.410   .     A
C1534  C1733   1.523   .     S
C1534  C1565   1.414   .     A
C1535  C1538   1.410   .     A
C1535  C1737   1.521   .     S
C1535  C1568   1.414   .     A
C1536  C1567   1.415   .     A
C1536  C1741   1.521   .     S
C1536  C1537   1.410   .     A
C1537  C1570   1.413   .     A
C1537  C1745   1.523   .     S
C1538  C1749   1.523   .     S
C1538  C1569   1.413   .     A
C1539  C1572   1.414   .     A
C1539  C1753   1.522   .     S
C1540  C1571   1.415   .     A
C1540  C1757   1.521   .     S
C1541  C1761   1.523   .     S
C1541  C1574   1.413   .     A
C1542  C1573   1.413   .     A
C1542  C1765   1.523   .     S
C1543  C1576   1.416   .     A
C1543  C1769   1.522   .     S
C1544  C1575   1.414   .     A
C1544  C1773   1.522   .     S
C1545  C1013   1.419   1_655 S
C1545  C1117   1.419   1_655 S
C1546  C1014   1.419   1_655 S
C1546  C1118   1.420   1_655 S
C1548  C1580   1.420   .     S
C1549  C1577   1.419   .     A
C1550  C1578   1.420   .     A
C1551  C1579   1.420   .     A
C1551  C559    1.419   1_565 S
C1552  C660    1.420   1_565 A
C1552  C560    1.419   1_565 S
C1553  C661    1.417   1_565 S
C1554  C1582   1.422   .     A
C1555  C1583   1.420   .     S
C1556  C1124   1.420   1_655 A
C1557  C1581   1.418   .     A
C1558  C662    1.417   1_565 S
C1559  C1123   1.420   1_655 A
C1560  C1584   1.420   .     S
C1577  C1578   1.409   .     A
C1579  C660    1.410   1_565 A
C1579  C627    1.420   1_565 S
C1581  C1582   1.412   1_556 S
C1582  C1581   1.412   1_554 S
C1583  C1584   1.410   1_556 S
C1584  C1583   1.410   1_554 S
C1585  H1587   1.111   .     S
C1585  H1586   1.108   .     S
H1588  C1125   1.110   1_655 S
C1589  H1590   1.108   .     S
C1589  H1591   1.111   .     S
H1592  C1129   1.110   1_655 S
C1593  H1594   1.108   .     S
C1593  H1596   1.111   .     S
C1593  H675    1.110   1_565 S
C1597  H1598   1.111   .     S
C1597  H1599   1.108   .     S
C1597  H680    1.110   1_565 S
C1601  H1602   1.108   .     S
C1601  H1603   1.111   .     S
C1601  H1144   1.110   1_655 S
C1605  H1607   1.111   .     S
C1605  H1606   1.108   .     S
C1605  H1148   1.110   1_655 S
C1609  H1610   1.108   .     S
C1609  H1612   1.111   .     S
H1611  C689    1.110   1_565 S
C1613  H1614   1.108   .     S
C1613  H1616   1.111   .     S
H1615  C693    1.110   1_565 S
C1617  H1620   1.105   .     S
C1617  H1619   1.108   .     S
C1617  H1618   1.110   .     S
C1621  H1623   1.111   .     S
C1621  H1622   1.108   .     S
C1621  H1624   1.110   .     S
C1625  H1626   1.111   .     S
C1625  H1628   1.110   .     S
C1625  H1627   1.108   .     S
C1629  H1630   1.111   .     S
C1629  H1632   1.110   .     S
C1629  H1631   1.108   .     S
C1633  H1635   1.111   .     S
C1633  H1634   1.109   .     S
C1633  H1636   1.110   .     S
C1637  H1640   1.110   .     S
C1637  H1638   1.105   .     S
C1637  H1639   1.107   .     S
C1641  H1643   1.110   .     S
C1641  H1644   1.111   .     S
C1641  H1642   1.108   .     S
C1645  H1647   1.110   .     S
C1645  H1646   1.108   .     S
C1645  H1648   1.111   .     S
C1649  H1650   1.107   .     S
C1649  H1652   1.110   .     S
C1649  H1651   1.110   .     S
C1653  H1656   1.111   .     S
C1653  H1655   1.111   .     S
C1653  H1654   1.107   .     S
C1657  H1658   1.107   .     S
C1657  H1659   1.110   .     S
C1657  H1660   1.110   .     S
C1661  H1664   1.110   .     S
C1661  H1663   1.110   .     S
C1661  H1662   1.107   .     S
C1665  H1667   1.111   .     S
C1665  H1666   1.110   .     S
C1665  H1668   1.105   .     S
C1669  H1670   1.109   .     S
C1669  H1672   1.111   .     S
C1669  H1671   1.105   .     S
C1673  H1674   1.107   .     S
C1673  H1676   1.110   .     S
C1673  H1675   1.110   .     S
C1677  H1678   1.107   .     S
C1677  H1679   1.110   .     S
C1677  H1680   1.110   .     S
C1681  H1684   1.105   .     S
C1681  H1682   1.110   .     S
C1681  H1683   1.111   .     S
C1685  H1686   1.110   .     S
C1685  H1687   1.105   .     S
C1685  H1688   1.111   .     S
C1689  H1691   1.110   .     S
C1689  H1692   1.110   .     S
C1689  H1690   1.107   .     S
C1693  H1694   1.107   .     S
C1693  H1695   1.110   .     S
C1693  H1696   1.110   .     S
C1697  H1699   1.111   .     S
C1697  H1700   1.105   .     S
C1697  H1698   1.110   .     S
C1701  H1702   1.110   .     S
C1701  H1704   1.111   .     S
C1701  H1703   1.105   .     S
C1705  H1707   1.105   .     S
C1705  H1706   1.111   .     S
C1705  H1708   1.110   .     S
C1709  H1711   1.110   .     S
C1709  H1710   1.111   .     S
C1709  H1712   1.105   .     S
C1713  H1714   1.107   .     S
C1713  H1715   1.111   .     S
C1713  H1716   1.111   .     S
C1717  H1718   1.109   .     S
C1717  H1720   1.111   .     S
C1717  H1719   1.105   .     S
C1721  H1724   1.110   .     S
C1721  H1723   1.110   .     S
C1721  H1722   1.107   .     S
C1725  H1728   1.110   .     S
C1725  H1727   1.110   .     S
C1725  H1726   1.107   .     S
C1729  H1732   1.105   .     S
C1729  H1730   1.110   .     S
C1729  H1731   1.111   .     S
C1733  H1735   1.105   .     S
C1733  H1734   1.109   .     S
C1733  H1736   1.111   .     S
C1737  H1738   1.107   .     S
C1737  H1740   1.110   .     S
C1737  H1739   1.110   .     S
C1741  H1744   1.110   .     S
C1741  H1743   1.110   .     S
C1741  H1742   1.107   .     S
C1745  H1748   1.105   .     S
C1745  H1746   1.110   .     S
C1745  H1747   1.111   .     S
C1749  H1752   1.111   .     S
C1749  H1750   1.109   .     S
C1749  H1751   1.105   .     S
C1753  H1756   1.110   .     S
C1753  H1755   1.110   .     S
C1753  H1754   1.107   .     S
C1757  H1760   1.110   .     S
C1757  H1759   1.110   .     S
C1757  H1758   1.107   .     S
C1761  H1762   1.110   .     S
C1761  H1763   1.111   .     S
C1761  H1764   1.105   .     S
C1765  H1767   1.105   .     S
C1765  H1766   1.109   .     S
C1765  H1768   1.111   .     S
C1769  H1772   1.110   .     S
C1769  H1771   1.110   .     S
C1769  H1770   1.107   .     S
C1773  H1774   1.111   .     S
C1773  H1776   1.105   .     S
C1773  H1775   1.109   .     S
C1777  H1779   1.111   .     S
C1777  H1778   1.109   .     S
C1777  H1780   1.106   .     S
C1781  H1782   1.109   .     S
C1781  H1784   1.106   .     S
C1781  H1783   1.111   .     S
C1785  H1786   1.109   .     S
C1785  H1788   1.110   .     S
C1785  H1787   1.106   .     S
C1789  H1790   1.109   .     S
C1789  H1792   1.110   .     S
C1789  H1791   1.106   .     S
C1793  H1795   1.111   .     S
C1793  H1794   1.109   .     S
C1793  H1796   1.106   .     S
C1797  H1799   1.111   .     S
C1797  H1798   1.109   .     S
C1797  H1800   1.106   .     S
C1801  H1804   1.110   .     S
C1801  H1802   1.109   .     S
C1801  H1803   1.106   .     S
C1805  H1807   1.106   .     S
C1805  H1806   1.109   .     S
C1805  H1808   1.110   .     S
C1809  H1810   1.108   .     S
C1809  H1812   1.104   .     S
C1809  H1811   1.110   .     S
C1813  H1815   1.110   .     S
C1813  H1816   1.109   .     S
C1813  H1814   1.111   .     S
C1817  H1819   1.106   .     S
C1817  H1818   1.109   .     S
C1817  H1820   1.110   .     S
C1821  H1824   1.110   .     S
C1821  H1823   1.106   .     S
C1821  H1822   1.109   .     S
C1825  H1826   1.111   .     S
C1825  H1828   1.108   .     S
C1825  H1827   1.108   .     S
C1829  H1831   1.109   .     S
C1829  H1830   1.110   .     S
C1829  H1832   1.107   .     S
C1833  H1836   1.109   .     S
C1833  H1835   1.110   .     S
C1833  H1834   1.106   .     S
C1837  H1838   1.106   .     S
C1837  H1840   1.109   .     S
C1837  H1839   1.110   .     S
