data_str_m3_o1_o10_pcu_sym.193
_audit_creation_date              2020-01-03
_audit_creation_method            'Materials Studio'
_symmetry_space_group_name_H-M    'P1'
_symmetry_Int_Tables_number       1
_symmetry_cell_setting            triclinic
loop_
_symmetry_equiv_pos_as_xyz
  x,y,z
_cell_length_a                    25.8192
_cell_length_b                    31.9050
_cell_length_c                    29.8871
_cell_angle_alpha                 89.8275
_cell_angle_beta                  96.7593
_cell_angle_gamma                 92.2092
loop_
_atom_site_label
_atom_site_type_symbol
_atom_site_fract_x
_atom_site_fract_y
_atom_site_fract_z
_atom_site_U_iso_or_equiv
_atom_site_adp_type
_atom_site_occupancy
C1     C     0.16675   0.08673   0.16666   0.00000  Uiso   1.00
C2     C     0.16674   0.24645   0.16651   0.00000  Uiso   1.00
C3     C     0.06755   0.16500   0.15549   0.00000  Uiso   1.00
C4     C     0.26586   0.16741   0.17774   0.00000  Uiso   1.00
C5     C     0.01344   0.15637   0.15185   0.00000  Uiso   1.00
C6     C     0.31980   0.17685   0.18077   0.00000  Uiso   1.00
C7     C     0.19618   0.02233   0.13719   0.00000  Uiso   1.00
C8     C     0.13518   0.31037   0.19348   0.00000  Uiso   1.00
C9     C     0.19618   0.31262   0.13702   0.00000  Uiso   1.00
C10    C     0.13547   0.01990   0.19368   0.00000  Uiso   1.00
C11    C     0.16627   0.29046   0.16581   0.00000  Uiso   1.00
C12    C     0.16671   0.04239   0.16635   0.00000  Uiso   1.00
C13    C     0.20232   0.19125   0.02766   0.00000  Uiso   1.00
C14    C     0.12912   0.14415   0.30586   0.00000  Uiso   1.00
C15    C     0.19866   0.19406   0.31247   0.00000  Uiso   1.00
C16    C     0.13195   0.14149   0.02058   0.00000  Uiso   1.00
H17    H     0.21893   0.03988   0.11483   0.00000  Uiso   1.00
H18    H     0.11046   0.29283   0.21436   0.00000  Uiso   1.00
H19    H     0.21970   0.29672   0.11509   0.00000  Uiso   1.00
H20    H     0.11018   0.03501   0.21396   0.00000  Uiso   1.00
N21    N     0.16665   0.16666   0.28573   0.00000  Uiso   1.00
N22    N     0.16668   0.16668   0.04760   0.00000  Uiso   1.00
O23    O     0.16666   0.10558   0.20487   0.00000  Uiso   1.00
O24    O     0.16667   0.22775   0.12846   0.00000  Uiso   1.00
O25    O     0.16666   0.10559   0.12843   0.00000  Uiso   1.00
O26    O     0.16667   0.22774   0.20490   0.00000  Uiso   1.00
O27    O     0.09058   0.16666   0.19595   0.00000  Uiso   1.00
O28    O     0.24275   0.16667   0.13739   0.00000  Uiso   1.00
O29    O     0.09058   0.16667   0.11950   0.00000  Uiso   1.00
O30    O     0.24275   0.16666   0.21383   0.00000  Uiso   1.00
Zn31   Zn    0.16667   0.16666   0.21771   0.00000  Uiso   1.00
Zn32   Zn    0.16667   0.16667   0.11563   0.00000  Uiso   1.00
C33    C     0.32682   0.11819   0.12244   0.00000  Uiso   1.00
C34    C     0.32216   0.07824   0.15003   0.00000  Uiso   1.00
H35    H     0.02738   0.07026   0.16739   0.00000  Uiso   1.00
H36    H     0.29389   0.08171   0.17488   0.00000  Uiso   1.00
H37    H     0.30871   0.05172   0.12713   0.00000  Uiso   1.00
H38    H     0.28958   0.12252   0.10109   0.00000  Uiso   1.00
H39    H     0.02092   0.11244   0.09749   0.00000  Uiso   1.00
C40    C     0.00802   0.21439   0.21072   0.00000  Uiso   1.00
C41    C     0.30581   0.25179   0.20754   0.00000  Uiso   1.00
H42    H     0.29694   0.26239   0.17225   0.00000  Uiso   1.00
H43    H     0.26889   0.24347   0.22116   0.00000  Uiso   1.00
H44    H     0.32534   0.27831   0.22776   0.00000  Uiso   1.00
H45    H     0.01412   0.20378   0.24633   0.00000  Uiso   1.00
H46    H     0.04571   0.22755   0.20162   0.00000  Uiso   1.00
O47    O     0.23758   0.21676   0.05499   0.00000  Uiso   1.00
C48    C     0.28948   0.21007   0.04633   0.00000  Uiso   1.00
H49    H     0.29576   0.21494   0.01066   0.00000  Uiso   1.00
H50    H     0.30055   0.17775   0.05564   0.00000  Uiso   1.00
C51    C     0.32670   0.24101   0.07358   0.00000  Uiso   1.00
H52    H     0.32526   0.23573   0.10993   0.00000  Uiso   1.00
H53    H     0.03392   0.23663   0.06602   0.00000  Uiso   1.00
H54    H     0.31581   0.27367   0.06503   0.00000  Uiso   1.00
O55    O     0.08096   0.13576   0.28149   0.00000  Uiso   1.00
C56    C     0.07765   0.09532   0.26260   0.00000  Uiso   1.00
H57    H     0.11148   0.07572   0.27350   0.00000  Uiso   1.00
H58    H     0.07610   0.09848   0.22587   0.00000  Uiso   1.00
C59    C     0.02663   0.07318   0.27178   0.00000  Uiso   1.00
H60    H     0.32640   0.09112   0.25635   0.00000  Uiso   1.00
H61    H     0.02384   0.04114   0.25703   0.00000  Uiso   1.00
H62    H     0.02423   0.07084   0.30845   0.00000  Uiso   1.00
O63    O     0.22371   0.22679   0.29207   0.00000  Uiso   1.00
C64    C     0.20005   0.26489   0.30082   0.00000  Uiso   1.00
H65    H     0.19630   0.26953   0.00380   0.00000  Uiso   1.00
H66    H     0.16035   0.26563   0.28196   0.00000  Uiso   1.00
C67    C     0.23301   0.30206   0.28654   0.00000  Uiso   1.00
H68    H     0.23345   0.30224   0.24955   0.00000  Uiso   1.00
H69    H     0.21626   0.33178   0.29631   0.00000  Uiso   1.00
H70    H     0.27362   0.30059   0.30335   0.00000  Uiso   1.00
O71    O     0.09639   0.11592   0.04014   0.00000  Uiso   1.00
C72    C     0.11404   0.07429   0.04198   0.00000  Uiso   1.00
H73    H     0.15539   0.07271   0.05689   0.00000  Uiso   1.00
H74    H     0.11183   0.06010   0.00836   0.00000  Uiso   1.00
C75    C     0.07959   0.04656   0.06880   0.00000  Uiso   1.00
H76    H     0.03855   0.04606   0.05278   0.00000  Uiso   1.00
H77    H     0.09346   0.01401   0.07002   0.00000  Uiso   1.00
H78    H     0.08095   0.05837   0.10368   0.00000  Uiso   1.00
C79    C     0.50009   0.08673   0.16666   0.00000  Uiso   1.00
C80    C     0.50007   0.24645   0.16651   0.00000  Uiso   1.00
C81    C     0.40088   0.16500   0.15549   0.00000  Uiso   1.00
C82    C     0.59919   0.16741   0.17774   0.00000  Uiso   1.00
C83    C     0.34677   0.15637   0.15185   0.00000  Uiso   1.00
C84    C     0.65314   0.17685   0.18077   0.00000  Uiso   1.00
C85    C     0.52951   0.02233   0.13719   0.00000  Uiso   1.00
C86    C     0.46851   0.31037   0.19348   0.00000  Uiso   1.00
C87    C     0.52951   0.31262   0.13702   0.00000  Uiso   1.00
C88    C     0.46880   0.01990   0.19368   0.00000  Uiso   1.00
C89    C     0.49960   0.29046   0.16581   0.00000  Uiso   1.00
C90    C     0.50005   0.04239   0.16635   0.00000  Uiso   1.00
C91    C     0.53565   0.19125   0.02766   0.00000  Uiso   1.00
C92    C     0.46246   0.14415   0.30586   0.00000  Uiso   1.00
C93    C     0.53199   0.19406   0.31247   0.00000  Uiso   1.00
C94    C     0.46528   0.14149   0.02058   0.00000  Uiso   1.00
H95    H     0.55226   0.03988   0.11483   0.00000  Uiso   1.00
H96    H     0.44379   0.29283   0.21436   0.00000  Uiso   1.00
H97    H     0.55304   0.29672   0.11509   0.00000  Uiso   1.00
H98    H     0.44352   0.03501   0.21396   0.00000  Uiso   1.00
N99    N     0.49999   0.16666   0.28573   0.00000  Uiso   1.00
N100   N     0.50001   0.16668   0.04760   0.00000  Uiso   1.00
O101   O     0.50000   0.10558   0.20487   0.00000  Uiso   1.00
O102   O     0.50000   0.22775   0.12846   0.00000  Uiso   1.00
O103   O     0.50000   0.10559   0.12843   0.00000  Uiso   1.00
O104   O     0.50000   0.22774   0.20490   0.00000  Uiso   1.00
O105   O     0.42392   0.16666   0.19595   0.00000  Uiso   1.00
O106   O     0.57608   0.16667   0.13739   0.00000  Uiso   1.00
O107   O     0.42392   0.16667   0.11950   0.00000  Uiso   1.00
O108   O     0.57608   0.16666   0.21383   0.00000  Uiso   1.00
Zn109  Zn    0.50000   0.16666   0.21771   0.00000  Uiso   1.00
Zn110  Zn    0.50000   0.16667   0.11563   0.00000  Uiso   1.00
C111   C     0.66016   0.11819   0.12244   0.00000  Uiso   1.00
C112   C     0.65550   0.07824   0.15003   0.00000  Uiso   1.00
H113   H     0.36071   0.07026   0.16739   0.00000  Uiso   1.00
H114   H     0.62722   0.08171   0.17488   0.00000  Uiso   1.00
H115   H     0.64204   0.05172   0.12713   0.00000  Uiso   1.00
H116   H     0.62292   0.12252   0.10109   0.00000  Uiso   1.00
H117   H     0.35425   0.11244   0.09749   0.00000  Uiso   1.00
C118   C     0.34136   0.21439   0.21072   0.00000  Uiso   1.00
C119   C     0.63914   0.25179   0.20754   0.00000  Uiso   1.00
H120   H     0.63028   0.26239   0.17225   0.00000  Uiso   1.00
H121   H     0.60223   0.24347   0.22116   0.00000  Uiso   1.00
H122   H     0.65867   0.27831   0.22776   0.00000  Uiso   1.00
H123   H     0.34745   0.20378   0.24633   0.00000  Uiso   1.00
H124   H     0.37904   0.22755   0.20162   0.00000  Uiso   1.00
O125   O     0.57091   0.21676   0.05499   0.00000  Uiso   1.00
C126   C     0.62281   0.21007   0.04633   0.00000  Uiso   1.00
H127   H     0.62910   0.21494   0.01066   0.00000  Uiso   1.00
H128   H     0.63389   0.17775   0.05564   0.00000  Uiso   1.00
C129   C     0.66004   0.24101   0.07358   0.00000  Uiso   1.00
H130   H     0.65859   0.23573   0.10993   0.00000  Uiso   1.00
H131   H     0.36725   0.23663   0.06602   0.00000  Uiso   1.00
H132   H     0.64914   0.27367   0.06503   0.00000  Uiso   1.00
O133   O     0.41430   0.13576   0.28149   0.00000  Uiso   1.00
C134   C     0.41098   0.09532   0.26260   0.00000  Uiso   1.00
H135   H     0.44482   0.07572   0.27350   0.00000  Uiso   1.00
H136   H     0.40943   0.09848   0.22587   0.00000  Uiso   1.00
C137   C     0.35996   0.07318   0.27178   0.00000  Uiso   1.00
H138   H     0.65974   0.09112   0.25635   0.00000  Uiso   1.00
H139   H     0.35718   0.04114   0.25703   0.00000  Uiso   1.00
H140   H     0.35757   0.07084   0.30845   0.00000  Uiso   1.00
O141   O     0.55705   0.22679   0.29207   0.00000  Uiso   1.00
C142   C     0.53338   0.26489   0.30082   0.00000  Uiso   1.00
H143   H     0.52964   0.26953   0.00380   0.00000  Uiso   1.00
H144   H     0.49368   0.26563   0.28196   0.00000  Uiso   1.00
C145   C     0.56634   0.30206   0.28654   0.00000  Uiso   1.00
H146   H     0.56678   0.30224   0.24955   0.00000  Uiso   1.00
H147   H     0.54959   0.33178   0.29631   0.00000  Uiso   1.00
H148   H     0.60695   0.30059   0.30335   0.00000  Uiso   1.00
O149   O     0.42973   0.11592   0.04014   0.00000  Uiso   1.00
C150   C     0.44737   0.07429   0.04198   0.00000  Uiso   1.00
H151   H     0.48872   0.07271   0.05689   0.00000  Uiso   1.00
H152   H     0.44516   0.06010   0.00836   0.00000  Uiso   1.00
C153   C     0.41293   0.04656   0.06880   0.00000  Uiso   1.00
H154   H     0.37188   0.04606   0.05278   0.00000  Uiso   1.00
H155   H     0.42679   0.01401   0.07002   0.00000  Uiso   1.00
H156   H     0.41428   0.05837   0.10368   0.00000  Uiso   1.00
C157   C     0.83342   0.08673   0.16666   0.00000  Uiso   1.00
C158   C     0.83340   0.24645   0.16651   0.00000  Uiso   1.00
C159   C     0.73422   0.16500   0.15549   0.00000  Uiso   1.00
C160   C     0.93252   0.16741   0.17774   0.00000  Uiso   1.00
C161   C     0.68011   0.15637   0.15185   0.00000  Uiso   1.00
C162   C     0.98647   0.17685   0.18077   0.00000  Uiso   1.00
C163   C     0.86284   0.02233   0.13719   0.00000  Uiso   1.00
C164   C     0.80185   0.31037   0.19348   0.00000  Uiso   1.00
C165   C     0.86284   0.31262   0.13702   0.00000  Uiso   1.00
C166   C     0.80214   0.01990   0.19368   0.00000  Uiso   1.00
C167   C     0.83294   0.29046   0.16581   0.00000  Uiso   1.00
C168   C     0.83338   0.04239   0.16635   0.00000  Uiso   1.00
C169   C     0.86898   0.19125   0.02766   0.00000  Uiso   1.00
C170   C     0.79579   0.14415   0.30586   0.00000  Uiso   1.00
C171   C     0.86533   0.19406   0.31247   0.00000  Uiso   1.00
C172   C     0.79862   0.14149   0.02058   0.00000  Uiso   1.00
H173   H     0.88559   0.03988   0.11483   0.00000  Uiso   1.00
H174   H     0.77713   0.29283   0.21436   0.00000  Uiso   1.00
H175   H     0.88637   0.29672   0.11509   0.00000  Uiso   1.00
H176   H     0.77685   0.03501   0.21396   0.00000  Uiso   1.00
N177   N     0.83332   0.16666   0.28573   0.00000  Uiso   1.00
N178   N     0.83335   0.16668   0.04760   0.00000  Uiso   1.00
O179   O     0.83333   0.10558   0.20487   0.00000  Uiso   1.00
O180   O     0.83334   0.22775   0.12846   0.00000  Uiso   1.00
O181   O     0.83333   0.10559   0.12843   0.00000  Uiso   1.00
O182   O     0.83334   0.22774   0.20490   0.00000  Uiso   1.00
O183   O     0.75725   0.16666   0.19595   0.00000  Uiso   1.00
O184   O     0.90942   0.16667   0.13739   0.00000  Uiso   1.00
O185   O     0.75725   0.16667   0.11950   0.00000  Uiso   1.00
O186   O     0.90942   0.16666   0.21383   0.00000  Uiso   1.00
Zn187  Zn    0.83333   0.16666   0.21771   0.00000  Uiso   1.00
Zn188  Zn    0.83333   0.16667   0.11563   0.00000  Uiso   1.00
C189   C     0.99349   0.11819   0.12244   0.00000  Uiso   1.00
C190   C     0.98883   0.07824   0.15003   0.00000  Uiso   1.00
H191   H     0.69404   0.07026   0.16739   0.00000  Uiso   1.00
H192   H     0.96056   0.08171   0.17488   0.00000  Uiso   1.00
H193   H     0.97537   0.05172   0.12713   0.00000  Uiso   1.00
H194   H     0.95625   0.12252   0.10109   0.00000  Uiso   1.00
H195   H     0.68758   0.11244   0.09749   0.00000  Uiso   1.00
C196   C     0.67469   0.21439   0.21072   0.00000  Uiso   1.00
C197   C     0.97247   0.25179   0.20754   0.00000  Uiso   1.00
H198   H     0.96361   0.26239   0.17225   0.00000  Uiso   1.00
H199   H     0.93556   0.24347   0.22116   0.00000  Uiso   1.00
H200   H     0.99201   0.27831   0.22776   0.00000  Uiso   1.00
H201   H     0.68078   0.20378   0.24633   0.00000  Uiso   1.00
H202   H     0.71237   0.22755   0.20162   0.00000  Uiso   1.00
O203   O     0.90424   0.21676   0.05499   0.00000  Uiso   1.00
C204   C     0.95615   0.21007   0.04633   0.00000  Uiso   1.00
H205   H     0.96243   0.21494   0.01066   0.00000  Uiso   1.00
H206   H     0.96722   0.17775   0.05564   0.00000  Uiso   1.00
C207   C     0.99337   0.24101   0.07358   0.00000  Uiso   1.00
H208   H     0.99193   0.23573   0.10993   0.00000  Uiso   1.00
H209   H     0.70059   0.23663   0.06602   0.00000  Uiso   1.00
H210   H     0.98248   0.27367   0.06503   0.00000  Uiso   1.00
O211   O     0.74763   0.13576   0.28149   0.00000  Uiso   1.00
C212   C     0.74432   0.09532   0.26260   0.00000  Uiso   1.00
H213   H     0.77815   0.07572   0.27350   0.00000  Uiso   1.00
H214   H     0.74277   0.09848   0.22587   0.00000  Uiso   1.00
C215   C     0.69329   0.07318   0.27178   0.00000  Uiso   1.00
H216   H     0.99307   0.09112   0.25635   0.00000  Uiso   1.00
H217   H     0.69051   0.04114   0.25703   0.00000  Uiso   1.00
H218   H     0.69090   0.07084   0.30845   0.00000  Uiso   1.00
O219   O     0.89038   0.22679   0.29207   0.00000  Uiso   1.00
C220   C     0.86672   0.26489   0.30082   0.00000  Uiso   1.00
H221   H     0.86297   0.26953   0.00380   0.00000  Uiso   1.00
H222   H     0.82701   0.26563   0.28196   0.00000  Uiso   1.00
C223   C     0.89967   0.30206   0.28654   0.00000  Uiso   1.00
H224   H     0.90012   0.30224   0.24955   0.00000  Uiso   1.00
H225   H     0.88293   0.33178   0.29631   0.00000  Uiso   1.00
H226   H     0.94028   0.30059   0.30335   0.00000  Uiso   1.00
O227   O     0.76306   0.11592   0.04014   0.00000  Uiso   1.00
C228   C     0.78070   0.07429   0.04198   0.00000  Uiso   1.00
H229   H     0.82206   0.07271   0.05689   0.00000  Uiso   1.00
H230   H     0.77849   0.06010   0.00836   0.00000  Uiso   1.00
C231   C     0.74626   0.04656   0.06880   0.00000  Uiso   1.00
H232   H     0.70522   0.04606   0.05278   0.00000  Uiso   1.00
H233   H     0.76013   0.01401   0.07002   0.00000  Uiso   1.00
H234   H     0.74762   0.05837   0.10368   0.00000  Uiso   1.00
C235   C     0.16675   0.42007   0.16666   0.00000  Uiso   1.00
C236   C     0.16674   0.57978   0.16651   0.00000  Uiso   1.00
C237   C     0.06755   0.49834   0.15549   0.00000  Uiso   1.00
C238   C     0.26586   0.50074   0.17774   0.00000  Uiso   1.00
C239   C     0.01344   0.48970   0.15185   0.00000  Uiso   1.00
C240   C     0.31980   0.51018   0.18077   0.00000  Uiso   1.00
C241   C     0.19618   0.35566   0.13719   0.00000  Uiso   1.00
C242   C     0.13518   0.64370   0.19348   0.00000  Uiso   1.00
C243   C     0.19618   0.64596   0.13702   0.00000  Uiso   1.00
C244   C     0.13547   0.35323   0.19368   0.00000  Uiso   1.00
C245   C     0.16627   0.62379   0.16581   0.00000  Uiso   1.00
C246   C     0.16671   0.37573   0.16635   0.00000  Uiso   1.00
C247   C     0.20232   0.52458   0.02766   0.00000  Uiso   1.00
C248   C     0.12912   0.47748   0.30586   0.00000  Uiso   1.00
C249   C     0.19866   0.52739   0.31247   0.00000  Uiso   1.00
C250   C     0.13195   0.47482   0.02058   0.00000  Uiso   1.00
H251   H     0.21893   0.37321   0.11483   0.00000  Uiso   1.00
H252   H     0.11046   0.62616   0.21436   0.00000  Uiso   1.00
H253   H     0.21970   0.63005   0.11509   0.00000  Uiso   1.00
H254   H     0.11018   0.36834   0.21396   0.00000  Uiso   1.00
N255   N     0.16665   0.49999   0.28573   0.00000  Uiso   1.00
N256   N     0.16668   0.50001   0.04760   0.00000  Uiso   1.00
O257   O     0.16666   0.43892   0.20487   0.00000  Uiso   1.00
O258   O     0.16667   0.56108   0.12846   0.00000  Uiso   1.00
O259   O     0.16666   0.43893   0.12843   0.00000  Uiso   1.00
O260   O     0.16667   0.56107   0.20490   0.00000  Uiso   1.00
O261   O     0.09058   0.50000   0.19595   0.00000  Uiso   1.00
O262   O     0.24275   0.50000   0.13739   0.00000  Uiso   1.00
O263   O     0.09058   0.50000   0.11950   0.00000  Uiso   1.00
O264   O     0.24275   0.50000   0.21383   0.00000  Uiso   1.00
Zn265  Zn    0.16667   0.49999   0.21771   0.00000  Uiso   1.00
Zn266  Zn    0.16667   0.50001   0.11563   0.00000  Uiso   1.00
C267   C     0.32682   0.45152   0.12244   0.00000  Uiso   1.00
C268   C     0.32216   0.41158   0.15003   0.00000  Uiso   1.00
H269   H     0.02738   0.40359   0.16739   0.00000  Uiso   1.00
H270   H     0.29389   0.41504   0.17488   0.00000  Uiso   1.00
H271   H     0.30871   0.38505   0.12713   0.00000  Uiso   1.00
H272   H     0.28958   0.45585   0.10109   0.00000  Uiso   1.00
H273   H     0.02092   0.44578   0.09749   0.00000  Uiso   1.00
C274   C     0.00802   0.54772   0.21072   0.00000  Uiso   1.00
C275   C     0.30581   0.58512   0.20754   0.00000  Uiso   1.00
H276   H     0.29694   0.59572   0.17225   0.00000  Uiso   1.00
H277   H     0.26889   0.57680   0.22116   0.00000  Uiso   1.00
H278   H     0.32534   0.61165   0.22776   0.00000  Uiso   1.00
H279   H     0.01412   0.53711   0.24633   0.00000  Uiso   1.00
H280   H     0.04571   0.56089   0.20162   0.00000  Uiso   1.00
O281   O     0.23758   0.55010   0.05499   0.00000  Uiso   1.00
C282   C     0.28948   0.54340   0.04633   0.00000  Uiso   1.00
H283   H     0.29576   0.54827   0.01066   0.00000  Uiso   1.00
H284   H     0.30055   0.51108   0.05564   0.00000  Uiso   1.00
C285   C     0.32670   0.57435   0.07358   0.00000  Uiso   1.00
H286   H     0.32526   0.56906   0.10993   0.00000  Uiso   1.00
H287   H     0.03392   0.56997   0.06602   0.00000  Uiso   1.00
H288   H     0.31581   0.60700   0.06503   0.00000  Uiso   1.00
O289   O     0.08096   0.46910   0.28149   0.00000  Uiso   1.00
C290   C     0.07765   0.42865   0.26260   0.00000  Uiso   1.00
H291   H     0.11148   0.40906   0.27350   0.00000  Uiso   1.00
H292   H     0.07610   0.43182   0.22587   0.00000  Uiso   1.00
C293   C     0.02663   0.40651   0.27178   0.00000  Uiso   1.00
H294   H     0.32640   0.42445   0.25635   0.00000  Uiso   1.00
H295   H     0.02384   0.37448   0.25703   0.00000  Uiso   1.00
H296   H     0.02423   0.40418   0.30845   0.00000  Uiso   1.00
O297   O     0.22371   0.56012   0.29207   0.00000  Uiso   1.00
C298   C     0.20005   0.59822   0.30082   0.00000  Uiso   1.00
H299   H     0.19630   0.60286   0.00380   0.00000  Uiso   1.00
H300   H     0.16035   0.59896   0.28196   0.00000  Uiso   1.00
C301   C     0.23301   0.63540   0.28654   0.00000  Uiso   1.00
H302   H     0.23345   0.63557   0.24955   0.00000  Uiso   1.00
H303   H     0.21626   0.66511   0.29631   0.00000  Uiso   1.00
H304   H     0.27362   0.63392   0.30335   0.00000  Uiso   1.00
O305   O     0.09639   0.44925   0.04014   0.00000  Uiso   1.00
C306   C     0.11404   0.40763   0.04198   0.00000  Uiso   1.00
H307   H     0.15539   0.40605   0.05689   0.00000  Uiso   1.00
H308   H     0.11183   0.39343   0.00836   0.00000  Uiso   1.00
C309   C     0.07959   0.37990   0.06880   0.00000  Uiso   1.00
H310   H     0.03855   0.37940   0.05278   0.00000  Uiso   1.00
H311   H     0.09346   0.34734   0.07002   0.00000  Uiso   1.00
H312   H     0.08095   0.39171   0.10368   0.00000  Uiso   1.00
C313   C     0.50009   0.42007   0.16666   0.00000  Uiso   1.00
C314   C     0.50007   0.57978   0.16651   0.00000  Uiso   1.00
C315   C     0.40088   0.49834   0.15549   0.00000  Uiso   1.00
C316   C     0.59919   0.50074   0.17774   0.00000  Uiso   1.00
C317   C     0.34677   0.48970   0.15185   0.00000  Uiso   1.00
C318   C     0.65314   0.51018   0.18077   0.00000  Uiso   1.00
C319   C     0.52951   0.35566   0.13719   0.00000  Uiso   1.00
C320   C     0.46851   0.64370   0.19348   0.00000  Uiso   1.00
C321   C     0.52951   0.64596   0.13702   0.00000  Uiso   1.00
C322   C     0.46880   0.35323   0.19368   0.00000  Uiso   1.00
C323   C     0.49960   0.62379   0.16581   0.00000  Uiso   1.00
C324   C     0.50005   0.37573   0.16635   0.00000  Uiso   1.00
C325   C     0.53565   0.52458   0.02766   0.00000  Uiso   1.00
C326   C     0.46246   0.47748   0.30586   0.00000  Uiso   1.00
C327   C     0.53199   0.52739   0.31247   0.00000  Uiso   1.00
C328   C     0.46528   0.47482   0.02058   0.00000  Uiso   1.00
H329   H     0.55226   0.37321   0.11483   0.00000  Uiso   1.00
H330   H     0.44379   0.62616   0.21436   0.00000  Uiso   1.00
H331   H     0.55304   0.63005   0.11509   0.00000  Uiso   1.00
H332   H     0.44352   0.36834   0.21396   0.00000  Uiso   1.00
N333   N     0.49999   0.49999   0.28573   0.00000  Uiso   1.00
N334   N     0.50001   0.50001   0.04760   0.00000  Uiso   1.00
O335   O     0.50000   0.43892   0.20487   0.00000  Uiso   1.00
O336   O     0.50000   0.56108   0.12846   0.00000  Uiso   1.00
O337   O     0.50000   0.43893   0.12843   0.00000  Uiso   1.00
O338   O     0.50000   0.56107   0.20490   0.00000  Uiso   1.00
O339   O     0.42392   0.50000   0.19595   0.00000  Uiso   1.00
O340   O     0.57608   0.50000   0.13739   0.00000  Uiso   1.00
O341   O     0.42392   0.50000   0.11950   0.00000  Uiso   1.00
O342   O     0.57608   0.50000   0.21383   0.00000  Uiso   1.00
Zn343  Zn    0.50000   0.49999   0.21771   0.00000  Uiso   1.00
Zn344  Zn    0.50000   0.50001   0.11563   0.00000  Uiso   1.00
C345   C     0.66016   0.45152   0.12244   0.00000  Uiso   1.00
C346   C     0.65550   0.41158   0.15003   0.00000  Uiso   1.00
H347   H     0.36071   0.40359   0.16739   0.00000  Uiso   1.00
H348   H     0.62722   0.41504   0.17488   0.00000  Uiso   1.00
H349   H     0.64204   0.38505   0.12713   0.00000  Uiso   1.00
H350   H     0.62292   0.45585   0.10109   0.00000  Uiso   1.00
H351   H     0.35425   0.44578   0.09749   0.00000  Uiso   1.00
C352   C     0.34136   0.54772   0.21072   0.00000  Uiso   1.00
C353   C     0.63914   0.58512   0.20754   0.00000  Uiso   1.00
H354   H     0.63028   0.59572   0.17225   0.00000  Uiso   1.00
H355   H     0.60223   0.57680   0.22116   0.00000  Uiso   1.00
H356   H     0.65867   0.61165   0.22776   0.00000  Uiso   1.00
H357   H     0.34745   0.53711   0.24633   0.00000  Uiso   1.00
H358   H     0.37904   0.56089   0.20162   0.00000  Uiso   1.00
O359   O     0.57091   0.55010   0.05499   0.00000  Uiso   1.00
C360   C     0.62281   0.54340   0.04633   0.00000  Uiso   1.00
H361   H     0.62910   0.54827   0.01066   0.00000  Uiso   1.00
H362   H     0.63389   0.51108   0.05564   0.00000  Uiso   1.00
C363   C     0.66004   0.57435   0.07358   0.00000  Uiso   1.00
H364   H     0.65859   0.56906   0.10993   0.00000  Uiso   1.00
H365   H     0.36725   0.56997   0.06602   0.00000  Uiso   1.00
H366   H     0.64914   0.60700   0.06503   0.00000  Uiso   1.00
O367   O     0.41430   0.46910   0.28149   0.00000  Uiso   1.00
C368   C     0.41098   0.42865   0.26260   0.00000  Uiso   1.00
H369   H     0.44482   0.40906   0.27350   0.00000  Uiso   1.00
H370   H     0.40943   0.43182   0.22587   0.00000  Uiso   1.00
C371   C     0.35996   0.40651   0.27178   0.00000  Uiso   1.00
H372   H     0.65974   0.42445   0.25635   0.00000  Uiso   1.00
H373   H     0.35718   0.37448   0.25703   0.00000  Uiso   1.00
H374   H     0.35757   0.40418   0.30845   0.00000  Uiso   1.00
O375   O     0.55705   0.56012   0.29207   0.00000  Uiso   1.00
C376   C     0.53338   0.59822   0.30082   0.00000  Uiso   1.00
H377   H     0.52964   0.60286   0.00380   0.00000  Uiso   1.00
H378   H     0.49368   0.59896   0.28196   0.00000  Uiso   1.00
C379   C     0.56634   0.63540   0.28654   0.00000  Uiso   1.00
H380   H     0.56678   0.63557   0.24955   0.00000  Uiso   1.00
H381   H     0.54959   0.66511   0.29631   0.00000  Uiso   1.00
H382   H     0.60695   0.63392   0.30335   0.00000  Uiso   1.00
O383   O     0.42973   0.44925   0.04014   0.00000  Uiso   1.00
C384   C     0.44737   0.40763   0.04198   0.00000  Uiso   1.00
H385   H     0.48872   0.40605   0.05689   0.00000  Uiso   1.00
H386   H     0.44516   0.39343   0.00836   0.00000  Uiso   1.00
C387   C     0.41293   0.37990   0.06880   0.00000  Uiso   1.00
H388   H     0.37188   0.37940   0.05278   0.00000  Uiso   1.00
H389   H     0.42679   0.34734   0.07002   0.00000  Uiso   1.00
H390   H     0.41428   0.39171   0.10368   0.00000  Uiso   1.00
C391   C     0.83342   0.42007   0.16666   0.00000  Uiso   1.00
C392   C     0.83340   0.57978   0.16651   0.00000  Uiso   1.00
C393   C     0.73422   0.49834   0.15549   0.00000  Uiso   1.00
C394   C     0.93252   0.50074   0.17774   0.00000  Uiso   1.00
C395   C     0.68011   0.48970   0.15185   0.00000  Uiso   1.00
C396   C     0.98647   0.51018   0.18077   0.00000  Uiso   1.00
C397   C     0.86284   0.35566   0.13719   0.00000  Uiso   1.00
C398   C     0.80185   0.64370   0.19348   0.00000  Uiso   1.00
C399   C     0.86284   0.64596   0.13702   0.00000  Uiso   1.00
C400   C     0.80214   0.35323   0.19368   0.00000  Uiso   1.00
C401   C     0.83294   0.62379   0.16581   0.00000  Uiso   1.00
C402   C     0.83338   0.37573   0.16635   0.00000  Uiso   1.00
C403   C     0.86898   0.52458   0.02766   0.00000  Uiso   1.00
C404   C     0.79579   0.47748   0.30586   0.00000  Uiso   1.00
C405   C     0.86533   0.52739   0.31247   0.00000  Uiso   1.00
C406   C     0.79862   0.47482   0.02058   0.00000  Uiso   1.00
H407   H     0.88559   0.37321   0.11483   0.00000  Uiso   1.00
H408   H     0.77713   0.62616   0.21436   0.00000  Uiso   1.00
H409   H     0.88637   0.63005   0.11509   0.00000  Uiso   1.00
H410   H     0.77685   0.36834   0.21396   0.00000  Uiso   1.00
N411   N     0.83332   0.49999   0.28573   0.00000  Uiso   1.00
N412   N     0.83335   0.50001   0.04760   0.00000  Uiso   1.00
O413   O     0.83333   0.43892   0.20487   0.00000  Uiso   1.00
O414   O     0.83334   0.56108   0.12846   0.00000  Uiso   1.00
O415   O     0.83333   0.43893   0.12843   0.00000  Uiso   1.00
O416   O     0.83334   0.56107   0.20490   0.00000  Uiso   1.00
O417   O     0.75725   0.50000   0.19595   0.00000  Uiso   1.00
O418   O     0.90942   0.50000   0.13739   0.00000  Uiso   1.00
O419   O     0.75725   0.50000   0.11950   0.00000  Uiso   1.00
O420   O     0.90942   0.50000   0.21383   0.00000  Uiso   1.00
Zn421  Zn    0.83333   0.49999   0.21771   0.00000  Uiso   1.00
Zn422  Zn    0.83333   0.50001   0.11563   0.00000  Uiso   1.00
C423   C     0.99349   0.45152   0.12244   0.00000  Uiso   1.00
C424   C     0.98883   0.41158   0.15003   0.00000  Uiso   1.00
H425   H     0.69404   0.40359   0.16739   0.00000  Uiso   1.00
H426   H     0.96056   0.41504   0.17488   0.00000  Uiso   1.00
H427   H     0.97537   0.38505   0.12713   0.00000  Uiso   1.00
H428   H     0.95625   0.45585   0.10109   0.00000  Uiso   1.00
H429   H     0.68758   0.44578   0.09749   0.00000  Uiso   1.00
C430   C     0.67469   0.54772   0.21072   0.00000  Uiso   1.00
C431   C     0.97247   0.58512   0.20754   0.00000  Uiso   1.00
H432   H     0.96361   0.59572   0.17225   0.00000  Uiso   1.00
H433   H     0.93556   0.57680   0.22116   0.00000  Uiso   1.00
H434   H     0.99201   0.61165   0.22776   0.00000  Uiso   1.00
H435   H     0.68078   0.53711   0.24633   0.00000  Uiso   1.00
H436   H     0.71237   0.56089   0.20162   0.00000  Uiso   1.00
O437   O     0.90424   0.55010   0.05499   0.00000  Uiso   1.00
C438   C     0.95615   0.54340   0.04633   0.00000  Uiso   1.00
H439   H     0.96243   0.54827   0.01066   0.00000  Uiso   1.00
H440   H     0.96722   0.51108   0.05564   0.00000  Uiso   1.00
C441   C     0.99337   0.57435   0.07358   0.00000  Uiso   1.00
H442   H     0.99193   0.56906   0.10993   0.00000  Uiso   1.00
H443   H     0.70059   0.56997   0.06602   0.00000  Uiso   1.00
H444   H     0.98248   0.60700   0.06503   0.00000  Uiso   1.00
O445   O     0.74763   0.46910   0.28149   0.00000  Uiso   1.00
C446   C     0.74432   0.42865   0.26260   0.00000  Uiso   1.00
H447   H     0.77815   0.40906   0.27350   0.00000  Uiso   1.00
H448   H     0.74277   0.43182   0.22587   0.00000  Uiso   1.00
C449   C     0.69329   0.40651   0.27178   0.00000  Uiso   1.00
H450   H     0.99307   0.42445   0.25635   0.00000  Uiso   1.00
H451   H     0.69051   0.37448   0.25703   0.00000  Uiso   1.00
H452   H     0.69090   0.40418   0.30845   0.00000  Uiso   1.00
O453   O     0.89038   0.56012   0.29207   0.00000  Uiso   1.00
C454   C     0.86672   0.59822   0.30082   0.00000  Uiso   1.00
H455   H     0.86297   0.60286   0.00380   0.00000  Uiso   1.00
H456   H     0.82701   0.59896   0.28196   0.00000  Uiso   1.00
C457   C     0.89967   0.63540   0.28654   0.00000  Uiso   1.00
H458   H     0.90012   0.63557   0.24955   0.00000  Uiso   1.00
H459   H     0.88293   0.66511   0.29631   0.00000  Uiso   1.00
H460   H     0.94028   0.63392   0.30335   0.00000  Uiso   1.00
O461   O     0.76306   0.44925   0.04014   0.00000  Uiso   1.00
C462   C     0.78070   0.40763   0.04198   0.00000  Uiso   1.00
H463   H     0.82206   0.40605   0.05689   0.00000  Uiso   1.00
H464   H     0.77849   0.39343   0.00836   0.00000  Uiso   1.00
C465   C     0.74626   0.37990   0.06880   0.00000  Uiso   1.00
H466   H     0.70522   0.37940   0.05278   0.00000  Uiso   1.00
H467   H     0.76013   0.34734   0.07002   0.00000  Uiso   1.00
H468   H     0.74762   0.39171   0.10368   0.00000  Uiso   1.00
C469   C     0.16675   0.75340   0.16666   0.00000  Uiso   1.00
C470   C     0.16674   0.91311   0.16651   0.00000  Uiso   1.00
C471   C     0.06755   0.83167   0.15549   0.00000  Uiso   1.00
C472   C     0.26586   0.83408   0.17774   0.00000  Uiso   1.00
C473   C     0.01344   0.82303   0.15185   0.00000  Uiso   1.00
C474   C     0.31980   0.84352   0.18077   0.00000  Uiso   1.00
C475   C     0.19618   0.68899   0.13719   0.00000  Uiso   1.00
C476   C     0.13518   0.97704   0.19348   0.00000  Uiso   1.00
C477   C     0.19618   0.97929   0.13702   0.00000  Uiso   1.00
C478   C     0.13547   0.68656   0.19368   0.00000  Uiso   1.00
C479   C     0.16627   0.95713   0.16581   0.00000  Uiso   1.00
C480   C     0.16671   0.70906   0.16635   0.00000  Uiso   1.00
C481   C     0.20232   0.85792   0.02766   0.00000  Uiso   1.00
C482   C     0.12912   0.81082   0.30586   0.00000  Uiso   1.00
C483   C     0.19866   0.86072   0.31247   0.00000  Uiso   1.00
C484   C     0.13195   0.80815   0.02058   0.00000  Uiso   1.00
H485   H     0.21893   0.70655   0.11483   0.00000  Uiso   1.00
H486   H     0.11046   0.95949   0.21436   0.00000  Uiso   1.00
H487   H     0.21970   0.96339   0.11509   0.00000  Uiso   1.00
H488   H     0.11018   0.70167   0.21396   0.00000  Uiso   1.00
N489   N     0.16665   0.83332   0.28573   0.00000  Uiso   1.00
N490   N     0.16668   0.83334   0.04760   0.00000  Uiso   1.00
O491   O     0.16666   0.77225   0.20487   0.00000  Uiso   1.00
O492   O     0.16667   0.89442   0.12846   0.00000  Uiso   1.00
O493   O     0.16666   0.77226   0.12843   0.00000  Uiso   1.00
O494   O     0.16667   0.89441   0.20490   0.00000  Uiso   1.00
O495   O     0.09058   0.83333   0.19595   0.00000  Uiso   1.00
O496   O     0.24275   0.83334   0.13739   0.00000  Uiso   1.00
O497   O     0.09058   0.83334   0.11950   0.00000  Uiso   1.00
O498   O     0.24275   0.83333   0.21383   0.00000  Uiso   1.00
Zn499  Zn    0.16667   0.83333   0.21771   0.00000  Uiso   1.00
Zn500  Zn    0.16667   0.83334   0.11563   0.00000  Uiso   1.00
C501   C     0.32682   0.78486   0.12244   0.00000  Uiso   1.00
C502   C     0.32216   0.74491   0.15003   0.00000  Uiso   1.00
H503   H     0.02738   0.73693   0.16739   0.00000  Uiso   1.00
H504   H     0.29389   0.74838   0.17488   0.00000  Uiso   1.00
H505   H     0.30871   0.71839   0.12713   0.00000  Uiso   1.00
H506   H     0.28958   0.78919   0.10109   0.00000  Uiso   1.00
H507   H     0.02092   0.77911   0.09749   0.00000  Uiso   1.00
C508   C     0.00802   0.88105   0.21072   0.00000  Uiso   1.00
C509   C     0.30581   0.91846   0.20754   0.00000  Uiso   1.00
H510   H     0.29694   0.92905   0.17225   0.00000  Uiso   1.00
H511   H     0.26889   0.91014   0.22116   0.00000  Uiso   1.00
H512   H     0.32534   0.94498   0.22776   0.00000  Uiso   1.00
H513   H     0.01412   0.87045   0.24633   0.00000  Uiso   1.00
H514   H     0.04571   0.89422   0.20162   0.00000  Uiso   1.00
O515   O     0.23758   0.88343   0.05499   0.00000  Uiso   1.00
C516   C     0.28948   0.87673   0.04633   0.00000  Uiso   1.00
H517   H     0.29576   0.88160   0.01066   0.00000  Uiso   1.00
H518   H     0.30055   0.84441   0.05564   0.00000  Uiso   1.00
C519   C     0.32670   0.90768   0.07358   0.00000  Uiso   1.00
H520   H     0.32526   0.90240   0.10993   0.00000  Uiso   1.00
H521   H     0.03392   0.90330   0.06602   0.00000  Uiso   1.00
H522   H     0.31581   0.94034   0.06503   0.00000  Uiso   1.00
O523   O     0.08096   0.80243   0.28149   0.00000  Uiso   1.00
C524   C     0.07765   0.76198   0.26260   0.00000  Uiso   1.00
H525   H     0.11148   0.74239   0.27350   0.00000  Uiso   1.00
H526   H     0.07610   0.76515   0.22587   0.00000  Uiso   1.00
C527   C     0.02663   0.73984   0.27178   0.00000  Uiso   1.00
H528   H     0.32640   0.75779   0.25635   0.00000  Uiso   1.00
H529   H     0.02384   0.70781   0.25703   0.00000  Uiso   1.00
H530   H     0.02423   0.73751   0.30845   0.00000  Uiso   1.00
O531   O     0.22371   0.89346   0.29207   0.00000  Uiso   1.00
C532   C     0.20005   0.93155   0.30082   0.00000  Uiso   1.00
H533   H     0.19630   0.93620   0.00380   0.00000  Uiso   1.00
H534   H     0.16035   0.93229   0.28196   0.00000  Uiso   1.00
C535   C     0.23301   0.96873   0.28654   0.00000  Uiso   1.00
H536   H     0.23345   0.96890   0.24955   0.00000  Uiso   1.00
H537   H     0.21626   0.99844   0.29631   0.00000  Uiso   1.00
H538   H     0.27362   0.96726   0.30335   0.00000  Uiso   1.00
O539   O     0.09639   0.78258   0.04014   0.00000  Uiso   1.00
C540   C     0.11404   0.74096   0.04198   0.00000  Uiso   1.00
H541   H     0.15539   0.73938   0.05689   0.00000  Uiso   1.00
H542   H     0.11183   0.72677   0.00836   0.00000  Uiso   1.00
C543   C     0.07959   0.71323   0.06880   0.00000  Uiso   1.00
H544   H     0.03855   0.71273   0.05278   0.00000  Uiso   1.00
H545   H     0.09346   0.68068   0.07002   0.00000  Uiso   1.00
H546   H     0.08095   0.72504   0.10368   0.00000  Uiso   1.00
C547   C     0.50009   0.75340   0.16666   0.00000  Uiso   1.00
C548   C     0.50007   0.91311   0.16651   0.00000  Uiso   1.00
C549   C     0.40088   0.83167   0.15549   0.00000  Uiso   1.00
C550   C     0.59919   0.83408   0.17774   0.00000  Uiso   1.00
C551   C     0.34677   0.82303   0.15185   0.00000  Uiso   1.00
C552   C     0.65314   0.84352   0.18077   0.00000  Uiso   1.00
C553   C     0.52951   0.68899   0.13719   0.00000  Uiso   1.00
C554   C     0.46851   0.97704   0.19348   0.00000  Uiso   1.00
C555   C     0.52951   0.97929   0.13702   0.00000  Uiso   1.00
C556   C     0.46880   0.68656   0.19368   0.00000  Uiso   1.00
C557   C     0.49960   0.95713   0.16581   0.00000  Uiso   1.00
C558   C     0.50005   0.70906   0.16635   0.00000  Uiso   1.00
C559   C     0.53565   0.85792   0.02766   0.00000  Uiso   1.00
C560   C     0.46246   0.81082   0.30586   0.00000  Uiso   1.00
C561   C     0.53199   0.86072   0.31247   0.00000  Uiso   1.00
C562   C     0.46528   0.80815   0.02058   0.00000  Uiso   1.00
H563   H     0.55226   0.70655   0.11483   0.00000  Uiso   1.00
H564   H     0.44379   0.95949   0.21436   0.00000  Uiso   1.00
H565   H     0.55304   0.96339   0.11509   0.00000  Uiso   1.00
H566   H     0.44352   0.70167   0.21396   0.00000  Uiso   1.00
N567   N     0.49999   0.83332   0.28573   0.00000  Uiso   1.00
N568   N     0.50001   0.83334   0.04760   0.00000  Uiso   1.00
O569   O     0.50000   0.77225   0.20487   0.00000  Uiso   1.00
O570   O     0.50000   0.89442   0.12846   0.00000  Uiso   1.00
O571   O     0.50000   0.77226   0.12843   0.00000  Uiso   1.00
O572   O     0.50000   0.89441   0.20490   0.00000  Uiso   1.00
O573   O     0.42392   0.83333   0.19595   0.00000  Uiso   1.00
O574   O     0.57608   0.83334   0.13739   0.00000  Uiso   1.00
O575   O     0.42392   0.83334   0.11950   0.00000  Uiso   1.00
O576   O     0.57608   0.83333   0.21383   0.00000  Uiso   1.00
Zn577  Zn    0.50000   0.83333   0.21771   0.00000  Uiso   1.00
Zn578  Zn    0.50000   0.83334   0.11563   0.00000  Uiso   1.00
C579   C     0.66016   0.78486   0.12244   0.00000  Uiso   1.00
C580   C     0.65550   0.74491   0.15003   0.00000  Uiso   1.00
H581   H     0.36071   0.73693   0.16739   0.00000  Uiso   1.00
H582   H     0.62722   0.74838   0.17488   0.00000  Uiso   1.00
H583   H     0.64204   0.71839   0.12713   0.00000  Uiso   1.00
H584   H     0.62292   0.78919   0.10109   0.00000  Uiso   1.00
H585   H     0.35425   0.77911   0.09749   0.00000  Uiso   1.00
C586   C     0.34136   0.88105   0.21072   0.00000  Uiso   1.00
C587   C     0.63914   0.91846   0.20754   0.00000  Uiso   1.00
H588   H     0.63028   0.92905   0.17225   0.00000  Uiso   1.00
H589   H     0.60223   0.91014   0.22116   0.00000  Uiso   1.00
H590   H     0.65867   0.94498   0.22776   0.00000  Uiso   1.00
H591   H     0.34745   0.87045   0.24633   0.00000  Uiso   1.00
H592   H     0.37904   0.89422   0.20162   0.00000  Uiso   1.00
O593   O     0.57091   0.88343   0.05499   0.00000  Uiso   1.00
C594   C     0.62281   0.87673   0.04633   0.00000  Uiso   1.00
H595   H     0.62910   0.88160   0.01066   0.00000  Uiso   1.00
H596   H     0.63389   0.84441   0.05564   0.00000  Uiso   1.00
C597   C     0.66004   0.90768   0.07358   0.00000  Uiso   1.00
H598   H     0.65859   0.90240   0.10993   0.00000  Uiso   1.00
H599   H     0.36725   0.90330   0.06602   0.00000  Uiso   1.00
H600   H     0.64914   0.94034   0.06503   0.00000  Uiso   1.00
O601   O     0.41430   0.80243   0.28149   0.00000  Uiso   1.00
C602   C     0.41098   0.76198   0.26260   0.00000  Uiso   1.00
H603   H     0.44482   0.74239   0.27350   0.00000  Uiso   1.00
H604   H     0.40943   0.76515   0.22587   0.00000  Uiso   1.00
C605   C     0.35996   0.73984   0.27178   0.00000  Uiso   1.00
H606   H     0.65974   0.75779   0.25635   0.00000  Uiso   1.00
H607   H     0.35718   0.70781   0.25703   0.00000  Uiso   1.00
H608   H     0.35757   0.73751   0.30845   0.00000  Uiso   1.00
O609   O     0.55705   0.89346   0.29207   0.00000  Uiso   1.00
C610   C     0.53338   0.93155   0.30082   0.00000  Uiso   1.00
H611   H     0.52964   0.93620   0.00380   0.00000  Uiso   1.00
H612   H     0.49368   0.93229   0.28196   0.00000  Uiso   1.00
C613   C     0.56634   0.96873   0.28654   0.00000  Uiso   1.00
H614   H     0.56678   0.96890   0.24955   0.00000  Uiso   1.00
H615   H     0.54959   0.99844   0.29631   0.00000  Uiso   1.00
H616   H     0.60695   0.96726   0.30335   0.00000  Uiso   1.00
O617   O     0.42973   0.78258   0.04014   0.00000  Uiso   1.00
C618   C     0.44737   0.74096   0.04198   0.00000  Uiso   1.00
H619   H     0.48872   0.73938   0.05689   0.00000  Uiso   1.00
H620   H     0.44516   0.72677   0.00836   0.00000  Uiso   1.00
C621   C     0.41293   0.71323   0.06880   0.00000  Uiso   1.00
H622   H     0.37188   0.71273   0.05278   0.00000  Uiso   1.00
H623   H     0.42679   0.68068   0.07002   0.00000  Uiso   1.00
H624   H     0.41428   0.72504   0.10368   0.00000  Uiso   1.00
C625   C     0.83342   0.75340   0.16666   0.00000  Uiso   1.00
C626   C     0.83340   0.91311   0.16651   0.00000  Uiso   1.00
C627   C     0.73422   0.83167   0.15549   0.00000  Uiso   1.00
C628   C     0.93252   0.83408   0.17774   0.00000  Uiso   1.00
C629   C     0.68011   0.82303   0.15185   0.00000  Uiso   1.00
C630   C     0.98647   0.84352   0.18077   0.00000  Uiso   1.00
C631   C     0.86284   0.68899   0.13719   0.00000  Uiso   1.00
C632   C     0.80185   0.97704   0.19348   0.00000  Uiso   1.00
C633   C     0.86284   0.97929   0.13702   0.00000  Uiso   1.00
C634   C     0.80214   0.68656   0.19368   0.00000  Uiso   1.00
C635   C     0.83294   0.95713   0.16581   0.00000  Uiso   1.00
C636   C     0.83338   0.70906   0.16635   0.00000  Uiso   1.00
C637   C     0.86898   0.85792   0.02766   0.00000  Uiso   1.00
C638   C     0.79579   0.81082   0.30586   0.00000  Uiso   1.00
C639   C     0.86533   0.86072   0.31247   0.00000  Uiso   1.00
C640   C     0.79862   0.80815   0.02058   0.00000  Uiso   1.00
H641   H     0.88559   0.70655   0.11483   0.00000  Uiso   1.00
H642   H     0.77713   0.95949   0.21436   0.00000  Uiso   1.00
H643   H     0.88637   0.96339   0.11509   0.00000  Uiso   1.00
H644   H     0.77685   0.70167   0.21396   0.00000  Uiso   1.00
N645   N     0.83332   0.83332   0.28573   0.00000  Uiso   1.00
N646   N     0.83335   0.83334   0.04760   0.00000  Uiso   1.00
O647   O     0.83333   0.77225   0.20487   0.00000  Uiso   1.00
O648   O     0.83334   0.89442   0.12846   0.00000  Uiso   1.00
O649   O     0.83333   0.77226   0.12843   0.00000  Uiso   1.00
O650   O     0.83334   0.89441   0.20490   0.00000  Uiso   1.00
O651   O     0.75725   0.83333   0.19595   0.00000  Uiso   1.00
O652   O     0.90942   0.83334   0.13739   0.00000  Uiso   1.00
O653   O     0.75725   0.83334   0.11950   0.00000  Uiso   1.00
O654   O     0.90942   0.83333   0.21383   0.00000  Uiso   1.00
Zn655  Zn    0.83333   0.83333   0.21771   0.00000  Uiso   1.00
Zn656  Zn    0.83333   0.83334   0.11563   0.00000  Uiso   1.00
C657   C     0.99349   0.78486   0.12244   0.00000  Uiso   1.00
C658   C     0.98883   0.74491   0.15003   0.00000  Uiso   1.00
H659   H     0.69404   0.73693   0.16739   0.00000  Uiso   1.00
H660   H     0.96056   0.74838   0.17488   0.00000  Uiso   1.00
H661   H     0.97537   0.71839   0.12713   0.00000  Uiso   1.00
H662   H     0.95625   0.78919   0.10109   0.00000  Uiso   1.00
H663   H     0.68758   0.77911   0.09749   0.00000  Uiso   1.00
C664   C     0.67469   0.88105   0.21072   0.00000  Uiso   1.00
C665   C     0.97247   0.91846   0.20754   0.00000  Uiso   1.00
H666   H     0.96361   0.92905   0.17225   0.00000  Uiso   1.00
H667   H     0.93556   0.91014   0.22116   0.00000  Uiso   1.00
H668   H     0.99201   0.94498   0.22776   0.00000  Uiso   1.00
H669   H     0.68078   0.87045   0.24633   0.00000  Uiso   1.00
H670   H     0.71237   0.89422   0.20162   0.00000  Uiso   1.00
O671   O     0.90424   0.88343   0.05499   0.00000  Uiso   1.00
C672   C     0.95615   0.87673   0.04633   0.00000  Uiso   1.00
H673   H     0.96243   0.88160   0.01066   0.00000  Uiso   1.00
H674   H     0.96722   0.84441   0.05564   0.00000  Uiso   1.00
C675   C     0.99337   0.90768   0.07358   0.00000  Uiso   1.00
H676   H     0.99193   0.90240   0.10993   0.00000  Uiso   1.00
H677   H     0.70059   0.90330   0.06602   0.00000  Uiso   1.00
H678   H     0.98248   0.94034   0.06503   0.00000  Uiso   1.00
O679   O     0.74763   0.80243   0.28149   0.00000  Uiso   1.00
C680   C     0.74432   0.76198   0.26260   0.00000  Uiso   1.00
H681   H     0.77815   0.74239   0.27350   0.00000  Uiso   1.00
H682   H     0.74277   0.76515   0.22587   0.00000  Uiso   1.00
C683   C     0.69329   0.73984   0.27178   0.00000  Uiso   1.00
H684   H     0.99307   0.75779   0.25635   0.00000  Uiso   1.00
H685   H     0.69051   0.70781   0.25703   0.00000  Uiso   1.00
H686   H     0.69090   0.73751   0.30845   0.00000  Uiso   1.00
O687   O     0.89038   0.89346   0.29207   0.00000  Uiso   1.00
C688   C     0.86672   0.93155   0.30082   0.00000  Uiso   1.00
H689   H     0.86297   0.93620   0.00380   0.00000  Uiso   1.00
H690   H     0.82701   0.93229   0.28196   0.00000  Uiso   1.00
C691   C     0.89967   0.96873   0.28654   0.00000  Uiso   1.00
H692   H     0.90012   0.96890   0.24955   0.00000  Uiso   1.00
H693   H     0.88293   0.99844   0.29631   0.00000  Uiso   1.00
H694   H     0.94028   0.96726   0.30335   0.00000  Uiso   1.00
O695   O     0.76306   0.78258   0.04014   0.00000  Uiso   1.00
C696   C     0.78070   0.74096   0.04198   0.00000  Uiso   1.00
H697   H     0.82206   0.73938   0.05689   0.00000  Uiso   1.00
H698   H     0.77849   0.72677   0.00836   0.00000  Uiso   1.00
C699   C     0.74626   0.71323   0.06880   0.00000  Uiso   1.00
H700   H     0.70522   0.71273   0.05278   0.00000  Uiso   1.00
H701   H     0.76013   0.68068   0.07002   0.00000  Uiso   1.00
H702   H     0.74762   0.72504   0.10368   0.00000  Uiso   1.00
C703   C     0.16675   0.08673   0.49999   0.00000  Uiso   1.00
C704   C     0.16674   0.24645   0.49985   0.00000  Uiso   1.00
C705   C     0.06755   0.16500   0.48882   0.00000  Uiso   1.00
C706   C     0.26586   0.16741   0.51108   0.00000  Uiso   1.00
C707   C     0.01344   0.15637   0.48519   0.00000  Uiso   1.00
C708   C     0.31980   0.17685   0.51411   0.00000  Uiso   1.00
C709   C     0.19618   0.02233   0.47052   0.00000  Uiso   1.00
C710   C     0.13518   0.31037   0.52681   0.00000  Uiso   1.00
C711   C     0.19618   0.31262   0.47035   0.00000  Uiso   1.00
C712   C     0.13547   0.01990   0.52701   0.00000  Uiso   1.00
C713   C     0.16627   0.29046   0.49914   0.00000  Uiso   1.00
C714   C     0.16671   0.04239   0.49969   0.00000  Uiso   1.00
C715   C     0.20232   0.19125   0.36099   0.00000  Uiso   1.00
C716   C     0.12912   0.14415   0.63920   0.00000  Uiso   1.00
C717   C     0.19866   0.19406   0.64581   0.00000  Uiso   1.00
C718   C     0.13195   0.14149   0.35392   0.00000  Uiso   1.00
H719   H     0.21893   0.03988   0.44816   0.00000  Uiso   1.00
H720   H     0.11046   0.29283   0.54770   0.00000  Uiso   1.00
H721   H     0.21970   0.29672   0.44842   0.00000  Uiso   1.00
H722   H     0.11018   0.03501   0.54730   0.00000  Uiso   1.00
N723   N     0.16665   0.16666   0.61907   0.00000  Uiso   1.00
N724   N     0.16668   0.16668   0.38093   0.00000  Uiso   1.00
O725   O     0.16666   0.10558   0.53821   0.00000  Uiso   1.00
O726   O     0.16667   0.22775   0.46179   0.00000  Uiso   1.00
O727   O     0.16666   0.10559   0.46176   0.00000  Uiso   1.00
O728   O     0.16667   0.22774   0.53824   0.00000  Uiso   1.00
O729   O     0.09058   0.16666   0.52928   0.00000  Uiso   1.00
O730   O     0.24275   0.16667   0.47072   0.00000  Uiso   1.00
O731   O     0.09058   0.16667   0.45284   0.00000  Uiso   1.00
O732   O     0.24275   0.16666   0.54716   0.00000  Uiso   1.00
Zn733  Zn    0.16667   0.16666   0.55104   0.00000  Uiso   1.00
Zn734  Zn    0.16667   0.16667   0.44896   0.00000  Uiso   1.00
C735   C     0.32682   0.11819   0.45578   0.00000  Uiso   1.00
C736   C     0.32216   0.07824   0.48336   0.00000  Uiso   1.00
H737   H     0.02738   0.07026   0.50072   0.00000  Uiso   1.00
H738   H     0.29389   0.08171   0.50821   0.00000  Uiso   1.00
H739   H     0.30871   0.05172   0.46046   0.00000  Uiso   1.00
H740   H     0.28958   0.12252   0.43442   0.00000  Uiso   1.00
H741   H     0.02092   0.11244   0.43082   0.00000  Uiso   1.00
C742   C     0.00802   0.21439   0.54406   0.00000  Uiso   1.00
C743   C     0.30581   0.25179   0.54088   0.00000  Uiso   1.00
H744   H     0.29694   0.26239   0.50558   0.00000  Uiso   1.00
H745   H     0.26889   0.24347   0.55449   0.00000  Uiso   1.00
H746   H     0.32534   0.27831   0.56109   0.00000  Uiso   1.00
H747   H     0.01412   0.20378   0.57967   0.00000  Uiso   1.00
H748   H     0.04571   0.22755   0.53495   0.00000  Uiso   1.00
O749   O     0.23758   0.21676   0.38832   0.00000  Uiso   1.00
C750   C     0.28948   0.21007   0.37966   0.00000  Uiso   1.00
H751   H     0.29576   0.21494   0.34400   0.00000  Uiso   1.00
H752   H     0.30055   0.17775   0.38897   0.00000  Uiso   1.00
C753   C     0.32670   0.24101   0.40691   0.00000  Uiso   1.00
H754   H     0.32526   0.23573   0.44326   0.00000  Uiso   1.00
H755   H     0.03392   0.23663   0.39936   0.00000  Uiso   1.00
H756   H     0.31581   0.27367   0.39836   0.00000  Uiso   1.00
O757   O     0.08096   0.13576   0.61482   0.00000  Uiso   1.00
C758   C     0.07765   0.09532   0.59593   0.00000  Uiso   1.00
H759   H     0.11148   0.07572   0.60683   0.00000  Uiso   1.00
H760   H     0.07610   0.09848   0.55921   0.00000  Uiso   1.00
C761   C     0.02663   0.07318   0.60511   0.00000  Uiso   1.00
H762   H     0.32640   0.09112   0.58968   0.00000  Uiso   1.00
H763   H     0.02384   0.04114   0.59036   0.00000  Uiso   1.00
H764   H     0.02423   0.07084   0.64178   0.00000  Uiso   1.00
O765   O     0.22371   0.22679   0.62540   0.00000  Uiso   1.00
C766   C     0.20005   0.26489   0.63415   0.00000  Uiso   1.00
H767   H     0.19630   0.26953   0.33714   0.00000  Uiso   1.00
H768   H     0.16035   0.26563   0.61529   0.00000  Uiso   1.00
C769   C     0.23301   0.30206   0.61987   0.00000  Uiso   1.00
H770   H     0.23345   0.30224   0.58288   0.00000  Uiso   1.00
H771   H     0.21626   0.33178   0.62964   0.00000  Uiso   1.00
H772   H     0.27362   0.30059   0.63669   0.00000  Uiso   1.00
O773   O     0.09639   0.11592   0.37348   0.00000  Uiso   1.00
C774   C     0.11404   0.07429   0.37531   0.00000  Uiso   1.00
H775   H     0.15539   0.07271   0.39022   0.00000  Uiso   1.00
H776   H     0.11183   0.06010   0.34170   0.00000  Uiso   1.00
C777   C     0.07959   0.04656   0.40214   0.00000  Uiso   1.00
H778   H     0.03855   0.04606   0.38611   0.00000  Uiso   1.00
H779   H     0.09346   0.01401   0.40335   0.00000  Uiso   1.00
H780   H     0.08095   0.05837   0.43701   0.00000  Uiso   1.00
C781   C     0.50009   0.08673   0.49999   0.00000  Uiso   1.00
C782   C     0.50007   0.24645   0.49985   0.00000  Uiso   1.00
C783   C     0.40088   0.16500   0.48882   0.00000  Uiso   1.00
C784   C     0.59919   0.16741   0.51108   0.00000  Uiso   1.00
C785   C     0.34677   0.15637   0.48519   0.00000  Uiso   1.00
C786   C     0.65314   0.17685   0.51411   0.00000  Uiso   1.00
C787   C     0.52951   0.02233   0.47052   0.00000  Uiso   1.00
C788   C     0.46851   0.31037   0.52681   0.00000  Uiso   1.00
C789   C     0.52951   0.31262   0.47035   0.00000  Uiso   1.00
C790   C     0.46880   0.01990   0.52701   0.00000  Uiso   1.00
C791   C     0.49960   0.29046   0.49914   0.00000  Uiso   1.00
C792   C     0.50005   0.04239   0.49969   0.00000  Uiso   1.00
C793   C     0.53565   0.19125   0.36099   0.00000  Uiso   1.00
C794   C     0.46246   0.14415   0.63920   0.00000  Uiso   1.00
C795   C     0.53199   0.19406   0.64581   0.00000  Uiso   1.00
C796   C     0.46528   0.14149   0.35392   0.00000  Uiso   1.00
H797   H     0.55226   0.03988   0.44816   0.00000  Uiso   1.00
H798   H     0.44379   0.29283   0.54770   0.00000  Uiso   1.00
H799   H     0.55304   0.29672   0.44842   0.00000  Uiso   1.00
H800   H     0.44352   0.03501   0.54730   0.00000  Uiso   1.00
N801   N     0.49999   0.16666   0.61907   0.00000  Uiso   1.00
N802   N     0.50001   0.16668   0.38093   0.00000  Uiso   1.00
O803   O     0.50000   0.10558   0.53821   0.00000  Uiso   1.00
O804   O     0.50000   0.22775   0.46179   0.00000  Uiso   1.00
O805   O     0.50000   0.10559   0.46176   0.00000  Uiso   1.00
O806   O     0.50000   0.22774   0.53824   0.00000  Uiso   1.00
O807   O     0.42392   0.16666   0.52928   0.00000  Uiso   1.00
O808   O     0.57608   0.16667   0.47072   0.00000  Uiso   1.00
O809   O     0.42392   0.16667   0.45284   0.00000  Uiso   1.00
O810   O     0.57608   0.16666   0.54716   0.00000  Uiso   1.00
Zn811  Zn    0.50000   0.16666   0.55104   0.00000  Uiso   1.00
Zn812  Zn    0.50000   0.16667   0.44896   0.00000  Uiso   1.00
C813   C     0.66016   0.11819   0.45578   0.00000  Uiso   1.00
C814   C     0.65550   0.07824   0.48336   0.00000  Uiso   1.00
H815   H     0.36071   0.07026   0.50072   0.00000  Uiso   1.00
H816   H     0.62722   0.08171   0.50821   0.00000  Uiso   1.00
H817   H     0.64204   0.05172   0.46046   0.00000  Uiso   1.00
H818   H     0.62292   0.12252   0.43442   0.00000  Uiso   1.00
H819   H     0.35425   0.11244   0.43082   0.00000  Uiso   1.00
C820   C     0.34136   0.21439   0.54406   0.00000  Uiso   1.00
C821   C     0.63914   0.25179   0.54088   0.00000  Uiso   1.00
H822   H     0.63028   0.26239   0.50558   0.00000  Uiso   1.00
H823   H     0.60223   0.24347   0.55449   0.00000  Uiso   1.00
H824   H     0.65867   0.27831   0.56109   0.00000  Uiso   1.00
H825   H     0.34745   0.20378   0.57967   0.00000  Uiso   1.00
H826   H     0.37904   0.22755   0.53495   0.00000  Uiso   1.00
O827   O     0.57091   0.21676   0.38832   0.00000  Uiso   1.00
C828   C     0.62281   0.21007   0.37966   0.00000  Uiso   1.00
H829   H     0.62910   0.21494   0.34400   0.00000  Uiso   1.00
H830   H     0.63389   0.17775   0.38897   0.00000  Uiso   1.00
C831   C     0.66004   0.24101   0.40691   0.00000  Uiso   1.00
H832   H     0.65859   0.23573   0.44326   0.00000  Uiso   1.00
H833   H     0.36725   0.23663   0.39936   0.00000  Uiso   1.00
H834   H     0.64914   0.27367   0.39836   0.00000  Uiso   1.00
O835   O     0.41430   0.13576   0.61482   0.00000  Uiso   1.00
C836   C     0.41098   0.09532   0.59593   0.00000  Uiso   1.00
H837   H     0.44482   0.07572   0.60683   0.00000  Uiso   1.00
H838   H     0.40943   0.09848   0.55921   0.00000  Uiso   1.00
C839   C     0.35996   0.07318   0.60511   0.00000  Uiso   1.00
H840   H     0.65974   0.09112   0.58968   0.00000  Uiso   1.00
H841   H     0.35718   0.04114   0.59036   0.00000  Uiso   1.00
H842   H     0.35757   0.07084   0.64178   0.00000  Uiso   1.00
O843   O     0.55705   0.22679   0.62540   0.00000  Uiso   1.00
C844   C     0.53338   0.26489   0.63415   0.00000  Uiso   1.00
H845   H     0.52964   0.26953   0.33714   0.00000  Uiso   1.00
H846   H     0.49368   0.26563   0.61529   0.00000  Uiso   1.00
C847   C     0.56634   0.30206   0.61987   0.00000  Uiso   1.00
H848   H     0.56678   0.30224   0.58288   0.00000  Uiso   1.00
H849   H     0.54959   0.33178   0.62964   0.00000  Uiso   1.00
H850   H     0.60695   0.30059   0.63669   0.00000  Uiso   1.00
O851   O     0.42973   0.11592   0.37348   0.00000  Uiso   1.00
C852   C     0.44737   0.07429   0.37531   0.00000  Uiso   1.00
H853   H     0.48872   0.07271   0.39022   0.00000  Uiso   1.00
H854   H     0.44516   0.06010   0.34170   0.00000  Uiso   1.00
C855   C     0.41293   0.04656   0.40214   0.00000  Uiso   1.00
H856   H     0.37188   0.04606   0.38611   0.00000  Uiso   1.00
H857   H     0.42679   0.01401   0.40335   0.00000  Uiso   1.00
H858   H     0.41428   0.05837   0.43701   0.00000  Uiso   1.00
C859   C     0.83342   0.08673   0.49999   0.00000  Uiso   1.00
C860   C     0.83340   0.24645   0.49985   0.00000  Uiso   1.00
C861   C     0.73422   0.16500   0.48882   0.00000  Uiso   1.00
C862   C     0.93252   0.16741   0.51108   0.00000  Uiso   1.00
C863   C     0.68011   0.15637   0.48519   0.00000  Uiso   1.00
C864   C     0.98647   0.17685   0.51411   0.00000  Uiso   1.00
C865   C     0.86284   0.02233   0.47052   0.00000  Uiso   1.00
C866   C     0.80185   0.31037   0.52681   0.00000  Uiso   1.00
C867   C     0.86284   0.31262   0.47035   0.00000  Uiso   1.00
C868   C     0.80214   0.01990   0.52701   0.00000  Uiso   1.00
C869   C     0.83294   0.29046   0.49914   0.00000  Uiso   1.00
C870   C     0.83338   0.04239   0.49969   0.00000  Uiso   1.00
C871   C     0.86898   0.19125   0.36099   0.00000  Uiso   1.00
C872   C     0.79579   0.14415   0.63920   0.00000  Uiso   1.00
C873   C     0.86533   0.19406   0.64581   0.00000  Uiso   1.00
C874   C     0.79862   0.14149   0.35392   0.00000  Uiso   1.00
H875   H     0.88559   0.03988   0.44816   0.00000  Uiso   1.00
H876   H     0.77713   0.29283   0.54770   0.00000  Uiso   1.00
H877   H     0.88637   0.29672   0.44842   0.00000  Uiso   1.00
H878   H     0.77685   0.03501   0.54730   0.00000  Uiso   1.00
N879   N     0.83332   0.16666   0.61907   0.00000  Uiso   1.00
N880   N     0.83335   0.16668   0.38093   0.00000  Uiso   1.00
O881   O     0.83333   0.10558   0.53821   0.00000  Uiso   1.00
O882   O     0.83334   0.22775   0.46179   0.00000  Uiso   1.00
O883   O     0.83333   0.10559   0.46176   0.00000  Uiso   1.00
O884   O     0.83334   0.22774   0.53824   0.00000  Uiso   1.00
O885   O     0.75725   0.16666   0.52928   0.00000  Uiso   1.00
O886   O     0.90942   0.16667   0.47072   0.00000  Uiso   1.00
O887   O     0.75725   0.16667   0.45284   0.00000  Uiso   1.00
O888   O     0.90942   0.16666   0.54716   0.00000  Uiso   1.00
Zn889  Zn    0.83333   0.16666   0.55104   0.00000  Uiso   1.00
Zn890  Zn    0.83333   0.16667   0.44896   0.00000  Uiso   1.00
C891   C     0.99349   0.11819   0.45578   0.00000  Uiso   1.00
C892   C     0.98883   0.07824   0.48336   0.00000  Uiso   1.00
H893   H     0.69404   0.07026   0.50072   0.00000  Uiso   1.00
H894   H     0.96056   0.08171   0.50821   0.00000  Uiso   1.00
H895   H     0.97537   0.05172   0.46046   0.00000  Uiso   1.00
H896   H     0.95625   0.12252   0.43442   0.00000  Uiso   1.00
H897   H     0.68758   0.11244   0.43082   0.00000  Uiso   1.00
C898   C     0.67469   0.21439   0.54406   0.00000  Uiso   1.00
C899   C     0.97247   0.25179   0.54088   0.00000  Uiso   1.00
H900   H     0.96361   0.26239   0.50558   0.00000  Uiso   1.00
H901   H     0.93556   0.24347   0.55449   0.00000  Uiso   1.00
H902   H     0.99201   0.27831   0.56109   0.00000  Uiso   1.00
H903   H     0.68078   0.20378   0.57967   0.00000  Uiso   1.00
H904   H     0.71237   0.22755   0.53495   0.00000  Uiso   1.00
O905   O     0.90424   0.21676   0.38832   0.00000  Uiso   1.00
C906   C     0.95615   0.21007   0.37966   0.00000  Uiso   1.00
H907   H     0.96243   0.21494   0.34400   0.00000  Uiso   1.00
H908   H     0.96722   0.17775   0.38897   0.00000  Uiso   1.00
C909   C     0.99337   0.24101   0.40691   0.00000  Uiso   1.00
H910   H     0.99193   0.23573   0.44326   0.00000  Uiso   1.00
H911   H     0.70059   0.23663   0.39936   0.00000  Uiso   1.00
H912   H     0.98248   0.27367   0.39836   0.00000  Uiso   1.00
O913   O     0.74763   0.13576   0.61482   0.00000  Uiso   1.00
C914   C     0.74432   0.09532   0.59593   0.00000  Uiso   1.00
H915   H     0.77815   0.07572   0.60683   0.00000  Uiso   1.00
H916   H     0.74277   0.09848   0.55921   0.00000  Uiso   1.00
C917   C     0.69329   0.07318   0.60511   0.00000  Uiso   1.00
H918   H     0.99307   0.09112   0.58968   0.00000  Uiso   1.00
H919   H     0.69051   0.04114   0.59036   0.00000  Uiso   1.00
H920   H     0.69090   0.07084   0.64178   0.00000  Uiso   1.00
O921   O     0.89038   0.22679   0.62540   0.00000  Uiso   1.00
C922   C     0.86672   0.26489   0.63415   0.00000  Uiso   1.00
H923   H     0.86297   0.26953   0.33714   0.00000  Uiso   1.00
H924   H     0.82701   0.26563   0.61529   0.00000  Uiso   1.00
C925   C     0.89967   0.30206   0.61987   0.00000  Uiso   1.00
H926   H     0.90012   0.30224   0.58288   0.00000  Uiso   1.00
H927   H     0.88293   0.33178   0.62964   0.00000  Uiso   1.00
H928   H     0.94028   0.30059   0.63669   0.00000  Uiso   1.00
O929   O     0.76306   0.11592   0.37348   0.00000  Uiso   1.00
C930   C     0.78070   0.07429   0.37531   0.00000  Uiso   1.00
H931   H     0.82206   0.07271   0.39022   0.00000  Uiso   1.00
H932   H     0.77849   0.06010   0.34170   0.00000  Uiso   1.00
C933   C     0.74626   0.04656   0.40214   0.00000  Uiso   1.00
H934   H     0.70522   0.04606   0.38611   0.00000  Uiso   1.00
H935   H     0.76013   0.01401   0.40335   0.00000  Uiso   1.00
H936   H     0.74762   0.05837   0.43701   0.00000  Uiso   1.00
C937   C     0.16675   0.42007   0.49999   0.00000  Uiso   1.00
C938   C     0.16674   0.57978   0.49985   0.00000  Uiso   1.00
C939   C     0.06755   0.49834   0.48882   0.00000  Uiso   1.00
C940   C     0.26586   0.50074   0.51108   0.00000  Uiso   1.00
C941   C     0.01344   0.48970   0.48519   0.00000  Uiso   1.00
C942   C     0.31980   0.51018   0.51411   0.00000  Uiso   1.00
C943   C     0.19618   0.35566   0.47052   0.00000  Uiso   1.00
C944   C     0.13518   0.64370   0.52681   0.00000  Uiso   1.00
C945   C     0.19618   0.64596   0.47035   0.00000  Uiso   1.00
C946   C     0.13547   0.35323   0.52701   0.00000  Uiso   1.00
C947   C     0.16627   0.62379   0.49914   0.00000  Uiso   1.00
C948   C     0.16671   0.37573   0.49969   0.00000  Uiso   1.00
C949   C     0.20232   0.52458   0.36099   0.00000  Uiso   1.00
C950   C     0.12912   0.47748   0.63920   0.00000  Uiso   1.00
C951   C     0.19866   0.52739   0.64581   0.00000  Uiso   1.00
C952   C     0.13195   0.47482   0.35392   0.00000  Uiso   1.00
H953   H     0.21893   0.37321   0.44816   0.00000  Uiso   1.00
H954   H     0.11046   0.62616   0.54770   0.00000  Uiso   1.00
H955   H     0.21970   0.63005   0.44842   0.00000  Uiso   1.00
H956   H     0.11018   0.36834   0.54730   0.00000  Uiso   1.00
N957   N     0.16665   0.49999   0.61907   0.00000  Uiso   1.00
N958   N     0.16668   0.50001   0.38093   0.00000  Uiso   1.00
O959   O     0.16666   0.43892   0.53821   0.00000  Uiso   1.00
O960   O     0.16667   0.56108   0.46179   0.00000  Uiso   1.00
O961   O     0.16666   0.43893   0.46176   0.00000  Uiso   1.00
O962   O     0.16667   0.56107   0.53824   0.00000  Uiso   1.00
O963   O     0.09058   0.50000   0.52928   0.00000  Uiso   1.00
O964   O     0.24275   0.50000   0.47072   0.00000  Uiso   1.00
O965   O     0.09058   0.50000   0.45284   0.00000  Uiso   1.00
O966   O     0.24275   0.50000   0.54716   0.00000  Uiso   1.00
Zn967  Zn    0.16667   0.49999   0.55104   0.00000  Uiso   1.00
Zn968  Zn    0.16667   0.50001   0.44896   0.00000  Uiso   1.00
C969   C     0.32682   0.45152   0.45578   0.00000  Uiso   1.00
C970   C     0.32216   0.41158   0.48336   0.00000  Uiso   1.00
H971   H     0.02738   0.40359   0.50072   0.00000  Uiso   1.00
H972   H     0.29389   0.41504   0.50821   0.00000  Uiso   1.00
H973   H     0.30871   0.38505   0.46046   0.00000  Uiso   1.00
H974   H     0.28958   0.45585   0.43442   0.00000  Uiso   1.00
H975   H     0.02092   0.44578   0.43082   0.00000  Uiso   1.00
C976   C     0.00802   0.54772   0.54406   0.00000  Uiso   1.00
C977   C     0.30581   0.58512   0.54088   0.00000  Uiso   1.00
H978   H     0.29694   0.59572   0.50558   0.00000  Uiso   1.00
H979   H     0.26889   0.57680   0.55449   0.00000  Uiso   1.00
H980   H     0.32534   0.61165   0.56109   0.00000  Uiso   1.00
H981   H     0.01412   0.53711   0.57967   0.00000  Uiso   1.00
H982   H     0.04571   0.56089   0.53495   0.00000  Uiso   1.00
O983   O     0.23758   0.55010   0.38832   0.00000  Uiso   1.00
C984   C     0.28948   0.54340   0.37966   0.00000  Uiso   1.00
H985   H     0.29576   0.54827   0.34400   0.00000  Uiso   1.00
H986   H     0.30055   0.51108   0.38897   0.00000  Uiso   1.00
C987   C     0.32670   0.57435   0.40691   0.00000  Uiso   1.00
H988   H     0.32526   0.56906   0.44326   0.00000  Uiso   1.00
H989   H     0.03392   0.56997   0.39936   0.00000  Uiso   1.00
H990   H     0.31581   0.60700   0.39836   0.00000  Uiso   1.00
O991   O     0.08096   0.46910   0.61482   0.00000  Uiso   1.00
C992   C     0.07765   0.42865   0.59593   0.00000  Uiso   1.00
H993   H     0.11148   0.40906   0.60683   0.00000  Uiso   1.00
H994   H     0.07610   0.43182   0.55921   0.00000  Uiso   1.00
C995   C     0.02663   0.40651   0.60511   0.00000  Uiso   1.00
H996   H     0.32640   0.42445   0.58968   0.00000  Uiso   1.00
H997   H     0.02384   0.37448   0.59036   0.00000  Uiso   1.00
H998   H     0.02423   0.40418   0.64178   0.00000  Uiso   1.00
O999   O     0.22371   0.56012   0.62540   0.00000  Uiso   1.00
C1000  C     0.20005   0.59822   0.63415   0.00000  Uiso   1.00
H1001  H     0.19630   0.60286   0.33714   0.00000  Uiso   1.00
H1002  H     0.16035   0.59896   0.61529   0.00000  Uiso   1.00
C1003  C     0.23301   0.63540   0.61987   0.00000  Uiso   1.00
H1004  H     0.23345   0.63557   0.58288   0.00000  Uiso   1.00
H1005  H     0.21626   0.66511   0.62964   0.00000  Uiso   1.00
H1006  H     0.27362   0.63392   0.63669   0.00000  Uiso   1.00
O1007  O     0.09639   0.44925   0.37348   0.00000  Uiso   1.00
C1008  C     0.11404   0.40763   0.37531   0.00000  Uiso   1.00
H1009  H     0.15539   0.40605   0.39022   0.00000  Uiso   1.00
H1010  H     0.11183   0.39343   0.34170   0.00000  Uiso   1.00
C1011  C     0.07959   0.37990   0.40214   0.00000  Uiso   1.00
H1012  H     0.03855   0.37940   0.38611   0.00000  Uiso   1.00
H1013  H     0.09346   0.34734   0.40335   0.00000  Uiso   1.00
H1014  H     0.08095   0.39171   0.43701   0.00000  Uiso   1.00
C1015  C     0.50009   0.42007   0.49999   0.00000  Uiso   1.00
C1016  C     0.50007   0.57978   0.49985   0.00000  Uiso   1.00
C1017  C     0.40088   0.49834   0.48882   0.00000  Uiso   1.00
C1018  C     0.59919   0.50074   0.51108   0.00000  Uiso   1.00
C1019  C     0.34677   0.48970   0.48519   0.00000  Uiso   1.00
C1020  C     0.65314   0.51018   0.51411   0.00000  Uiso   1.00
C1021  C     0.52951   0.35566   0.47052   0.00000  Uiso   1.00
C1022  C     0.46851   0.64370   0.52681   0.00000  Uiso   1.00
C1023  C     0.52951   0.64596   0.47035   0.00000  Uiso   1.00
C1024  C     0.46880   0.35323   0.52701   0.00000  Uiso   1.00
C1025  C     0.49960   0.62379   0.49914   0.00000  Uiso   1.00
C1026  C     0.50005   0.37573   0.49969   0.00000  Uiso   1.00
C1027  C     0.53565   0.52458   0.36099   0.00000  Uiso   1.00
C1028  C     0.46246   0.47748   0.63920   0.00000  Uiso   1.00
C1029  C     0.53199   0.52739   0.64581   0.00000  Uiso   1.00
C1030  C     0.46528   0.47482   0.35392   0.00000  Uiso   1.00
H1031  H     0.55226   0.37321   0.44816   0.00000  Uiso   1.00
H1032  H     0.44379   0.62616   0.54770   0.00000  Uiso   1.00
H1033  H     0.55304   0.63005   0.44842   0.00000  Uiso   1.00
H1034  H     0.44352   0.36834   0.54730   0.00000  Uiso   1.00
N1035  N     0.49999   0.49999   0.61907   0.00000  Uiso   1.00
N1036  N     0.50001   0.50001   0.38093   0.00000  Uiso   1.00
O1037  O     0.50000   0.43892   0.53821   0.00000  Uiso   1.00
O1038  O     0.50000   0.56108   0.46179   0.00000  Uiso   1.00
O1039  O     0.50000   0.43893   0.46176   0.00000  Uiso   1.00
O1040  O     0.50000   0.56107   0.53824   0.00000  Uiso   1.00
O1041  O     0.42392   0.50000   0.52928   0.00000  Uiso   1.00
O1042  O     0.57608   0.50000   0.47072   0.00000  Uiso   1.00
O1043  O     0.42392   0.50000   0.45284   0.00000  Uiso   1.00
O1044  O     0.57608   0.50000   0.54716   0.00000  Uiso   1.00
Zn1045 Zn    0.50000   0.49999   0.55104   0.00000  Uiso   1.00
Zn1046 Zn    0.50000   0.50001   0.44896   0.00000  Uiso   1.00
C1047  C     0.66016   0.45152   0.45578   0.00000  Uiso   1.00
C1048  C     0.65550   0.41158   0.48336   0.00000  Uiso   1.00
H1049  H     0.36071   0.40359   0.50072   0.00000  Uiso   1.00
H1050  H     0.62722   0.41504   0.50821   0.00000  Uiso   1.00
H1051  H     0.64204   0.38505   0.46046   0.00000  Uiso   1.00
H1052  H     0.62292   0.45585   0.43442   0.00000  Uiso   1.00
H1053  H     0.35425   0.44578   0.43082   0.00000  Uiso   1.00
C1054  C     0.34136   0.54772   0.54406   0.00000  Uiso   1.00
C1055  C     0.63914   0.58512   0.54088   0.00000  Uiso   1.00
H1056  H     0.63028   0.59572   0.50558   0.00000  Uiso   1.00
H1057  H     0.60223   0.57680   0.55449   0.00000  Uiso   1.00
H1058  H     0.65867   0.61165   0.56109   0.00000  Uiso   1.00
H1059  H     0.34745   0.53711   0.57967   0.00000  Uiso   1.00
H1060  H     0.37904   0.56089   0.53495   0.00000  Uiso   1.00
O1061  O     0.57091   0.55010   0.38832   0.00000  Uiso   1.00
C1062  C     0.62281   0.54340   0.37966   0.00000  Uiso   1.00
H1063  H     0.62910   0.54827   0.34400   0.00000  Uiso   1.00
H1064  H     0.63389   0.51108   0.38897   0.00000  Uiso   1.00
C1065  C     0.66004   0.57435   0.40691   0.00000  Uiso   1.00
H1066  H     0.65859   0.56906   0.44326   0.00000  Uiso   1.00
H1067  H     0.36725   0.56997   0.39936   0.00000  Uiso   1.00
H1068  H     0.64914   0.60700   0.39836   0.00000  Uiso   1.00
O1069  O     0.41430   0.46910   0.61482   0.00000  Uiso   1.00
C1070  C     0.41098   0.42865   0.59593   0.00000  Uiso   1.00
H1071  H     0.44482   0.40906   0.60683   0.00000  Uiso   1.00
H1072  H     0.40943   0.43182   0.55921   0.00000  Uiso   1.00
C1073  C     0.35996   0.40651   0.60511   0.00000  Uiso   1.00
H1074  H     0.65974   0.42445   0.58968   0.00000  Uiso   1.00
H1075  H     0.35718   0.37448   0.59036   0.00000  Uiso   1.00
H1076  H     0.35757   0.40418   0.64178   0.00000  Uiso   1.00
O1077  O     0.55705   0.56012   0.62540   0.00000  Uiso   1.00
C1078  C     0.53338   0.59822   0.63415   0.00000  Uiso   1.00
H1079  H     0.52964   0.60286   0.33714   0.00000  Uiso   1.00
H1080  H     0.49368   0.59896   0.61529   0.00000  Uiso   1.00
C1081  C     0.56634   0.63540   0.61987   0.00000  Uiso   1.00
H1082  H     0.56678   0.63557   0.58288   0.00000  Uiso   1.00
H1083  H     0.54959   0.66511   0.62964   0.00000  Uiso   1.00
H1084  H     0.60695   0.63392   0.63669   0.00000  Uiso   1.00
O1085  O     0.42973   0.44925   0.37348   0.00000  Uiso   1.00
C1086  C     0.44737   0.40763   0.37531   0.00000  Uiso   1.00
H1087  H     0.48872   0.40605   0.39022   0.00000  Uiso   1.00
H1088  H     0.44516   0.39343   0.34170   0.00000  Uiso   1.00
C1089  C     0.41293   0.37990   0.40214   0.00000  Uiso   1.00
H1090  H     0.37188   0.37940   0.38611   0.00000  Uiso   1.00
H1091  H     0.42679   0.34734   0.40335   0.00000  Uiso   1.00
H1092  H     0.41428   0.39171   0.43701   0.00000  Uiso   1.00
C1093  C     0.83342   0.42007   0.49999   0.00000  Uiso   1.00
C1094  C     0.83340   0.57978   0.49985   0.00000  Uiso   1.00
C1095  C     0.73422   0.49834   0.48882   0.00000  Uiso   1.00
C1096  C     0.93252   0.50074   0.51108   0.00000  Uiso   1.00
C1097  C     0.68011   0.48970   0.48519   0.00000  Uiso   1.00
C1098  C     0.98647   0.51018   0.51411   0.00000  Uiso   1.00
C1099  C     0.86284   0.35566   0.47052   0.00000  Uiso   1.00
C1100  C     0.80185   0.64370   0.52681   0.00000  Uiso   1.00
C1101  C     0.86284   0.64596   0.47035   0.00000  Uiso   1.00
C1102  C     0.80214   0.35323   0.52701   0.00000  Uiso   1.00
C1103  C     0.83294   0.62379   0.49914   0.00000  Uiso   1.00
C1104  C     0.83338   0.37573   0.49969   0.00000  Uiso   1.00
C1105  C     0.86898   0.52458   0.36099   0.00000  Uiso   1.00
C1106  C     0.79579   0.47748   0.63920   0.00000  Uiso   1.00
C1107  C     0.86533   0.52739   0.64581   0.00000  Uiso   1.00
C1108  C     0.79862   0.47482   0.35392   0.00000  Uiso   1.00
H1109  H     0.88559   0.37321   0.44816   0.00000  Uiso   1.00
H1110  H     0.77713   0.62616   0.54770   0.00000  Uiso   1.00
H1111  H     0.88637   0.63005   0.44842   0.00000  Uiso   1.00
H1112  H     0.77685   0.36834   0.54730   0.00000  Uiso   1.00
N1113  N     0.83332   0.49999   0.61907   0.00000  Uiso   1.00
N1114  N     0.83335   0.50001   0.38093   0.00000  Uiso   1.00
O1115  O     0.83333   0.43892   0.53821   0.00000  Uiso   1.00
O1116  O     0.83334   0.56108   0.46179   0.00000  Uiso   1.00
O1117  O     0.83333   0.43893   0.46176   0.00000  Uiso   1.00
O1118  O     0.83334   0.56107   0.53824   0.00000  Uiso   1.00
O1119  O     0.75725   0.50000   0.52928   0.00000  Uiso   1.00
O1120  O     0.90942   0.50000   0.47072   0.00000  Uiso   1.00
O1121  O     0.75725   0.50000   0.45284   0.00000  Uiso   1.00
O1122  O     0.90942   0.50000   0.54716   0.00000  Uiso   1.00
Zn1123 Zn    0.83333   0.49999   0.55104   0.00000  Uiso   1.00
Zn1124 Zn    0.83333   0.50001   0.44896   0.00000  Uiso   1.00
C1125  C     0.99349   0.45152   0.45578   0.00000  Uiso   1.00
C1126  C     0.98883   0.41158   0.48336   0.00000  Uiso   1.00
H1127  H     0.69404   0.40359   0.50072   0.00000  Uiso   1.00
H1128  H     0.96056   0.41504   0.50821   0.00000  Uiso   1.00
H1129  H     0.97537   0.38505   0.46046   0.00000  Uiso   1.00
H1130  H     0.95625   0.45585   0.43442   0.00000  Uiso   1.00
H1131  H     0.68758   0.44578   0.43082   0.00000  Uiso   1.00
C1132  C     0.67469   0.54772   0.54406   0.00000  Uiso   1.00
C1133  C     0.97247   0.58512   0.54088   0.00000  Uiso   1.00
H1134  H     0.96361   0.59572   0.50558   0.00000  Uiso   1.00
H1135  H     0.93556   0.57680   0.55449   0.00000  Uiso   1.00
H1136  H     0.99201   0.61165   0.56109   0.00000  Uiso   1.00
H1137  H     0.68078   0.53711   0.57967   0.00000  Uiso   1.00
H1138  H     0.71237   0.56089   0.53495   0.00000  Uiso   1.00
O1139  O     0.90424   0.55010   0.38832   0.00000  Uiso   1.00
C1140  C     0.95615   0.54340   0.37966   0.00000  Uiso   1.00
H1141  H     0.96243   0.54827   0.34400   0.00000  Uiso   1.00
H1142  H     0.96722   0.51108   0.38897   0.00000  Uiso   1.00
C1143  C     0.99337   0.57435   0.40691   0.00000  Uiso   1.00
H1144  H     0.99193   0.56906   0.44326   0.00000  Uiso   1.00
H1145  H     0.70059   0.56997   0.39936   0.00000  Uiso   1.00
H1146  H     0.98248   0.60700   0.39836   0.00000  Uiso   1.00
O1147  O     0.74763   0.46910   0.61482   0.00000  Uiso   1.00
C1148  C     0.74432   0.42865   0.59593   0.00000  Uiso   1.00
H1149  H     0.77815   0.40906   0.60683   0.00000  Uiso   1.00
H1150  H     0.74277   0.43182   0.55921   0.00000  Uiso   1.00
C1151  C     0.69329   0.40651   0.60511   0.00000  Uiso   1.00
H1152  H     0.99307   0.42445   0.58968   0.00000  Uiso   1.00
H1153  H     0.69051   0.37448   0.59036   0.00000  Uiso   1.00
H1154  H     0.69090   0.40418   0.64178   0.00000  Uiso   1.00
O1155  O     0.89038   0.56012   0.62540   0.00000  Uiso   1.00
C1156  C     0.86672   0.59822   0.63415   0.00000  Uiso   1.00
H1157  H     0.86297   0.60286   0.33714   0.00000  Uiso   1.00
H1158  H     0.82701   0.59896   0.61529   0.00000  Uiso   1.00
C1159  C     0.89967   0.63540   0.61987   0.00000  Uiso   1.00
H1160  H     0.90012   0.63557   0.58288   0.00000  Uiso   1.00
H1161  H     0.88293   0.66511   0.62964   0.00000  Uiso   1.00
H1162  H     0.94028   0.63392   0.63669   0.00000  Uiso   1.00
O1163  O     0.76306   0.44925   0.37348   0.00000  Uiso   1.00
C1164  C     0.78070   0.40763   0.37531   0.00000  Uiso   1.00
H1165  H     0.82206   0.40605   0.39022   0.00000  Uiso   1.00
H1166  H     0.77849   0.39343   0.34170   0.00000  Uiso   1.00
C1167  C     0.74626   0.37990   0.40214   0.00000  Uiso   1.00
H1168  H     0.70522   0.37940   0.38611   0.00000  Uiso   1.00
H1169  H     0.76013   0.34734   0.40335   0.00000  Uiso   1.00
H1170  H     0.74762   0.39171   0.43701   0.00000  Uiso   1.00
C1171  C     0.16675   0.75340   0.49999   0.00000  Uiso   1.00
C1172  C     0.16674   0.91311   0.49985   0.00000  Uiso   1.00
C1173  C     0.06755   0.83167   0.48882   0.00000  Uiso   1.00
C1174  C     0.26586   0.83408   0.51108   0.00000  Uiso   1.00
C1175  C     0.01344   0.82303   0.48519   0.00000  Uiso   1.00
C1176  C     0.31980   0.84352   0.51411   0.00000  Uiso   1.00
C1177  C     0.19618   0.68899   0.47052   0.00000  Uiso   1.00
C1178  C     0.13518   0.97704   0.52681   0.00000  Uiso   1.00
C1179  C     0.19618   0.97929   0.47035   0.00000  Uiso   1.00
C1180  C     0.13547   0.68656   0.52701   0.00000  Uiso   1.00
C1181  C     0.16627   0.95713   0.49914   0.00000  Uiso   1.00
C1182  C     0.16671   0.70906   0.49969   0.00000  Uiso   1.00
C1183  C     0.20232   0.85792   0.36099   0.00000  Uiso   1.00
C1184  C     0.12912   0.81082   0.63920   0.00000  Uiso   1.00
C1185  C     0.19866   0.86072   0.64581   0.00000  Uiso   1.00
C1186  C     0.13195   0.80815   0.35392   0.00000  Uiso   1.00
H1187  H     0.21893   0.70655   0.44816   0.00000  Uiso   1.00
H1188  H     0.11046   0.95949   0.54770   0.00000  Uiso   1.00
H1189  H     0.21970   0.96339   0.44842   0.00000  Uiso   1.00
H1190  H     0.11018   0.70167   0.54730   0.00000  Uiso   1.00
N1191  N     0.16665   0.83332   0.61907   0.00000  Uiso   1.00
N1192  N     0.16668   0.83334   0.38093   0.00000  Uiso   1.00
O1193  O     0.16666   0.77225   0.53821   0.00000  Uiso   1.00
O1194  O     0.16667   0.89442   0.46179   0.00000  Uiso   1.00
O1195  O     0.16666   0.77226   0.46176   0.00000  Uiso   1.00
O1196  O     0.16667   0.89441   0.53824   0.00000  Uiso   1.00
O1197  O     0.09058   0.83333   0.52928   0.00000  Uiso   1.00
O1198  O     0.24275   0.83334   0.47072   0.00000  Uiso   1.00
O1199  O     0.09058   0.83334   0.45284   0.00000  Uiso   1.00
O1200  O     0.24275   0.83333   0.54716   0.00000  Uiso   1.00
Zn1201 Zn    0.16667   0.83333   0.55104   0.00000  Uiso   1.00
Zn1202 Zn    0.16667   0.83334   0.44896   0.00000  Uiso   1.00
C1203  C     0.32682   0.78486   0.45578   0.00000  Uiso   1.00
C1204  C     0.32216   0.74491   0.48336   0.00000  Uiso   1.00
H1205  H     0.02738   0.73693   0.50072   0.00000  Uiso   1.00
H1206  H     0.29389   0.74838   0.50821   0.00000  Uiso   1.00
H1207  H     0.30871   0.71839   0.46046   0.00000  Uiso   1.00
H1208  H     0.28958   0.78919   0.43442   0.00000  Uiso   1.00
H1209  H     0.02092   0.77911   0.43082   0.00000  Uiso   1.00
C1210  C     0.00802   0.88105   0.54406   0.00000  Uiso   1.00
C1211  C     0.30581   0.91846   0.54088   0.00000  Uiso   1.00
H1212  H     0.29694   0.92905   0.50558   0.00000  Uiso   1.00
H1213  H     0.26889   0.91014   0.55449   0.00000  Uiso   1.00
H1214  H     0.32534   0.94498   0.56109   0.00000  Uiso   1.00
H1215  H     0.01412   0.87045   0.57967   0.00000  Uiso   1.00
H1216  H     0.04571   0.89422   0.53495   0.00000  Uiso   1.00
O1217  O     0.23758   0.88343   0.38832   0.00000  Uiso   1.00
C1218  C     0.28948   0.87673   0.37966   0.00000  Uiso   1.00
H1219  H     0.29576   0.88160   0.34400   0.00000  Uiso   1.00
H1220  H     0.30055   0.84441   0.38897   0.00000  Uiso   1.00
C1221  C     0.32670   0.90768   0.40691   0.00000  Uiso   1.00
H1222  H     0.32526   0.90240   0.44326   0.00000  Uiso   1.00
H1223  H     0.03392   0.90330   0.39936   0.00000  Uiso   1.00
H1224  H     0.31581   0.94034   0.39836   0.00000  Uiso   1.00
O1225  O     0.08096   0.80243   0.61482   0.00000  Uiso   1.00
C1226  C     0.07765   0.76198   0.59593   0.00000  Uiso   1.00
H1227  H     0.11148   0.74239   0.60683   0.00000  Uiso   1.00
H1228  H     0.07610   0.76515   0.55921   0.00000  Uiso   1.00
C1229  C     0.02663   0.73984   0.60511   0.00000  Uiso   1.00
H1230  H     0.32640   0.75779   0.58968   0.00000  Uiso   1.00
H1231  H     0.02384   0.70781   0.59036   0.00000  Uiso   1.00
H1232  H     0.02423   0.73751   0.64178   0.00000  Uiso   1.00
O1233  O     0.22371   0.89346   0.62540   0.00000  Uiso   1.00
C1234  C     0.20005   0.93155   0.63415   0.00000  Uiso   1.00
H1235  H     0.19630   0.93620   0.33714   0.00000  Uiso   1.00
H1236  H     0.16035   0.93229   0.61529   0.00000  Uiso   1.00
C1237  C     0.23301   0.96873   0.61987   0.00000  Uiso   1.00
H1238  H     0.23345   0.96890   0.58288   0.00000  Uiso   1.00
H1239  H     0.21626   0.99844   0.62964   0.00000  Uiso   1.00
H1240  H     0.27362   0.96726   0.63669   0.00000  Uiso   1.00
O1241  O     0.09639   0.78258   0.37348   0.00000  Uiso   1.00
C1242  C     0.11404   0.74096   0.37531   0.00000  Uiso   1.00
H1243  H     0.15539   0.73938   0.39022   0.00000  Uiso   1.00
H1244  H     0.11183   0.72677   0.34170   0.00000  Uiso   1.00
C1245  C     0.07959   0.71323   0.40214   0.00000  Uiso   1.00
H1246  H     0.03855   0.71273   0.38611   0.00000  Uiso   1.00
H1247  H     0.09346   0.68068   0.40335   0.00000  Uiso   1.00
H1248  H     0.08095   0.72504   0.43701   0.00000  Uiso   1.00
C1249  C     0.50009   0.75340   0.49999   0.00000  Uiso   1.00
C1250  C     0.50007   0.91311   0.49985   0.00000  Uiso   1.00
C1251  C     0.40088   0.83167   0.48882   0.00000  Uiso   1.00
C1252  C     0.59919   0.83408   0.51108   0.00000  Uiso   1.00
C1253  C     0.34677   0.82303   0.48519   0.00000  Uiso   1.00
C1254  C     0.65314   0.84352   0.51411   0.00000  Uiso   1.00
C1255  C     0.52951   0.68899   0.47052   0.00000  Uiso   1.00
C1256  C     0.46851   0.97704   0.52681   0.00000  Uiso   1.00
C1257  C     0.52951   0.97929   0.47035   0.00000  Uiso   1.00
C1258  C     0.46880   0.68656   0.52701   0.00000  Uiso   1.00
C1259  C     0.49960   0.95713   0.49914   0.00000  Uiso   1.00
C1260  C     0.50005   0.70906   0.49969   0.00000  Uiso   1.00
C1261  C     0.53565   0.85792   0.36099   0.00000  Uiso   1.00
C1262  C     0.46246   0.81082   0.63920   0.00000  Uiso   1.00
C1263  C     0.53199   0.86072   0.64581   0.00000  Uiso   1.00
C1264  C     0.46528   0.80815   0.35392   0.00000  Uiso   1.00
H1265  H     0.55226   0.70655   0.44816   0.00000  Uiso   1.00
H1266  H     0.44379   0.95949   0.54770   0.00000  Uiso   1.00
H1267  H     0.55304   0.96339   0.44842   0.00000  Uiso   1.00
H1268  H     0.44352   0.70167   0.54730   0.00000  Uiso   1.00
N1269  N     0.49999   0.83332   0.61907   0.00000  Uiso   1.00
N1270  N     0.50001   0.83334   0.38093   0.00000  Uiso   1.00
O1271  O     0.50000   0.77225   0.53821   0.00000  Uiso   1.00
O1272  O     0.50000   0.89442   0.46179   0.00000  Uiso   1.00
O1273  O     0.50000   0.77226   0.46176   0.00000  Uiso   1.00
O1274  O     0.50000   0.89441   0.53824   0.00000  Uiso   1.00
O1275  O     0.42392   0.83333   0.52928   0.00000  Uiso   1.00
O1276  O     0.57608   0.83334   0.47072   0.00000  Uiso   1.00
O1277  O     0.42392   0.83334   0.45284   0.00000  Uiso   1.00
O1278  O     0.57608   0.83333   0.54716   0.00000  Uiso   1.00
Zn1279 Zn    0.50000   0.83333   0.55104   0.00000  Uiso   1.00
Zn1280 Zn    0.50000   0.83334   0.44896   0.00000  Uiso   1.00
C1281  C     0.66016   0.78486   0.45578   0.00000  Uiso   1.00
C1282  C     0.65550   0.74491   0.48336   0.00000  Uiso   1.00
H1283  H     0.36071   0.73693   0.50072   0.00000  Uiso   1.00
H1284  H     0.62722   0.74838   0.50821   0.00000  Uiso   1.00
H1285  H     0.64204   0.71839   0.46046   0.00000  Uiso   1.00
H1286  H     0.62292   0.78919   0.43442   0.00000  Uiso   1.00
H1287  H     0.35425   0.77911   0.43082   0.00000  Uiso   1.00
C1288  C     0.34136   0.88105   0.54406   0.00000  Uiso   1.00
C1289  C     0.63914   0.91846   0.54088   0.00000  Uiso   1.00
H1290  H     0.63028   0.92905   0.50558   0.00000  Uiso   1.00
H1291  H     0.60223   0.91014   0.55449   0.00000  Uiso   1.00
H1292  H     0.65867   0.94498   0.56109   0.00000  Uiso   1.00
H1293  H     0.34745   0.87045   0.57967   0.00000  Uiso   1.00
H1294  H     0.37904   0.89422   0.53495   0.00000  Uiso   1.00
O1295  O     0.57091   0.88343   0.38832   0.00000  Uiso   1.00
C1296  C     0.62281   0.87673   0.37966   0.00000  Uiso   1.00
H1297  H     0.62910   0.88160   0.34400   0.00000  Uiso   1.00
H1298  H     0.63389   0.84441   0.38897   0.00000  Uiso   1.00
C1299  C     0.66004   0.90768   0.40691   0.00000  Uiso   1.00
H1300  H     0.65859   0.90240   0.44326   0.00000  Uiso   1.00
H1301  H     0.36725   0.90330   0.39936   0.00000  Uiso   1.00
H1302  H     0.64914   0.94034   0.39836   0.00000  Uiso   1.00
O1303  O     0.41430   0.80243   0.61482   0.00000  Uiso   1.00
C1304  C     0.41098   0.76198   0.59593   0.00000  Uiso   1.00
H1305  H     0.44482   0.74239   0.60683   0.00000  Uiso   1.00
H1306  H     0.40943   0.76515   0.55921   0.00000  Uiso   1.00
C1307  C     0.35996   0.73984   0.60511   0.00000  Uiso   1.00
H1308  H     0.65974   0.75779   0.58968   0.00000  Uiso   1.00
H1309  H     0.35718   0.70781   0.59036   0.00000  Uiso   1.00
H1310  H     0.35757   0.73751   0.64178   0.00000  Uiso   1.00
O1311  O     0.55705   0.89346   0.62540   0.00000  Uiso   1.00
C1312  C     0.53338   0.93155   0.63415   0.00000  Uiso   1.00
H1313  H     0.52964   0.93620   0.33714   0.00000  Uiso   1.00
H1314  H     0.49368   0.93229   0.61529   0.00000  Uiso   1.00
C1315  C     0.56634   0.96873   0.61987   0.00000  Uiso   1.00
H1316  H     0.56678   0.96890   0.58288   0.00000  Uiso   1.00
H1317  H     0.54959   0.99844   0.62964   0.00000  Uiso   1.00
H1318  H     0.60695   0.96726   0.63669   0.00000  Uiso   1.00
O1319  O     0.42973   0.78258   0.37348   0.00000  Uiso   1.00
C1320  C     0.44737   0.74096   0.37531   0.00000  Uiso   1.00
H1321  H     0.48872   0.73938   0.39022   0.00000  Uiso   1.00
H1322  H     0.44516   0.72677   0.34170   0.00000  Uiso   1.00
C1323  C     0.41293   0.71323   0.40214   0.00000  Uiso   1.00
H1324  H     0.37188   0.71273   0.38611   0.00000  Uiso   1.00
H1325  H     0.42679   0.68068   0.40335   0.00000  Uiso   1.00
H1326  H     0.41428   0.72504   0.43701   0.00000  Uiso   1.00
C1327  C     0.83342   0.75340   0.49999   0.00000  Uiso   1.00
C1328  C     0.83340   0.91311   0.49985   0.00000  Uiso   1.00
C1329  C     0.73422   0.83167   0.48882   0.00000  Uiso   1.00
C1330  C     0.93252   0.83408   0.51108   0.00000  Uiso   1.00
C1331  C     0.68011   0.82303   0.48519   0.00000  Uiso   1.00
C1332  C     0.98647   0.84352   0.51411   0.00000  Uiso   1.00
C1333  C     0.86284   0.68899   0.47052   0.00000  Uiso   1.00
C1334  C     0.80185   0.97704   0.52681   0.00000  Uiso   1.00
C1335  C     0.86284   0.97929   0.47035   0.00000  Uiso   1.00
C1336  C     0.80214   0.68656   0.52701   0.00000  Uiso   1.00
C1337  C     0.83294   0.95713   0.49914   0.00000  Uiso   1.00
C1338  C     0.83338   0.70906   0.49969   0.00000  Uiso   1.00
C1339  C     0.86898   0.85792   0.36099   0.00000  Uiso   1.00
C1340  C     0.79579   0.81082   0.63920   0.00000  Uiso   1.00
C1341  C     0.86533   0.86072   0.64581   0.00000  Uiso   1.00
C1342  C     0.79862   0.80815   0.35392   0.00000  Uiso   1.00
H1343  H     0.88559   0.70655   0.44816   0.00000  Uiso   1.00
H1344  H     0.77713   0.95949   0.54770   0.00000  Uiso   1.00
H1345  H     0.88637   0.96339   0.44842   0.00000  Uiso   1.00
H1346  H     0.77685   0.70167   0.54730   0.00000  Uiso   1.00
N1347  N     0.83332   0.83332   0.61907   0.00000  Uiso   1.00
N1348  N     0.83335   0.83334   0.38093   0.00000  Uiso   1.00
O1349  O     0.83333   0.77225   0.53821   0.00000  Uiso   1.00
O1350  O     0.83334   0.89442   0.46179   0.00000  Uiso   1.00
O1351  O     0.83333   0.77226   0.46176   0.00000  Uiso   1.00
O1352  O     0.83334   0.89441   0.53824   0.00000  Uiso   1.00
O1353  O     0.75725   0.83333   0.52928   0.00000  Uiso   1.00
O1354  O     0.90942   0.83334   0.47072   0.00000  Uiso   1.00
O1355  O     0.75725   0.83334   0.45284   0.00000  Uiso   1.00
O1356  O     0.90942   0.83333   0.54716   0.00000  Uiso   1.00
Zn1357 Zn    0.83333   0.83333   0.55104   0.00000  Uiso   1.00
Zn1358 Zn    0.83333   0.83334   0.44896   0.00000  Uiso   1.00
C1359  C     0.99349   0.78486   0.45578   0.00000  Uiso   1.00
C1360  C     0.98883   0.74491   0.48336   0.00000  Uiso   1.00
H1361  H     0.69404   0.73693   0.50072   0.00000  Uiso   1.00
H1362  H     0.96056   0.74838   0.50821   0.00000  Uiso   1.00
H1363  H     0.97537   0.71839   0.46046   0.00000  Uiso   1.00
H1364  H     0.95625   0.78919   0.43442   0.00000  Uiso   1.00
H1365  H     0.68758   0.77911   0.43082   0.00000  Uiso   1.00
C1366  C     0.67469   0.88105   0.54406   0.00000  Uiso   1.00
C1367  C     0.97247   0.91846   0.54088   0.00000  Uiso   1.00
H1368  H     0.96361   0.92905   0.50558   0.00000  Uiso   1.00
H1369  H     0.93556   0.91014   0.55449   0.00000  Uiso   1.00
H1370  H     0.99201   0.94498   0.56109   0.00000  Uiso   1.00
H1371  H     0.68078   0.87045   0.57967   0.00000  Uiso   1.00
H1372  H     0.71237   0.89422   0.53495   0.00000  Uiso   1.00
O1373  O     0.90424   0.88343   0.38832   0.00000  Uiso   1.00
C1374  C     0.95615   0.87673   0.37966   0.00000  Uiso   1.00
H1375  H     0.96243   0.88160   0.34400   0.00000  Uiso   1.00
H1376  H     0.96722   0.84441   0.38897   0.00000  Uiso   1.00
C1377  C     0.99337   0.90768   0.40691   0.00000  Uiso   1.00
H1378  H     0.99193   0.90240   0.44326   0.00000  Uiso   1.00
H1379  H     0.70059   0.90330   0.39936   0.00000  Uiso   1.00
H1380  H     0.98248   0.94034   0.39836   0.00000  Uiso   1.00
O1381  O     0.74763   0.80243   0.61482   0.00000  Uiso   1.00
C1382  C     0.74432   0.76198   0.59593   0.00000  Uiso   1.00
H1383  H     0.77815   0.74239   0.60683   0.00000  Uiso   1.00
H1384  H     0.74277   0.76515   0.55921   0.00000  Uiso   1.00
C1385  C     0.69329   0.73984   0.60511   0.00000  Uiso   1.00
H1386  H     0.99307   0.75779   0.58968   0.00000  Uiso   1.00
H1387  H     0.69051   0.70781   0.59036   0.00000  Uiso   1.00
H1388  H     0.69090   0.73751   0.64178   0.00000  Uiso   1.00
O1389  O     0.89038   0.89346   0.62540   0.00000  Uiso   1.00
C1390  C     0.86672   0.93155   0.63415   0.00000  Uiso   1.00
H1391  H     0.86297   0.93620   0.33714   0.00000  Uiso   1.00
H1392  H     0.82701   0.93229   0.61529   0.00000  Uiso   1.00
C1393  C     0.89967   0.96873   0.61987   0.00000  Uiso   1.00
H1394  H     0.90012   0.96890   0.58288   0.00000  Uiso   1.00
H1395  H     0.88293   0.99844   0.62964   0.00000  Uiso   1.00
H1396  H     0.94028   0.96726   0.63669   0.00000  Uiso   1.00
O1397  O     0.76306   0.78258   0.37348   0.00000  Uiso   1.00
C1398  C     0.78070   0.74096   0.37531   0.00000  Uiso   1.00
H1399  H     0.82206   0.73938   0.39022   0.00000  Uiso   1.00
H1400  H     0.77849   0.72677   0.34170   0.00000  Uiso   1.00
C1401  C     0.74626   0.71323   0.40214   0.00000  Uiso   1.00
H1402  H     0.70522   0.71273   0.38611   0.00000  Uiso   1.00
H1403  H     0.76013   0.68068   0.40335   0.00000  Uiso   1.00
H1404  H     0.74762   0.72504   0.43701   0.00000  Uiso   1.00
C1405  C     0.16675   0.08673   0.83333   0.00000  Uiso   1.00
C1406  C     0.16674   0.24645   0.83318   0.00000  Uiso   1.00
C1407  C     0.06755   0.16500   0.82216   0.00000  Uiso   1.00
C1408  C     0.26586   0.16741   0.84441   0.00000  Uiso   1.00
C1409  C     0.01344   0.15637   0.81852   0.00000  Uiso   1.00
C1410  C     0.31980   0.17685   0.84744   0.00000  Uiso   1.00
C1411  C     0.19618   0.02233   0.80385   0.00000  Uiso   1.00
C1412  C     0.13518   0.31037   0.86014   0.00000  Uiso   1.00
C1413  C     0.19618   0.31262   0.80369   0.00000  Uiso   1.00
C1414  C     0.13547   0.01990   0.86035   0.00000  Uiso   1.00
C1415  C     0.16627   0.29046   0.83248   0.00000  Uiso   1.00
C1416  C     0.16671   0.04239   0.83302   0.00000  Uiso   1.00
C1417  C     0.20232   0.19125   0.69432   0.00000  Uiso   1.00
C1418  C     0.12912   0.14415   0.97253   0.00000  Uiso   1.00
C1419  C     0.19866   0.19406   0.97914   0.00000  Uiso   1.00
C1420  C     0.13195   0.14149   0.68725   0.00000  Uiso   1.00
H1421  H     0.21893   0.03988   0.78150   0.00000  Uiso   1.00
H1422  H     0.11046   0.29283   0.88103   0.00000  Uiso   1.00
H1423  H     0.21970   0.29672   0.78175   0.00000  Uiso   1.00
H1424  H     0.11018   0.03501   0.88063   0.00000  Uiso   1.00
N1425  N     0.16665   0.16666   0.95240   0.00000  Uiso   1.00
N1426  N     0.16668   0.16668   0.71427   0.00000  Uiso   1.00
O1427  O     0.16666   0.10558   0.87154   0.00000  Uiso   1.00
O1428  O     0.16667   0.22775   0.79513   0.00000  Uiso   1.00
O1429  O     0.16666   0.10559   0.79510   0.00000  Uiso   1.00
O1430  O     0.16667   0.22774   0.87157   0.00000  Uiso   1.00
O1431  O     0.09058   0.16666   0.86261   0.00000  Uiso   1.00
O1432  O     0.24275   0.16667   0.80405   0.00000  Uiso   1.00
O1433  O     0.09058   0.16667   0.78617   0.00000  Uiso   1.00
O1434  O     0.24275   0.16666   0.88050   0.00000  Uiso   1.00
Zn1435 Zn    0.16667   0.16666   0.88437   0.00000  Uiso   1.00
Zn1436 Zn    0.16667   0.16667   0.78229   0.00000  Uiso   1.00
C1437  C     0.32682   0.11819   0.78911   0.00000  Uiso   1.00
C1438  C     0.32216   0.07824   0.81670   0.00000  Uiso   1.00
H1439  H     0.02738   0.07026   0.83406   0.00000  Uiso   1.00
H1440  H     0.29389   0.08171   0.84155   0.00000  Uiso   1.00
H1441  H     0.30871   0.05172   0.79380   0.00000  Uiso   1.00
H1442  H     0.28958   0.12252   0.76775   0.00000  Uiso   1.00
H1443  H     0.02092   0.11244   0.76416   0.00000  Uiso   1.00
C1444  C     0.00802   0.21439   0.87739   0.00000  Uiso   1.00
C1445  C     0.30581   0.25179   0.87421   0.00000  Uiso   1.00
H1446  H     0.29694   0.26239   0.83891   0.00000  Uiso   1.00
H1447  H     0.26889   0.24347   0.88783   0.00000  Uiso   1.00
H1448  H     0.32534   0.27831   0.89442   0.00000  Uiso   1.00
H1449  H     0.01412   0.20378   0.91300   0.00000  Uiso   1.00
H1450  H     0.04571   0.22755   0.86828   0.00000  Uiso   1.00
O1451  O     0.23758   0.21676   0.72166   0.00000  Uiso   1.00
C1452  C     0.28948   0.21007   0.71300   0.00000  Uiso   1.00
H1453  H     0.29576   0.21494   0.67733   0.00000  Uiso   1.00
H1454  H     0.30055   0.17775   0.72230   0.00000  Uiso   1.00
C1455  C     0.32670   0.24101   0.74025   0.00000  Uiso   1.00
H1456  H     0.32526   0.23573   0.77659   0.00000  Uiso   1.00
H1457  H     0.03392   0.23663   0.73269   0.00000  Uiso   1.00
H1458  H     0.31581   0.27367   0.73170   0.00000  Uiso   1.00
O1459  O     0.08096   0.13576   0.94816   0.00000  Uiso   1.00
C1460  C     0.07765   0.09532   0.92926   0.00000  Uiso   1.00
H1461  H     0.11148   0.07572   0.94017   0.00000  Uiso   1.00
H1462  H     0.07610   0.09848   0.89254   0.00000  Uiso   1.00
C1463  C     0.02663   0.07318   0.93844   0.00000  Uiso   1.00
H1464  H     0.32640   0.09112   0.92301   0.00000  Uiso   1.00
H1465  H     0.02384   0.04114   0.92370   0.00000  Uiso   1.00
H1466  H     0.02423   0.07084   0.97511   0.00000  Uiso   1.00
O1467  O     0.22371   0.22679   0.95873   0.00000  Uiso   1.00
C1468  C     0.20005   0.26489   0.96748   0.00000  Uiso   1.00
H1469  H     0.19630   0.26953   0.67047   0.00000  Uiso   1.00
H1470  H     0.16035   0.26563   0.94862   0.00000  Uiso   1.00
C1471  C     0.23301   0.30206   0.95321   0.00000  Uiso   1.00
H1472  H     0.23345   0.30224   0.91622   0.00000  Uiso   1.00
H1473  H     0.21626   0.33178   0.96297   0.00000  Uiso   1.00
H1474  H     0.27362   0.30059   0.97002   0.00000  Uiso   1.00
O1475  O     0.09639   0.11592   0.70681   0.00000  Uiso   1.00
C1476  C     0.11404   0.07429   0.70865   0.00000  Uiso   1.00
H1477  H     0.15539   0.07271   0.72355   0.00000  Uiso   1.00
H1478  H     0.11183   0.06010   0.67503   0.00000  Uiso   1.00
C1479  C     0.07959   0.04656   0.73547   0.00000  Uiso   1.00
H1480  H     0.03855   0.04606   0.71944   0.00000  Uiso   1.00
H1481  H     0.09346   0.01401   0.73668   0.00000  Uiso   1.00
H1482  H     0.08095   0.05837   0.77035   0.00000  Uiso   1.00
C1483  C     0.50009   0.08673   0.83333   0.00000  Uiso   1.00
C1484  C     0.50007   0.24645   0.83318   0.00000  Uiso   1.00
C1485  C     0.40088   0.16500   0.82216   0.00000  Uiso   1.00
C1486  C     0.59919   0.16741   0.84441   0.00000  Uiso   1.00
C1487  C     0.34677   0.15637   0.81852   0.00000  Uiso   1.00
C1488  C     0.65314   0.17685   0.84744   0.00000  Uiso   1.00
C1489  C     0.52951   0.02233   0.80385   0.00000  Uiso   1.00
C1490  C     0.46851   0.31037   0.86014   0.00000  Uiso   1.00
C1491  C     0.52951   0.31262   0.80369   0.00000  Uiso   1.00
C1492  C     0.46880   0.01990   0.86035   0.00000  Uiso   1.00
C1493  C     0.49960   0.29046   0.83248   0.00000  Uiso   1.00
C1494  C     0.50005   0.04239   0.83302   0.00000  Uiso   1.00
C1495  C     0.53565   0.19125   0.69432   0.00000  Uiso   1.00
C1496  C     0.46246   0.14415   0.97253   0.00000  Uiso   1.00
C1497  C     0.53199   0.19406   0.97914   0.00000  Uiso   1.00
C1498  C     0.46528   0.14149   0.68725   0.00000  Uiso   1.00
H1499  H     0.55226   0.03988   0.78150   0.00000  Uiso   1.00
H1500  H     0.44379   0.29283   0.88103   0.00000  Uiso   1.00
H1501  H     0.55304   0.29672   0.78175   0.00000  Uiso   1.00
H1502  H     0.44352   0.03501   0.88063   0.00000  Uiso   1.00
N1503  N     0.49999   0.16666   0.95240   0.00000  Uiso   1.00
N1504  N     0.50001   0.16668   0.71427   0.00000  Uiso   1.00
O1505  O     0.50000   0.10558   0.87154   0.00000  Uiso   1.00
O1506  O     0.50000   0.22775   0.79513   0.00000  Uiso   1.00
O1507  O     0.50000   0.10559   0.79510   0.00000  Uiso   1.00
O1508  O     0.50000   0.22774   0.87157   0.00000  Uiso   1.00
O1509  O     0.42392   0.16666   0.86261   0.00000  Uiso   1.00
O1510  O     0.57608   0.16667   0.80405   0.00000  Uiso   1.00
O1511  O     0.42392   0.16667   0.78617   0.00000  Uiso   1.00
O1512  O     0.57608   0.16666   0.88050   0.00000  Uiso   1.00
Zn1513 Zn    0.50000   0.16666   0.88437   0.00000  Uiso   1.00
Zn1514 Zn    0.50000   0.16667   0.78229   0.00000  Uiso   1.00
C1515  C     0.66016   0.11819   0.78911   0.00000  Uiso   1.00
C1516  C     0.65550   0.07824   0.81670   0.00000  Uiso   1.00
H1517  H     0.36071   0.07026   0.83406   0.00000  Uiso   1.00
H1518  H     0.62722   0.08171   0.84155   0.00000  Uiso   1.00
H1519  H     0.64204   0.05172   0.79380   0.00000  Uiso   1.00
H1520  H     0.62292   0.12252   0.76775   0.00000  Uiso   1.00
H1521  H     0.35425   0.11244   0.76416   0.00000  Uiso   1.00
C1522  C     0.34136   0.21439   0.87739   0.00000  Uiso   1.00
C1523  C     0.63914   0.25179   0.87421   0.00000  Uiso   1.00
H1524  H     0.63028   0.26239   0.83891   0.00000  Uiso   1.00
H1525  H     0.60223   0.24347   0.88783   0.00000  Uiso   1.00
H1526  H     0.65867   0.27831   0.89442   0.00000  Uiso   1.00
H1527  H     0.34745   0.20378   0.91300   0.00000  Uiso   1.00
H1528  H     0.37904   0.22755   0.86828   0.00000  Uiso   1.00
O1529  O     0.57091   0.21676   0.72166   0.00000  Uiso   1.00
C1530  C     0.62281   0.21007   0.71300   0.00000  Uiso   1.00
H1531  H     0.62910   0.21494   0.67733   0.00000  Uiso   1.00
H1532  H     0.63389   0.17775   0.72230   0.00000  Uiso   1.00
C1533  C     0.66004   0.24101   0.74025   0.00000  Uiso   1.00
H1534  H     0.65859   0.23573   0.77659   0.00000  Uiso   1.00
H1535  H     0.36725   0.23663   0.73269   0.00000  Uiso   1.00
H1536  H     0.64914   0.27367   0.73170   0.00000  Uiso   1.00
O1537  O     0.41430   0.13576   0.94816   0.00000  Uiso   1.00
C1538  C     0.41098   0.09532   0.92926   0.00000  Uiso   1.00
H1539  H     0.44482   0.07572   0.94017   0.00000  Uiso   1.00
H1540  H     0.40943   0.09848   0.89254   0.00000  Uiso   1.00
C1541  C     0.35996   0.07318   0.93844   0.00000  Uiso   1.00
H1542  H     0.65974   0.09112   0.92301   0.00000  Uiso   1.00
H1543  H     0.35718   0.04114   0.92370   0.00000  Uiso   1.00
H1544  H     0.35757   0.07084   0.97511   0.00000  Uiso   1.00
O1545  O     0.55705   0.22679   0.95873   0.00000  Uiso   1.00
C1546  C     0.53338   0.26489   0.96748   0.00000  Uiso   1.00
H1547  H     0.52964   0.26953   0.67047   0.00000  Uiso   1.00
H1548  H     0.49368   0.26563   0.94862   0.00000  Uiso   1.00
C1549  C     0.56634   0.30206   0.95321   0.00000  Uiso   1.00
H1550  H     0.56678   0.30224   0.91622   0.00000  Uiso   1.00
H1551  H     0.54959   0.33178   0.96297   0.00000  Uiso   1.00
H1552  H     0.60695   0.30059   0.97002   0.00000  Uiso   1.00
O1553  O     0.42973   0.11592   0.70681   0.00000  Uiso   1.00
C1554  C     0.44737   0.07429   0.70865   0.00000  Uiso   1.00
H1555  H     0.48872   0.07271   0.72355   0.00000  Uiso   1.00
H1556  H     0.44516   0.06010   0.67503   0.00000  Uiso   1.00
C1557  C     0.41293   0.04656   0.73547   0.00000  Uiso   1.00
H1558  H     0.37188   0.04606   0.71944   0.00000  Uiso   1.00
H1559  H     0.42679   0.01401   0.73668   0.00000  Uiso   1.00
H1560  H     0.41428   0.05837   0.77035   0.00000  Uiso   1.00
C1561  C     0.83342   0.08673   0.83333   0.00000  Uiso   1.00
C1562  C     0.83340   0.24645   0.83318   0.00000  Uiso   1.00
C1563  C     0.73422   0.16500   0.82216   0.00000  Uiso   1.00
C1564  C     0.93252   0.16741   0.84441   0.00000  Uiso   1.00
C1565  C     0.68011   0.15637   0.81852   0.00000  Uiso   1.00
C1566  C     0.98647   0.17685   0.84744   0.00000  Uiso   1.00
C1567  C     0.86284   0.02233   0.80385   0.00000  Uiso   1.00
C1568  C     0.80185   0.31037   0.86014   0.00000  Uiso   1.00
C1569  C     0.86284   0.31262   0.80369   0.00000  Uiso   1.00
C1570  C     0.80214   0.01990   0.86035   0.00000  Uiso   1.00
C1571  C     0.83294   0.29046   0.83248   0.00000  Uiso   1.00
C1572  C     0.83338   0.04239   0.83302   0.00000  Uiso   1.00
C1573  C     0.86898   0.19125   0.69432   0.00000  Uiso   1.00
C1574  C     0.79579   0.14415   0.97253   0.00000  Uiso   1.00
C1575  C     0.86533   0.19406   0.97914   0.00000  Uiso   1.00
C1576  C     0.79862   0.14149   0.68725   0.00000  Uiso   1.00
H1577  H     0.88559   0.03988   0.78150   0.00000  Uiso   1.00
H1578  H     0.77713   0.29283   0.88103   0.00000  Uiso   1.00
H1579  H     0.88637   0.29672   0.78175   0.00000  Uiso   1.00
H1580  H     0.77685   0.03501   0.88063   0.00000  Uiso   1.00
N1581  N     0.83332   0.16666   0.95240   0.00000  Uiso   1.00
N1582  N     0.83335   0.16668   0.71427   0.00000  Uiso   1.00
O1583  O     0.83333   0.10558   0.87154   0.00000  Uiso   1.00
O1584  O     0.83334   0.22775   0.79513   0.00000  Uiso   1.00
O1585  O     0.83333   0.10559   0.79510   0.00000  Uiso   1.00
O1586  O     0.83334   0.22774   0.87157   0.00000  Uiso   1.00
O1587  O     0.75725   0.16666   0.86261   0.00000  Uiso   1.00
O1588  O     0.90942   0.16667   0.80405   0.00000  Uiso   1.00
O1589  O     0.75725   0.16667   0.78617   0.00000  Uiso   1.00
O1590  O     0.90942   0.16666   0.88050   0.00000  Uiso   1.00
Zn1591 Zn    0.83333   0.16666   0.88437   0.00000  Uiso   1.00
Zn1592 Zn    0.83333   0.16667   0.78229   0.00000  Uiso   1.00
C1593  C     0.99349   0.11819   0.78911   0.00000  Uiso   1.00
C1594  C     0.98883   0.07824   0.81670   0.00000  Uiso   1.00
H1595  H     0.69404   0.07026   0.83406   0.00000  Uiso   1.00
H1596  H     0.96056   0.08171   0.84155   0.00000  Uiso   1.00
H1597  H     0.97537   0.05172   0.79380   0.00000  Uiso   1.00
H1598  H     0.95625   0.12252   0.76775   0.00000  Uiso   1.00
H1599  H     0.68758   0.11244   0.76416   0.00000  Uiso   1.00
C1600  C     0.67469   0.21439   0.87739   0.00000  Uiso   1.00
C1601  C     0.97247   0.25179   0.87421   0.00000  Uiso   1.00
H1602  H     0.96361   0.26239   0.83891   0.00000  Uiso   1.00
H1603  H     0.93556   0.24347   0.88783   0.00000  Uiso   1.00
H1604  H     0.99201   0.27831   0.89442   0.00000  Uiso   1.00
H1605  H     0.68078   0.20378   0.91300   0.00000  Uiso   1.00
H1606  H     0.71237   0.22755   0.86828   0.00000  Uiso   1.00
O1607  O     0.90424   0.21676   0.72166   0.00000  Uiso   1.00
C1608  C     0.95615   0.21007   0.71300   0.00000  Uiso   1.00
H1609  H     0.96243   0.21494   0.67733   0.00000  Uiso   1.00
H1610  H     0.96722   0.17775   0.72230   0.00000  Uiso   1.00
C1611  C     0.99337   0.24101   0.74025   0.00000  Uiso   1.00
H1612  H     0.99193   0.23573   0.77659   0.00000  Uiso   1.00
H1613  H     0.70059   0.23663   0.73269   0.00000  Uiso   1.00
H1614  H     0.98248   0.27367   0.73170   0.00000  Uiso   1.00
O1615  O     0.74763   0.13576   0.94816   0.00000  Uiso   1.00
C1616  C     0.74432   0.09532   0.92926   0.00000  Uiso   1.00
H1617  H     0.77815   0.07572   0.94017   0.00000  Uiso   1.00
H1618  H     0.74277   0.09848   0.89254   0.00000  Uiso   1.00
C1619  C     0.69329   0.07318   0.93844   0.00000  Uiso   1.00
H1620  H     0.99307   0.09112   0.92301   0.00000  Uiso   1.00
H1621  H     0.69051   0.04114   0.92370   0.00000  Uiso   1.00
H1622  H     0.69090   0.07084   0.97511   0.00000  Uiso   1.00
O1623  O     0.89038   0.22679   0.95873   0.00000  Uiso   1.00
C1624  C     0.86672   0.26489   0.96748   0.00000  Uiso   1.00
H1625  H     0.86297   0.26953   0.67047   0.00000  Uiso   1.00
H1626  H     0.82701   0.26563   0.94862   0.00000  Uiso   1.00
C1627  C     0.89967   0.30206   0.95321   0.00000  Uiso   1.00
H1628  H     0.90012   0.30224   0.91622   0.00000  Uiso   1.00
H1629  H     0.88293   0.33178   0.96297   0.00000  Uiso   1.00
H1630  H     0.94028   0.30059   0.97002   0.00000  Uiso   1.00
O1631  O     0.76306   0.11592   0.70681   0.00000  Uiso   1.00
C1632  C     0.78070   0.07429   0.70865   0.00000  Uiso   1.00
H1633  H     0.82206   0.07271   0.72355   0.00000  Uiso   1.00
H1634  H     0.77849   0.06010   0.67503   0.00000  Uiso   1.00
C1635  C     0.74626   0.04656   0.73547   0.00000  Uiso   1.00
H1636  H     0.70522   0.04606   0.71944   0.00000  Uiso   1.00
H1637  H     0.76013   0.01401   0.73668   0.00000  Uiso   1.00
H1638  H     0.74762   0.05837   0.77035   0.00000  Uiso   1.00
C1639  C     0.16675   0.42007   0.83333   0.00000  Uiso   1.00
C1640  C     0.16674   0.57978   0.83318   0.00000  Uiso   1.00
C1641  C     0.06755   0.49834   0.82216   0.00000  Uiso   1.00
C1642  C     0.26586   0.50074   0.84441   0.00000  Uiso   1.00
C1643  C     0.01344   0.48970   0.81852   0.00000  Uiso   1.00
C1644  C     0.31980   0.51018   0.84744   0.00000  Uiso   1.00
C1645  C     0.19618   0.35566   0.80385   0.00000  Uiso   1.00
C1646  C     0.13518   0.64370   0.86014   0.00000  Uiso   1.00
C1647  C     0.19618   0.64596   0.80369   0.00000  Uiso   1.00
C1648  C     0.13547   0.35323   0.86035   0.00000  Uiso   1.00
C1649  C     0.16627   0.62379   0.83248   0.00000  Uiso   1.00
C1650  C     0.16671   0.37573   0.83302   0.00000  Uiso   1.00
C1651  C     0.20232   0.52458   0.69432   0.00000  Uiso   1.00
C1652  C     0.12912   0.47748   0.97253   0.00000  Uiso   1.00
C1653  C     0.19866   0.52739   0.97914   0.00000  Uiso   1.00
C1654  C     0.13195   0.47482   0.68725   0.00000  Uiso   1.00
H1655  H     0.21893   0.37321   0.78150   0.00000  Uiso   1.00
H1656  H     0.11046   0.62616   0.88103   0.00000  Uiso   1.00
H1657  H     0.21970   0.63005   0.78175   0.00000  Uiso   1.00
H1658  H     0.11018   0.36834   0.88063   0.00000  Uiso   1.00
N1659  N     0.16665   0.49999   0.95240   0.00000  Uiso   1.00
N1660  N     0.16668   0.50001   0.71427   0.00000  Uiso   1.00
O1661  O     0.16666   0.43892   0.87154   0.00000  Uiso   1.00
O1662  O     0.16667   0.56108   0.79513   0.00000  Uiso   1.00
O1663  O     0.16666   0.43893   0.79510   0.00000  Uiso   1.00
O1664  O     0.16667   0.56107   0.87157   0.00000  Uiso   1.00
O1665  O     0.09058   0.50000   0.86261   0.00000  Uiso   1.00
O1666  O     0.24275   0.50000   0.80405   0.00000  Uiso   1.00
O1667  O     0.09058   0.50000   0.78617   0.00000  Uiso   1.00
O1668  O     0.24275   0.50000   0.88050   0.00000  Uiso   1.00
Zn1669 Zn    0.16667   0.49999   0.88437   0.00000  Uiso   1.00
Zn1670 Zn    0.16667   0.50001   0.78229   0.00000  Uiso   1.00
C1671  C     0.32682   0.45152   0.78911   0.00000  Uiso   1.00
C1672  C     0.32216   0.41158   0.81670   0.00000  Uiso   1.00
H1673  H     0.02738   0.40359   0.83406   0.00000  Uiso   1.00
H1674  H     0.29389   0.41504   0.84155   0.00000  Uiso   1.00
H1675  H     0.30871   0.38505   0.79380   0.00000  Uiso   1.00
H1676  H     0.28958   0.45585   0.76775   0.00000  Uiso   1.00
H1677  H     0.02092   0.44578   0.76416   0.00000  Uiso   1.00
C1678  C     0.00802   0.54772   0.87739   0.00000  Uiso   1.00
C1679  C     0.30581   0.58512   0.87421   0.00000  Uiso   1.00
H1680  H     0.29694   0.59572   0.83891   0.00000  Uiso   1.00
H1681  H     0.26889   0.57680   0.88783   0.00000  Uiso   1.00
H1682  H     0.32534   0.61165   0.89442   0.00000  Uiso   1.00
H1683  H     0.01412   0.53711   0.91300   0.00000  Uiso   1.00
H1684  H     0.04571   0.56089   0.86828   0.00000  Uiso   1.00
O1685  O     0.23758   0.55010   0.72166   0.00000  Uiso   1.00
C1686  C     0.28948   0.54340   0.71300   0.00000  Uiso   1.00
H1687  H     0.29576   0.54827   0.67733   0.00000  Uiso   1.00
H1688  H     0.30055   0.51108   0.72230   0.00000  Uiso   1.00
C1689  C     0.32670   0.57435   0.74025   0.00000  Uiso   1.00
H1690  H     0.32526   0.56906   0.77659   0.00000  Uiso   1.00
H1691  H     0.03392   0.56997   0.73269   0.00000  Uiso   1.00
H1692  H     0.31581   0.60700   0.73170   0.00000  Uiso   1.00
O1693  O     0.08096   0.46910   0.94816   0.00000  Uiso   1.00
C1694  C     0.07765   0.42865   0.92926   0.00000  Uiso   1.00
H1695  H     0.11148   0.40906   0.94017   0.00000  Uiso   1.00
H1696  H     0.07610   0.43182   0.89254   0.00000  Uiso   1.00
C1697  C     0.02663   0.40651   0.93844   0.00000  Uiso   1.00
H1698  H     0.32640   0.42445   0.92301   0.00000  Uiso   1.00
H1699  H     0.02384   0.37448   0.92370   0.00000  Uiso   1.00
H1700  H     0.02423   0.40418   0.97511   0.00000  Uiso   1.00
O1701  O     0.22371   0.56012   0.95873   0.00000  Uiso   1.00
C1702  C     0.20005   0.59822   0.96748   0.00000  Uiso   1.00
H1703  H     0.19630   0.60286   0.67047   0.00000  Uiso   1.00
H1704  H     0.16035   0.59896   0.94862   0.00000  Uiso   1.00
C1705  C     0.23301   0.63540   0.95321   0.00000  Uiso   1.00
H1706  H     0.23345   0.63557   0.91622   0.00000  Uiso   1.00
H1707  H     0.21626   0.66511   0.96297   0.00000  Uiso   1.00
H1708  H     0.27362   0.63392   0.97002   0.00000  Uiso   1.00
O1709  O     0.09639   0.44925   0.70681   0.00000  Uiso   1.00
C1710  C     0.11404   0.40763   0.70865   0.00000  Uiso   1.00
H1711  H     0.15539   0.40605   0.72355   0.00000  Uiso   1.00
H1712  H     0.11183   0.39343   0.67503   0.00000  Uiso   1.00
C1713  C     0.07959   0.37990   0.73547   0.00000  Uiso   1.00
H1714  H     0.03855   0.37940   0.71944   0.00000  Uiso   1.00
H1715  H     0.09346   0.34734   0.73668   0.00000  Uiso   1.00
H1716  H     0.08095   0.39171   0.77035   0.00000  Uiso   1.00
C1717  C     0.50009   0.42007   0.83333   0.00000  Uiso   1.00
C1718  C     0.50007   0.57978   0.83318   0.00000  Uiso   1.00
C1719  C     0.40088   0.49834   0.82216   0.00000  Uiso   1.00
C1720  C     0.59919   0.50074   0.84441   0.00000  Uiso   1.00
C1721  C     0.34677   0.48970   0.81852   0.00000  Uiso   1.00
C1722  C     0.65314   0.51018   0.84744   0.00000  Uiso   1.00
C1723  C     0.52951   0.35566   0.80385   0.00000  Uiso   1.00
C1724  C     0.46851   0.64370   0.86014   0.00000  Uiso   1.00
C1725  C     0.52951   0.64596   0.80369   0.00000  Uiso   1.00
C1726  C     0.46880   0.35323   0.86035   0.00000  Uiso   1.00
C1727  C     0.49960   0.62379   0.83248   0.00000  Uiso   1.00
C1728  C     0.50005   0.37573   0.83302   0.00000  Uiso   1.00
C1729  C     0.53565   0.52458   0.69432   0.00000  Uiso   1.00
C1730  C     0.46246   0.47748   0.97253   0.00000  Uiso   1.00
C1731  C     0.53199   0.52739   0.97914   0.00000  Uiso   1.00
C1732  C     0.46528   0.47482   0.68725   0.00000  Uiso   1.00
H1733  H     0.55226   0.37321   0.78150   0.00000  Uiso   1.00
H1734  H     0.44379   0.62616   0.88103   0.00000  Uiso   1.00
H1735  H     0.55304   0.63005   0.78175   0.00000  Uiso   1.00
H1736  H     0.44352   0.36834   0.88063   0.00000  Uiso   1.00
N1737  N     0.49999   0.49999   0.95240   0.00000  Uiso   1.00
N1738  N     0.50001   0.50001   0.71427   0.00000  Uiso   1.00
O1739  O     0.50000   0.43892   0.87154   0.00000  Uiso   1.00
O1740  O     0.50000   0.56108   0.79513   0.00000  Uiso   1.00
O1741  O     0.50000   0.43893   0.79510   0.00000  Uiso   1.00
O1742  O     0.50000   0.56107   0.87157   0.00000  Uiso   1.00
O1743  O     0.42392   0.50000   0.86261   0.00000  Uiso   1.00
O1744  O     0.57608   0.50000   0.80405   0.00000  Uiso   1.00
O1745  O     0.42392   0.50000   0.78617   0.00000  Uiso   1.00
O1746  O     0.57608   0.50000   0.88050   0.00000  Uiso   1.00
Zn1747 Zn    0.50000   0.49999   0.88437   0.00000  Uiso   1.00
Zn1748 Zn    0.50000   0.50001   0.78229   0.00000  Uiso   1.00
C1749  C     0.66016   0.45152   0.78911   0.00000  Uiso   1.00
C1750  C     0.65550   0.41158   0.81670   0.00000  Uiso   1.00
H1751  H     0.36071   0.40359   0.83406   0.00000  Uiso   1.00
H1752  H     0.62722   0.41504   0.84155   0.00000  Uiso   1.00
H1753  H     0.64204   0.38505   0.79380   0.00000  Uiso   1.00
H1754  H     0.62292   0.45585   0.76775   0.00000  Uiso   1.00
H1755  H     0.35425   0.44578   0.76416   0.00000  Uiso   1.00
C1756  C     0.34136   0.54772   0.87739   0.00000  Uiso   1.00
C1757  C     0.63914   0.58512   0.87421   0.00000  Uiso   1.00
H1758  H     0.63028   0.59572   0.83891   0.00000  Uiso   1.00
H1759  H     0.60223   0.57680   0.88783   0.00000  Uiso   1.00
H1760  H     0.65867   0.61165   0.89442   0.00000  Uiso   1.00
H1761  H     0.34745   0.53711   0.91300   0.00000  Uiso   1.00
H1762  H     0.37904   0.56089   0.86828   0.00000  Uiso   1.00
O1763  O     0.57091   0.55010   0.72166   0.00000  Uiso   1.00
C1764  C     0.62281   0.54340   0.71300   0.00000  Uiso   1.00
H1765  H     0.62910   0.54827   0.67733   0.00000  Uiso   1.00
H1766  H     0.63389   0.51108   0.72230   0.00000  Uiso   1.00
C1767  C     0.66004   0.57435   0.74025   0.00000  Uiso   1.00
H1768  H     0.65859   0.56906   0.77659   0.00000  Uiso   1.00
H1769  H     0.36725   0.56997   0.73269   0.00000  Uiso   1.00
H1770  H     0.64914   0.60700   0.73170   0.00000  Uiso   1.00
O1771  O     0.41430   0.46910   0.94816   0.00000  Uiso   1.00
C1772  C     0.41098   0.42865   0.92926   0.00000  Uiso   1.00
H1773  H     0.44482   0.40906   0.94017   0.00000  Uiso   1.00
H1774  H     0.40943   0.43182   0.89254   0.00000  Uiso   1.00
C1775  C     0.35996   0.40651   0.93844   0.00000  Uiso   1.00
H1776  H     0.65974   0.42445   0.92301   0.00000  Uiso   1.00
H1777  H     0.35718   0.37448   0.92370   0.00000  Uiso   1.00
H1778  H     0.35757   0.40418   0.97511   0.00000  Uiso   1.00
O1779  O     0.55705   0.56012   0.95873   0.00000  Uiso   1.00
C1780  C     0.53338   0.59822   0.96748   0.00000  Uiso   1.00
H1781  H     0.52964   0.60286   0.67047   0.00000  Uiso   1.00
H1782  H     0.49368   0.59896   0.94862   0.00000  Uiso   1.00
C1783  C     0.56634   0.63540   0.95321   0.00000  Uiso   1.00
H1784  H     0.56678   0.63557   0.91622   0.00000  Uiso   1.00
H1785  H     0.54959   0.66511   0.96297   0.00000  Uiso   1.00
H1786  H     0.60695   0.63392   0.97002   0.00000  Uiso   1.00
O1787  O     0.42973   0.44925   0.70681   0.00000  Uiso   1.00
C1788  C     0.44737   0.40763   0.70865   0.00000  Uiso   1.00
H1789  H     0.48872   0.40605   0.72355   0.00000  Uiso   1.00
H1790  H     0.44516   0.39343   0.67503   0.00000  Uiso   1.00
C1791  C     0.41293   0.37990   0.73547   0.00000  Uiso   1.00
H1792  H     0.37188   0.37940   0.71944   0.00000  Uiso   1.00
H1793  H     0.42679   0.34734   0.73668   0.00000  Uiso   1.00
H1794  H     0.41428   0.39171   0.77035   0.00000  Uiso   1.00
C1795  C     0.83342   0.42007   0.83333   0.00000  Uiso   1.00
C1796  C     0.83340   0.57978   0.83318   0.00000  Uiso   1.00
C1797  C     0.73422   0.49834   0.82216   0.00000  Uiso   1.00
C1798  C     0.93252   0.50074   0.84441   0.00000  Uiso   1.00
C1799  C     0.68011   0.48970   0.81852   0.00000  Uiso   1.00
C1800  C     0.98647   0.51018   0.84744   0.00000  Uiso   1.00
C1801  C     0.86284   0.35566   0.80385   0.00000  Uiso   1.00
C1802  C     0.80185   0.64370   0.86014   0.00000  Uiso   1.00
C1803  C     0.86284   0.64596   0.80369   0.00000  Uiso   1.00
C1804  C     0.80214   0.35323   0.86035   0.00000  Uiso   1.00
C1805  C     0.83294   0.62379   0.83248   0.00000  Uiso   1.00
C1806  C     0.83338   0.37573   0.83302   0.00000  Uiso   1.00
C1807  C     0.86898   0.52458   0.69432   0.00000  Uiso   1.00
C1808  C     0.79579   0.47748   0.97253   0.00000  Uiso   1.00
C1809  C     0.86533   0.52739   0.97914   0.00000  Uiso   1.00
C1810  C     0.79862   0.47482   0.68725   0.00000  Uiso   1.00
H1811  H     0.88559   0.37321   0.78150   0.00000  Uiso   1.00
H1812  H     0.77713   0.62616   0.88103   0.00000  Uiso   1.00
H1813  H     0.88637   0.63005   0.78175   0.00000  Uiso   1.00
H1814  H     0.77685   0.36834   0.88063   0.00000  Uiso   1.00
N1815  N     0.83332   0.49999   0.95240   0.00000  Uiso   1.00
N1816  N     0.83335   0.50001   0.71427   0.00000  Uiso   1.00
O1817  O     0.83333   0.43892   0.87154   0.00000  Uiso   1.00
O1818  O     0.83334   0.56108   0.79513   0.00000  Uiso   1.00
O1819  O     0.83333   0.43893   0.79510   0.00000  Uiso   1.00
O1820  O     0.83334   0.56107   0.87157   0.00000  Uiso   1.00
O1821  O     0.75725   0.50000   0.86261   0.00000  Uiso   1.00
O1822  O     0.90942   0.50000   0.80405   0.00000  Uiso   1.00
O1823  O     0.75725   0.50000   0.78617   0.00000  Uiso   1.00
O1824  O     0.90942   0.50000   0.88050   0.00000  Uiso   1.00
Zn1825 Zn    0.83333   0.49999   0.88437   0.00000  Uiso   1.00
Zn1826 Zn    0.83333   0.50001   0.78229   0.00000  Uiso   1.00
C1827  C     0.99349   0.45152   0.78911   0.00000  Uiso   1.00
C1828  C     0.98883   0.41158   0.81670   0.00000  Uiso   1.00
H1829  H     0.69404   0.40359   0.83406   0.00000  Uiso   1.00
H1830  H     0.96056   0.41504   0.84155   0.00000  Uiso   1.00
H1831  H     0.97537   0.38505   0.79380   0.00000  Uiso   1.00
H1832  H     0.95625   0.45585   0.76775   0.00000  Uiso   1.00
H1833  H     0.68758   0.44578   0.76416   0.00000  Uiso   1.00
C1834  C     0.67469   0.54772   0.87739   0.00000  Uiso   1.00
C1835  C     0.97247   0.58512   0.87421   0.00000  Uiso   1.00
H1836  H     0.96361   0.59572   0.83891   0.00000  Uiso   1.00
H1837  H     0.93556   0.57680   0.88783   0.00000  Uiso   1.00
H1838  H     0.99201   0.61165   0.89442   0.00000  Uiso   1.00
H1839  H     0.68078   0.53711   0.91300   0.00000  Uiso   1.00
H1840  H     0.71237   0.56089   0.86828   0.00000  Uiso   1.00
O1841  O     0.90424   0.55010   0.72166   0.00000  Uiso   1.00
C1842  C     0.95615   0.54340   0.71300   0.00000  Uiso   1.00
H1843  H     0.96243   0.54827   0.67733   0.00000  Uiso   1.00
H1844  H     0.96722   0.51108   0.72230   0.00000  Uiso   1.00
C1845  C     0.99337   0.57435   0.74025   0.00000  Uiso   1.00
H1846  H     0.99193   0.56906   0.77659   0.00000  Uiso   1.00
H1847  H     0.70059   0.56997   0.73269   0.00000  Uiso   1.00
H1848  H     0.98248   0.60700   0.73170   0.00000  Uiso   1.00
O1849  O     0.74763   0.46910   0.94816   0.00000  Uiso   1.00
C1850  C     0.74432   0.42865   0.92926   0.00000  Uiso   1.00
H1851  H     0.77815   0.40906   0.94017   0.00000  Uiso   1.00
H1852  H     0.74277   0.43182   0.89254   0.00000  Uiso   1.00
C1853  C     0.69329   0.40651   0.93844   0.00000  Uiso   1.00
H1854  H     0.99307   0.42445   0.92301   0.00000  Uiso   1.00
H1855  H     0.69051   0.37448   0.92370   0.00000  Uiso   1.00
H1856  H     0.69090   0.40418   0.97511   0.00000  Uiso   1.00
O1857  O     0.89038   0.56012   0.95873   0.00000  Uiso   1.00
C1858  C     0.86672   0.59822   0.96748   0.00000  Uiso   1.00
H1859  H     0.86297   0.60286   0.67047   0.00000  Uiso   1.00
H1860  H     0.82701   0.59896   0.94862   0.00000  Uiso   1.00
C1861  C     0.89967   0.63540   0.95321   0.00000  Uiso   1.00
H1862  H     0.90012   0.63557   0.91622   0.00000  Uiso   1.00
H1863  H     0.88293   0.66511   0.96297   0.00000  Uiso   1.00
H1864  H     0.94028   0.63392   0.97002   0.00000  Uiso   1.00
O1865  O     0.76306   0.44925   0.70681   0.00000  Uiso   1.00
C1866  C     0.78070   0.40763   0.70865   0.00000  Uiso   1.00
H1867  H     0.82206   0.40605   0.72355   0.00000  Uiso   1.00
H1868  H     0.77849   0.39343   0.67503   0.00000  Uiso   1.00
C1869  C     0.74626   0.37990   0.73547   0.00000  Uiso   1.00
H1870  H     0.70522   0.37940   0.71944   0.00000  Uiso   1.00
H1871  H     0.76013   0.34734   0.73668   0.00000  Uiso   1.00
H1872  H     0.74762   0.39171   0.77035   0.00000  Uiso   1.00
C1873  C     0.16675   0.75340   0.83333   0.00000  Uiso   1.00
C1874  C     0.16674   0.91311   0.83318   0.00000  Uiso   1.00
C1875  C     0.06755   0.83167   0.82216   0.00000  Uiso   1.00
C1876  C     0.26586   0.83408   0.84441   0.00000  Uiso   1.00
C1877  C     0.01344   0.82303   0.81852   0.00000  Uiso   1.00
C1878  C     0.31980   0.84352   0.84744   0.00000  Uiso   1.00
C1879  C     0.19618   0.68899   0.80385   0.00000  Uiso   1.00
C1880  C     0.13518   0.97704   0.86014   0.00000  Uiso   1.00
C1881  C     0.19618   0.97929   0.80369   0.00000  Uiso   1.00
C1882  C     0.13547   0.68656   0.86035   0.00000  Uiso   1.00
C1883  C     0.16627   0.95713   0.83248   0.00000  Uiso   1.00
C1884  C     0.16671   0.70906   0.83302   0.00000  Uiso   1.00
C1885  C     0.20232   0.85792   0.69432   0.00000  Uiso   1.00
C1886  C     0.12912   0.81082   0.97253   0.00000  Uiso   1.00
C1887  C     0.19866   0.86072   0.97914   0.00000  Uiso   1.00
C1888  C     0.13195   0.80815   0.68725   0.00000  Uiso   1.00
H1889  H     0.21893   0.70655   0.78150   0.00000  Uiso   1.00
H1890  H     0.11046   0.95949   0.88103   0.00000  Uiso   1.00
H1891  H     0.21970   0.96339   0.78175   0.00000  Uiso   1.00
H1892  H     0.11018   0.70167   0.88063   0.00000  Uiso   1.00
N1893  N     0.16665   0.83332   0.95240   0.00000  Uiso   1.00
N1894  N     0.16668   0.83334   0.71427   0.00000  Uiso   1.00
O1895  O     0.16666   0.77225   0.87154   0.00000  Uiso   1.00
O1896  O     0.16667   0.89442   0.79513   0.00000  Uiso   1.00
O1897  O     0.16666   0.77226   0.79510   0.00000  Uiso   1.00
O1898  O     0.16667   0.89441   0.87157   0.00000  Uiso   1.00
O1899  O     0.09058   0.83333   0.86261   0.00000  Uiso   1.00
O1900  O     0.24275   0.83334   0.80405   0.00000  Uiso   1.00
O1901  O     0.09058   0.83334   0.78617   0.00000  Uiso   1.00
O1902  O     0.24275   0.83333   0.88050   0.00000  Uiso   1.00
Zn1903 Zn    0.16667   0.83333   0.88437   0.00000  Uiso   1.00
Zn1904 Zn    0.16667   0.83334   0.78229   0.00000  Uiso   1.00
C1905  C     0.32682   0.78486   0.78911   0.00000  Uiso   1.00
C1906  C     0.32216   0.74491   0.81670   0.00000  Uiso   1.00
H1907  H     0.02738   0.73693   0.83406   0.00000  Uiso   1.00
H1908  H     0.29389   0.74838   0.84155   0.00000  Uiso   1.00
H1909  H     0.30871   0.71839   0.79380   0.00000  Uiso   1.00
H1910  H     0.28958   0.78919   0.76775   0.00000  Uiso   1.00
H1911  H     0.02092   0.77911   0.76416   0.00000  Uiso   1.00
C1912  C     0.00802   0.88105   0.87739   0.00000  Uiso   1.00
C1913  C     0.30581   0.91846   0.87421   0.00000  Uiso   1.00
H1914  H     0.29694   0.92905   0.83891   0.00000  Uiso   1.00
H1915  H     0.26889   0.91014   0.88783   0.00000  Uiso   1.00
H1916  H     0.32534   0.94498   0.89442   0.00000  Uiso   1.00
H1917  H     0.01412   0.87045   0.91300   0.00000  Uiso   1.00
H1918  H     0.04571   0.89422   0.86828   0.00000  Uiso   1.00
O1919  O     0.23758   0.88343   0.72166   0.00000  Uiso   1.00
C1920  C     0.28948   0.87673   0.71300   0.00000  Uiso   1.00
H1921  H     0.29576   0.88160   0.67733   0.00000  Uiso   1.00
H1922  H     0.30055   0.84441   0.72230   0.00000  Uiso   1.00
C1923  C     0.32670   0.90768   0.74025   0.00000  Uiso   1.00
H1924  H     0.32526   0.90240   0.77659   0.00000  Uiso   1.00
H1925  H     0.03392   0.90330   0.73269   0.00000  Uiso   1.00
H1926  H     0.31581   0.94034   0.73170   0.00000  Uiso   1.00
O1927  O     0.08096   0.80243   0.94816   0.00000  Uiso   1.00
C1928  C     0.07765   0.76198   0.92926   0.00000  Uiso   1.00
H1929  H     0.11148   0.74239   0.94017   0.00000  Uiso   1.00
H1930  H     0.07610   0.76515   0.89254   0.00000  Uiso   1.00
C1931  C     0.02663   0.73984   0.93844   0.00000  Uiso   1.00
H1932  H     0.32640   0.75779   0.92301   0.00000  Uiso   1.00
H1933  H     0.02384   0.70781   0.92370   0.00000  Uiso   1.00
H1934  H     0.02423   0.73751   0.97511   0.00000  Uiso   1.00
O1935  O     0.22371   0.89346   0.95873   0.00000  Uiso   1.00
C1936  C     0.20005   0.93155   0.96748   0.00000  Uiso   1.00
H1937  H     0.19630   0.93620   0.67047   0.00000  Uiso   1.00
H1938  H     0.16035   0.93229   0.94862   0.00000  Uiso   1.00
C1939  C     0.23301   0.96873   0.95321   0.00000  Uiso   1.00
H1940  H     0.23345   0.96890   0.91622   0.00000  Uiso   1.00
H1941  H     0.21626   0.99844   0.96297   0.00000  Uiso   1.00
H1942  H     0.27362   0.96726   0.97002   0.00000  Uiso   1.00
O1943  O     0.09639   0.78258   0.70681   0.00000  Uiso   1.00
C1944  C     0.11404   0.74096   0.70865   0.00000  Uiso   1.00
H1945  H     0.15539   0.73938   0.72355   0.00000  Uiso   1.00
H1946  H     0.11183   0.72677   0.67503   0.00000  Uiso   1.00
C1947  C     0.07959   0.71323   0.73547   0.00000  Uiso   1.00
H1948  H     0.03855   0.71273   0.71944   0.00000  Uiso   1.00
H1949  H     0.09346   0.68068   0.73668   0.00000  Uiso   1.00
H1950  H     0.08095   0.72504   0.77035   0.00000  Uiso   1.00
C1951  C     0.50009   0.75340   0.83333   0.00000  Uiso   1.00
C1952  C     0.50007   0.91311   0.83318   0.00000  Uiso   1.00
C1953  C     0.40088   0.83167   0.82216   0.00000  Uiso   1.00
C1954  C     0.59919   0.83408   0.84441   0.00000  Uiso   1.00
C1955  C     0.34677   0.82303   0.81852   0.00000  Uiso   1.00
C1956  C     0.65314   0.84352   0.84744   0.00000  Uiso   1.00
C1957  C     0.52951   0.68899   0.80385   0.00000  Uiso   1.00
C1958  C     0.46851   0.97704   0.86014   0.00000  Uiso   1.00
C1959  C     0.52951   0.97929   0.80369   0.00000  Uiso   1.00
C1960  C     0.46880   0.68656   0.86035   0.00000  Uiso   1.00
C1961  C     0.49960   0.95713   0.83248   0.00000  Uiso   1.00
C1962  C     0.50005   0.70906   0.83302   0.00000  Uiso   1.00
C1963  C     0.53565   0.85792   0.69432   0.00000  Uiso   1.00
C1964  C     0.46246   0.81082   0.97253   0.00000  Uiso   1.00
C1965  C     0.53199   0.86072   0.97914   0.00000  Uiso   1.00
C1966  C     0.46528   0.80815   0.68725   0.00000  Uiso   1.00
H1967  H     0.55226   0.70655   0.78150   0.00000  Uiso   1.00
H1968  H     0.44379   0.95949   0.88103   0.00000  Uiso   1.00
H1969  H     0.55304   0.96339   0.78175   0.00000  Uiso   1.00
H1970  H     0.44352   0.70167   0.88063   0.00000  Uiso   1.00
N1971  N     0.49999   0.83332   0.95240   0.00000  Uiso   1.00
N1972  N     0.50001   0.83334   0.71427   0.00000  Uiso   1.00
O1973  O     0.50000   0.77225   0.87154   0.00000  Uiso   1.00
O1974  O     0.50000   0.89442   0.79513   0.00000  Uiso   1.00
O1975  O     0.50000   0.77226   0.79510   0.00000  Uiso   1.00
O1976  O     0.50000   0.89441   0.87157   0.00000  Uiso   1.00
O1977  O     0.42392   0.83333   0.86261   0.00000  Uiso   1.00
O1978  O     0.57608   0.83334   0.80405   0.00000  Uiso   1.00
O1979  O     0.42392   0.83334   0.78617   0.00000  Uiso   1.00
O1980  O     0.57608   0.83333   0.88050   0.00000  Uiso   1.00
Zn1981 Zn    0.50000   0.83333   0.88437   0.00000  Uiso   1.00
Zn1982 Zn    0.50000   0.83334   0.78229   0.00000  Uiso   1.00
C1983  C     0.66016   0.78486   0.78911   0.00000  Uiso   1.00
C1984  C     0.65550   0.74491   0.81670   0.00000  Uiso   1.00
H1985  H     0.36071   0.73693   0.83406   0.00000  Uiso   1.00
H1986  H     0.62722   0.74838   0.84155   0.00000  Uiso   1.00
H1987  H     0.64204   0.71839   0.79380   0.00000  Uiso   1.00
H1988  H     0.62292   0.78919   0.76775   0.00000  Uiso   1.00
H1989  H     0.35425   0.77911   0.76416   0.00000  Uiso   1.00
C1990  C     0.34136   0.88105   0.87739   0.00000  Uiso   1.00
C1991  C     0.63914   0.91846   0.87421   0.00000  Uiso   1.00
H1992  H     0.63028   0.92905   0.83891   0.00000  Uiso   1.00
H1993  H     0.60223   0.91014   0.88783   0.00000  Uiso   1.00
H1994  H     0.65867   0.94498   0.89442   0.00000  Uiso   1.00
H1995  H     0.34745   0.87045   0.91300   0.00000  Uiso   1.00
H1996  H     0.37904   0.89422   0.86828   0.00000  Uiso   1.00
O1997  O     0.57091   0.88343   0.72166   0.00000  Uiso   1.00
C1998  C     0.62281   0.87673   0.71300   0.00000  Uiso   1.00
H1999  H     0.62910   0.88160   0.67733   0.00000  Uiso   1.00
H2000  H     0.63389   0.84441   0.72230   0.00000  Uiso   1.00
C2001  C     0.66004   0.90768   0.74025   0.00000  Uiso   1.00
H2002  H     0.65859   0.90240   0.77659   0.00000  Uiso   1.00
H2003  H     0.36725   0.90330   0.73269   0.00000  Uiso   1.00
H2004  H     0.64914   0.94034   0.73170   0.00000  Uiso   1.00
O2005  O     0.41430   0.80243   0.94816   0.00000  Uiso   1.00
C2006  C     0.41098   0.76198   0.92926   0.00000  Uiso   1.00
H2007  H     0.44482   0.74239   0.94017   0.00000  Uiso   1.00
H2008  H     0.40943   0.76515   0.89254   0.00000  Uiso   1.00
C2009  C     0.35996   0.73984   0.93844   0.00000  Uiso   1.00
H2010  H     0.65974   0.75779   0.92301   0.00000  Uiso   1.00
H2011  H     0.35718   0.70781   0.92370   0.00000  Uiso   1.00
H2012  H     0.35757   0.73751   0.97511   0.00000  Uiso   1.00
O2013  O     0.55705   0.89346   0.95873   0.00000  Uiso   1.00
C2014  C     0.53338   0.93155   0.96748   0.00000  Uiso   1.00
H2015  H     0.52964   0.93620   0.67047   0.00000  Uiso   1.00
H2016  H     0.49368   0.93229   0.94862   0.00000  Uiso   1.00
C2017  C     0.56634   0.96873   0.95321   0.00000  Uiso   1.00
H2018  H     0.56678   0.96890   0.91622   0.00000  Uiso   1.00
H2019  H     0.54959   0.99844   0.96297   0.00000  Uiso   1.00
H2020  H     0.60695   0.96726   0.97002   0.00000  Uiso   1.00
O2021  O     0.42973   0.78258   0.70681   0.00000  Uiso   1.00
C2022  C     0.44737   0.74096   0.70865   0.00000  Uiso   1.00
H2023  H     0.48872   0.73938   0.72355   0.00000  Uiso   1.00
H2024  H     0.44516   0.72677   0.67503   0.00000  Uiso   1.00
C2025  C     0.41293   0.71323   0.73547   0.00000  Uiso   1.00
H2026  H     0.37188   0.71273   0.71944   0.00000  Uiso   1.00
H2027  H     0.42679   0.68068   0.73668   0.00000  Uiso   1.00
H2028  H     0.41428   0.72504   0.77035   0.00000  Uiso   1.00
C2029  C     0.83342   0.75340   0.83333   0.00000  Uiso   1.00
C2030  C     0.83340   0.91311   0.83318   0.00000  Uiso   1.00
C2031  C     0.73422   0.83167   0.82216   0.00000  Uiso   1.00
C2032  C     0.93252   0.83408   0.84441   0.00000  Uiso   1.00
C2033  C     0.68011   0.82303   0.81852   0.00000  Uiso   1.00
C2034  C     0.98647   0.84352   0.84744   0.00000  Uiso   1.00
C2035  C     0.86284   0.68899   0.80385   0.00000  Uiso   1.00
C2036  C     0.80185   0.97704   0.86014   0.00000  Uiso   1.00
C2037  C     0.86284   0.97929   0.80369   0.00000  Uiso   1.00
C2038  C     0.80214   0.68656   0.86035   0.00000  Uiso   1.00
C2039  C     0.83294   0.95713   0.83248   0.00000  Uiso   1.00
C2040  C     0.83338   0.70906   0.83302   0.00000  Uiso   1.00
C2041  C     0.86898   0.85792   0.69432   0.00000  Uiso   1.00
C2042  C     0.79579   0.81082   0.97253   0.00000  Uiso   1.00
C2043  C     0.86533   0.86072   0.97914   0.00000  Uiso   1.00
C2044  C     0.79862   0.80815   0.68725   0.00000  Uiso   1.00
H2045  H     0.88559   0.70655   0.78150   0.00000  Uiso   1.00
H2046  H     0.77713   0.95949   0.88103   0.00000  Uiso   1.00
H2047  H     0.88637   0.96339   0.78175   0.00000  Uiso   1.00
H2048  H     0.77685   0.70167   0.88063   0.00000  Uiso   1.00
N2049  N     0.83332   0.83332   0.95240   0.00000  Uiso   1.00
N2050  N     0.83335   0.83334   0.71427   0.00000  Uiso   1.00
O2051  O     0.83333   0.77225   0.87154   0.00000  Uiso   1.00
O2052  O     0.83334   0.89442   0.79513   0.00000  Uiso   1.00
O2053  O     0.83333   0.77226   0.79510   0.00000  Uiso   1.00
O2054  O     0.83334   0.89441   0.87157   0.00000  Uiso   1.00
O2055  O     0.75725   0.83333   0.86261   0.00000  Uiso   1.00
O2056  O     0.90942   0.83334   0.80405   0.00000  Uiso   1.00
O2057  O     0.75725   0.83334   0.78617   0.00000  Uiso   1.00
O2058  O     0.90942   0.83333   0.88050   0.00000  Uiso   1.00
Zn2059 Zn    0.83333   0.83333   0.88437   0.00000  Uiso   1.00
Zn2060 Zn    0.83333   0.83334   0.78229   0.00000  Uiso   1.00
C2061  C     0.99349   0.78486   0.78911   0.00000  Uiso   1.00
C2062  C     0.98883   0.74491   0.81670   0.00000  Uiso   1.00
H2063  H     0.69404   0.73693   0.83406   0.00000  Uiso   1.00
H2064  H     0.96056   0.74838   0.84155   0.00000  Uiso   1.00
H2065  H     0.97537   0.71839   0.79380   0.00000  Uiso   1.00
H2066  H     0.95625   0.78919   0.76775   0.00000  Uiso   1.00
H2067  H     0.68758   0.77911   0.76416   0.00000  Uiso   1.00
C2068  C     0.67469   0.88105   0.87739   0.00000  Uiso   1.00
C2069  C     0.97247   0.91846   0.87421   0.00000  Uiso   1.00
H2070  H     0.96361   0.92905   0.83891   0.00000  Uiso   1.00
H2071  H     0.93556   0.91014   0.88783   0.00000  Uiso   1.00
H2072  H     0.99201   0.94498   0.89442   0.00000  Uiso   1.00
H2073  H     0.68078   0.87045   0.91300   0.00000  Uiso   1.00
H2074  H     0.71237   0.89422   0.86828   0.00000  Uiso   1.00
O2075  O     0.90424   0.88343   0.72166   0.00000  Uiso   1.00
C2076  C     0.95615   0.87673   0.71300   0.00000  Uiso   1.00
H2077  H     0.96243   0.88160   0.67733   0.00000  Uiso   1.00
H2078  H     0.96722   0.84441   0.72230   0.00000  Uiso   1.00
C2079  C     0.99337   0.90768   0.74025   0.00000  Uiso   1.00
H2080  H     0.99193   0.90240   0.77659   0.00000  Uiso   1.00
H2081  H     0.70059   0.90330   0.73269   0.00000  Uiso   1.00
H2082  H     0.98248   0.94034   0.73170   0.00000  Uiso   1.00
O2083  O     0.74763   0.80243   0.94816   0.00000  Uiso   1.00
C2084  C     0.74432   0.76198   0.92926   0.00000  Uiso   1.00
H2085  H     0.77815   0.74239   0.94017   0.00000  Uiso   1.00
H2086  H     0.74277   0.76515   0.89254   0.00000  Uiso   1.00
C2087  C     0.69329   0.73984   0.93844   0.00000  Uiso   1.00
H2088  H     0.99307   0.75779   0.92301   0.00000  Uiso   1.00
H2089  H     0.69051   0.70781   0.92370   0.00000  Uiso   1.00
H2090  H     0.69090   0.73751   0.97511   0.00000  Uiso   1.00
O2091  O     0.89038   0.89346   0.95873   0.00000  Uiso   1.00
C2092  C     0.86672   0.93155   0.96748   0.00000  Uiso   1.00
H2093  H     0.86297   0.93620   0.67047   0.00000  Uiso   1.00
H2094  H     0.82701   0.93229   0.94862   0.00000  Uiso   1.00
C2095  C     0.89967   0.96873   0.95321   0.00000  Uiso   1.00
H2096  H     0.90012   0.96890   0.91622   0.00000  Uiso   1.00
H2097  H     0.88293   0.99844   0.96297   0.00000  Uiso   1.00
H2098  H     0.94028   0.96726   0.97002   0.00000  Uiso   1.00
O2099  O     0.76306   0.78258   0.70681   0.00000  Uiso   1.00
C2100  C     0.78070   0.74096   0.70865   0.00000  Uiso   1.00
H2101  H     0.82206   0.73938   0.72355   0.00000  Uiso   1.00
H2102  H     0.77849   0.72677   0.67503   0.00000  Uiso   1.00
C2103  C     0.74626   0.71323   0.73547   0.00000  Uiso   1.00
H2104  H     0.70522   0.71273   0.71944   0.00000  Uiso   1.00
H2105  H     0.76013   0.68068   0.73668   0.00000  Uiso   1.00
H2106  H     0.74762   0.72504   0.77035   0.00000  Uiso   1.00
loop_
_geom_bond_atom_site_label_1
_geom_bond_atom_site_label_2
_geom_bond_distance
_geom_bond_site_symmetry_2
_ccdc_geom_bond_type
C1     O25     1.290   .     A
C1     C12     1.415   .     S
C1     O23     1.293   .     A
C2     O26     1.292   .     A
C2     C11     1.405   .     S
C2     O24     1.286   .     A
C3     C5      1.405   .     S
C3     O27     1.283   .     A
C3     O29     1.289   .     A
C4     O30     1.292   .     A
C4     C6      1.406   .     S
C4     O28     1.281   .     A
C5     C162    1.356   1_455 S
C5     C189    1.540   1_455 S
C6     C83     1.356   .     S
C6     C118    1.544   .     S
C7     C12     1.395   .     A
C7     H17     1.082   .     S
C7     C477    1.373   1_545 S
C8     C11     1.389   .     A
C8     H18     1.084   .     S
C8     C244    1.367   .     S
C9     C11     1.395   .     A
C9     H19     1.084   .     S
C9     C241    1.373   .     S
C10    C12     1.393   .     A
C10    H20     1.070   .     S
C10    C476    1.367   1_545 S
C13    N22     1.374   .     A
C13    O47     1.389   .     S
C13    C1419   1.445   1_554 S
C14    O55     1.382   .     S
C14    N21     1.378   .     A
C14    C718    1.432   .     S
C15    N21     1.371   .     A
C15    O63     1.385   .     S
C15    C715    1.445   .     S
C16    O71     1.384   .     S
C16    N22     1.371   .     A
C16    C1418   1.432   1_554 S
N21    Zn31    2.033   .     S
N22    Zn32    2.033   .     S
O23    Zn31    1.987   .     S
O24    Zn32    1.987   .     S
O25    Zn32    1.985   .     S
O26    Zn31    1.985   .     S
O27    Zn31    1.995   .     S
O28    Zn32    1.995   .     S
O29    Zn32    1.981   .     S
O30    Zn31    1.981   .     S
C33    C34     1.524   .     S
C33    H38     1.103   .     S
C33    C83     1.540   .     S
C33    H117    1.107   .     S
C34    H37     1.109   .     S
C34    H36     1.110   .     S
C34    H113    1.105   .     S
H35    C190    1.105   1_455 S
H39    C189    1.107   1_455 S
C40    H46     1.108   .     S
C40    H45     1.111   .     S
C40    C162    1.544   1_455 S
C40    C197    1.529   1_455 S
C41    H42     1.107   .     S
C41    H43     1.103   .     S
C41    H44     1.111   .     S
C41    C118    1.529   .     S
O47    C48     1.419   .     S
C48    H50     1.107   .     S
C48    H49     1.107   .     S
C48    C51     1.520   .     S
C51    H52     1.104   .     S
C51    H54     1.111   .     S
C51    H131    1.111   .     S
H53    C207    1.111   1_455 S
O55    C56     1.406   .     S
C56    C59     1.524   .     S
C56    H58     1.098   .     S
C56    H57     1.111   .     S
C59    H61     1.111   .     S
C59    H62     1.107   .     S
C59    H216    1.111   1_455 S
H60    C137    1.111   .     S
O63    C64     1.420   .     S
C64    H66     1.111   .     S
C64    C67     1.522   .     S
C64    H767    1.112   .     S
H65    C1468   1.112   1_554 S
C67    H70     1.111   .     S
C67    H68     1.107   .     S
C67    H69     1.111   .     S
O71    C72     1.419   .     S
C72    C75     1.523   .     S
C72    H73     1.110   .     S
C72    H74     1.098   .     S
C75    H76     1.110   .     S
C75    H77     1.111   .     S
C75    H78     1.106   .     S
C79    O103    1.290   .     A
C79    C90     1.415   .     S
C79    O101    1.293   .     A
C80    O104    1.292   .     A
C80    C89     1.405   .     S
C80    O102    1.286   .     A
C81    C83     1.405   .     S
C81    O105    1.283   .     A
C81    O107    1.289   .     A
C82    O108    1.292   .     A
C82    C84     1.406   .     S
C82    O106    1.281   .     A
C84    C161    1.356   .     S
C84    C196    1.544   .     S
C85    C90     1.395   .     A
C85    H95     1.082   .     S
C85    C555    1.373   1_545 S
C86    C89     1.389   .     A
C86    H96     1.084   .     S
C86    C322    1.367   .     S
C87    C89     1.395   .     A
C87    H97     1.084   .     S
C87    C319    1.373   .     S
C88    C90     1.393   .     A
C88    H98     1.070   .     S
C88    C554    1.367   1_545 S
C91    N100    1.374   .     A
C91    O125    1.389   .     S
C91    C1497   1.445   1_554 S
C92    O133    1.382   .     S
C92    N99     1.378   .     A
C92    C796    1.432   .     S
C93    N99     1.371   .     A
C93    O141    1.385   .     S
C93    C793    1.445   .     S
C94    O149    1.384   .     S
C94    N100    1.371   .     A
C94    C1496   1.432   1_554 S
N99    Zn109   2.033   .     S
N100   Zn110   2.033   .     S
O101   Zn109   1.987   .     S
O102   Zn110   1.987   .     S
O103   Zn110   1.985   .     S
O104   Zn109   1.985   .     S
O105   Zn109   1.995   .     S
O106   Zn110   1.995   .     S
O107   Zn110   1.981   .     S
O108   Zn109   1.981   .     S
C111   C112    1.524   .     S
C111   H116    1.103   .     S
C111   C161    1.540   .     S
C111   H195    1.107   .     S
C112   H115    1.109   .     S
C112   H114    1.110   .     S
C112   H191    1.105   .     S
C118   H124    1.108   .     S
C118   H123    1.111   .     S
C119   H120    1.107   .     S
C119   H121    1.103   .     S
C119   H122    1.111   .     S
C119   C196    1.529   .     S
O125   C126    1.419   .     S
C126   H128    1.107   .     S
C126   H127    1.107   .     S
C126   C129    1.520   .     S
C129   H130    1.104   .     S
C129   H132    1.111   .     S
C129   H209    1.111   .     S
O133   C134    1.406   .     S
C134   C137    1.524   .     S
C134   H136    1.098   .     S
C134   H135    1.111   .     S
C137   H139    1.111   .     S
C137   H140    1.107   .     S
H138   C215    1.111   .     S
O141   C142    1.420   .     S
C142   H144    1.111   .     S
C142   C145    1.522   .     S
C142   H845    1.112   .     S
H143   C1546   1.112   1_554 S
C145   H148    1.111   .     S
C145   H146    1.107   .     S
C145   H147    1.111   .     S
O149   C150    1.419   .     S
C150   C153    1.523   .     S
C150   H151    1.110   .     S
C150   H152    1.098   .     S
C153   H154    1.110   .     S
C153   H155    1.111   .     S
C153   H156    1.106   .     S
C157   O181    1.290   .     A
C157   C168    1.415   .     S
C157   O179    1.293   .     A
C158   O182    1.292   .     A
C158   C167    1.405   .     S
C158   O180    1.286   .     A
C159   C161    1.405   .     S
C159   O183    1.283   .     A
C159   O185    1.289   .     A
C160   O186    1.292   .     A
C160   C162    1.406   .     S
C160   O184    1.281   .     A
C162   C5      1.356   1_655 S
C162   C40     1.544   1_655 S
C163   C168    1.395   .     A
C163   H173    1.082   .     S
C163   C633    1.373   1_545 S
C164   C167    1.389   .     A
C164   H174    1.084   .     S
C164   C400    1.367   .     S
C165   C167    1.395   .     A
C165   H175    1.084   .     S
C165   C397    1.373   .     S
C166   C168    1.393   .     A
C166   H176    1.070   .     S
C166   C632    1.367   1_545 S
C169   N178    1.374   .     A
C169   O203    1.389   .     S
C169   C1575   1.445   1_554 S
C170   O211    1.382   .     S
C170   N177    1.378   .     A
C170   C874    1.432   .     S
C171   N177    1.371   .     A
C171   O219    1.385   .     S
C171   C871    1.445   .     S
C172   O227    1.384   .     S
C172   N178    1.371   .     A
C172   C1574   1.432   1_554 S
N177   Zn187   2.033   .     S
N178   Zn188   2.033   .     S
O179   Zn187   1.987   .     S
O180   Zn188   1.987   .     S
O181   Zn188   1.985   .     S
O182   Zn187   1.985   .     S
O183   Zn187   1.995   .     S
O184   Zn188   1.995   .     S
O185   Zn188   1.981   .     S
O186   Zn187   1.981   .     S
C189   C190    1.524   .     S
C189   H194    1.103   .     S
C189   C5      1.540   1_655 S
C189   H39     1.107   1_655 S
C190   H193    1.109   .     S
C190   H192    1.110   .     S
C190   H35     1.105   1_655 S
C196   H202    1.108   .     S
C196   H201    1.111   .     S
C197   H198    1.107   .     S
C197   H199    1.103   .     S
C197   H200    1.111   .     S
C197   C40     1.529   1_655 S
O203   C204    1.419   .     S
C204   H206    1.107   .     S
C204   H205    1.107   .     S
C204   C207    1.520   .     S
C207   H208    1.104   .     S
C207   H210    1.111   .     S
C207   H53     1.111   1_655 S
O211   C212    1.406   .     S
C212   C215    1.524   .     S
C212   H214    1.098   .     S
C212   H213    1.111   .     S
C215   H217    1.111   .     S
C215   H218    1.107   .     S
H216   C59     1.111   1_655 S
O219   C220    1.420   .     S
C220   H222    1.111   .     S
C220   C223    1.522   .     S
C220   H923    1.112   .     S
H221   C1624   1.112   1_554 S
C223   H226    1.111   .     S
C223   H224    1.107   .     S
C223   H225    1.111   .     S
O227   C228    1.419   .     S
C228   C231    1.523   .     S
C228   H229    1.110   .     S
C228   H230    1.098   .     S
C231   H232    1.110   .     S
C231   H233    1.111   .     S
C231   H234    1.106   .     S
C235   O259    1.290   .     A
C235   C246    1.415   .     S
C235   O257    1.293   .     A
C236   O260    1.292   .     A
C236   C245    1.405   .     S
C236   O258    1.286   .     A
C237   C239    1.405   .     S
C237   O261    1.283   .     A
C237   O263    1.289   .     A
C238   O264    1.292   .     A
C238   C240    1.406   .     S
C238   O262    1.281   .     A
C239   C396    1.356   1_455 S
C239   C423    1.540   1_455 S
C240   C317    1.356   .     S
C240   C352    1.544   .     S
C241   C246    1.395   .     A
C241   H251    1.082   .     S
C242   C245    1.389   .     A
C242   H252    1.084   .     S
C242   C478    1.367   .     S
C243   C245    1.395   .     A
C243   H253    1.084   .     S
C243   C475    1.373   .     S
C244   C246    1.393   .     A
C244   H254    1.070   .     S
C247   N256    1.374   .     A
C247   O281    1.389   .     S
C247   C1653   1.445   1_554 S
C248   O289    1.382   .     S
C248   N255    1.378   .     A
C248   C952    1.432   .     S
C249   N255    1.371   .     A
C249   O297    1.385   .     S
C249   C949    1.445   .     S
C250   O305    1.384   .     S
C250   N256    1.371   .     A
C250   C1652   1.432   1_554 S
N255   Zn265   2.033   .     S
N256   Zn266   2.033   .     S
O257   Zn265   1.987   .     S
O258   Zn266   1.987   .     S
O259   Zn266   1.985   .     S
O260   Zn265   1.985   .     S
O261   Zn265   1.995   .     S
O262   Zn266   1.995   .     S
O263   Zn266   1.981   .     S
O264   Zn265   1.981   .     S
C267   C268    1.524   .     S
C267   H272    1.103   .     S
C267   C317    1.540   .     S
C267   H351    1.107   .     S
C268   H271    1.109   .     S
C268   H270    1.110   .     S
C268   H347    1.105   .     S
H269   C424    1.105   1_455 S
H273   C423    1.107   1_455 S
C274   H280    1.108   .     S
C274   H279    1.111   .     S
C274   C396    1.544   1_455 S
C274   C431    1.529   1_455 S
C275   H276    1.107   .     S
C275   H277    1.103   .     S
C275   H278    1.111   .     S
C275   C352    1.529   .     S
O281   C282    1.419   .     S
C282   H284    1.107   .     S
C282   H283    1.107   .     S
C282   C285    1.520   .     S
C285   H286    1.104   .     S
C285   H288    1.111   .     S
C285   H365    1.111   .     S
H287   C441    1.111   1_455 S
O289   C290    1.406   .     S
C290   C293    1.524   .     S
C290   H292    1.098   .     S
C290   H291    1.111   .     S
C293   H295    1.111   .     S
C293   H296    1.107   .     S
C293   H450    1.111   1_455 S
H294   C371    1.111   .     S
O297   C298    1.420   .     S
C298   H300    1.111   .     S
C298   C301    1.522   .     S
C298   H1001   1.112   .     S
H299   C1702   1.112   1_554 S
C301   H304    1.111   .     S
C301   H302    1.107   .     S
C301   H303    1.111   .     S
O305   C306    1.419   .     S
C306   C309    1.523   .     S
C306   H307    1.110   .     S
C306   H308    1.098   .     S
C309   H310    1.110   .     S
C309   H311    1.111   .     S
C309   H312    1.106   .     S
C313   O337    1.290   .     A
C313   C324    1.415   .     S
C313   O335    1.293   .     A
C314   O338    1.292   .     A
C314   C323    1.405   .     S
C314   O336    1.286   .     A
C315   C317    1.405   .     S
C315   O339    1.283   .     A
C315   O341    1.289   .     A
C316   O342    1.292   .     A
C316   C318    1.406   .     S
C316   O340    1.281   .     A
C318   C395    1.356   .     S
C318   C430    1.544   .     S
C319   C324    1.395   .     A
C319   H329    1.082   .     S
C320   C323    1.389   .     A
C320   H330    1.084   .     S
C320   C556    1.367   .     S
C321   C323    1.395   .     A
C321   H331    1.084   .     S
C321   C553    1.373   .     S
C322   C324    1.393   .     A
C322   H332    1.070   .     S
C325   N334    1.374   .     A
C325   O359    1.389   .     S
C325   C1731   1.445   1_554 S
C326   O367    1.382   .     S
C326   N333    1.378   .     A
C326   C1030   1.432   .     S
C327   N333    1.371   .     A
C327   O375    1.385   .     S
C327   C1027   1.445   .     S
C328   O383    1.384   .     S
C328   N334    1.371   .     A
C328   C1730   1.432   1_554 S
N333   Zn343   2.033   .     S
N334   Zn344   2.033   .     S
O335   Zn343   1.987   .     S
O336   Zn344   1.987   .     S
O337   Zn344   1.985   .     S
O338   Zn343   1.985   .     S
O339   Zn343   1.995   .     S
O340   Zn344   1.995   .     S
O341   Zn344   1.981   .     S
O342   Zn343   1.981   .     S
C345   C346    1.524   .     S
C345   H350    1.103   .     S
C345   C395    1.540   .     S
C345   H429    1.107   .     S
C346   H349    1.109   .     S
C346   H348    1.110   .     S
C346   H425    1.105   .     S
C352   H358    1.108   .     S
C352   H357    1.111   .     S
C353   H354    1.107   .     S
C353   H355    1.103   .     S
C353   H356    1.111   .     S
C353   C430    1.529   .     S
O359   C360    1.419   .     S
C360   H362    1.107   .     S
C360   H361    1.107   .     S
C360   C363    1.520   .     S
C363   H364    1.104   .     S
C363   H366    1.111   .     S
C363   H443    1.111   .     S
O367   C368    1.406   .     S
C368   C371    1.524   .     S
C368   H370    1.098   .     S
C368   H369    1.111   .     S
C371   H373    1.111   .     S
C371   H374    1.107   .     S
H372   C449    1.111   .     S
O375   C376    1.420   .     S
C376   H378    1.111   .     S
C376   C379    1.522   .     S
C376   H1079   1.112   .     S
H377   C1780   1.112   1_554 S
C379   H382    1.111   .     S
C379   H380    1.107   .     S
C379   H381    1.111   .     S
O383   C384    1.419   .     S
C384   C387    1.523   .     S
C384   H385    1.110   .     S
C384   H386    1.098   .     S
C387   H388    1.110   .     S
C387   H389    1.111   .     S
C387   H390    1.106   .     S
C391   O415    1.290   .     A
C391   C402    1.415   .     S
C391   O413    1.293   .     A
C392   O416    1.292   .     A
C392   C401    1.405   .     S
C392   O414    1.286   .     A
C393   C395    1.405   .     S
C393   O417    1.283   .     A
C393   O419    1.289   .     A
C394   O420    1.292   .     A
C394   C396    1.406   .     S
C394   O418    1.281   .     A
C396   C239    1.356   1_655 S
C396   C274    1.544   1_655 S
C397   C402    1.395   .     A
C397   H407    1.082   .     S
C398   C401    1.389   .     A
C398   H408    1.084   .     S
C398   C634    1.367   .     S
C399   C401    1.395   .     A
C399   H409    1.084   .     S
C399   C631    1.373   .     S
C400   C402    1.393   .     A
C400   H410    1.070   .     S
C403   N412    1.374   .     A
C403   O437    1.389   .     S
C403   C1809   1.445   1_554 S
C404   O445    1.382   .     S
C404   N411    1.378   .     A
C404   C1108   1.432   .     S
C405   N411    1.371   .     A
C405   O453    1.385   .     S
C405   C1105   1.445   .     S
C406   O461    1.384   .     S
C406   N412    1.371   .     A
C406   C1808   1.432   1_554 S
N411   Zn421   2.033   .     S
N412   Zn422   2.033   .     S
O413   Zn421   1.987   .     S
O414   Zn422   1.987   .     S
O415   Zn422   1.985   .     S
O416   Zn421   1.985   .     S
O417   Zn421   1.995   .     S
O418   Zn422   1.995   .     S
O419   Zn422   1.981   .     S
O420   Zn421   1.981   .     S
C423   C424    1.524   .     S
C423   H428    1.103   .     S
C423   C239    1.540   1_655 S
C423   H273    1.107   1_655 S
C424   H427    1.109   .     S
C424   H426    1.110   .     S
C424   H269    1.105   1_655 S
C430   H436    1.108   .     S
C430   H435    1.111   .     S
C431   H432    1.107   .     S
C431   H433    1.103   .     S
C431   H434    1.111   .     S
C431   C274    1.529   1_655 S
O437   C438    1.419   .     S
C438   H440    1.107   .     S
C438   H439    1.107   .     S
C438   C441    1.520   .     S
C441   H442    1.104   .     S
C441   H444    1.111   .     S
C441   H287    1.111   1_655 S
O445   C446    1.406   .     S
C446   C449    1.524   .     S
C446   H448    1.098   .     S
C446   H447    1.111   .     S
C449   H451    1.111   .     S
C449   H452    1.107   .     S
H450   C293    1.111   1_655 S
O453   C454    1.420   .     S
C454   H456    1.111   .     S
C454   C457    1.522   .     S
C454   H1157   1.112   .     S
H455   C1858   1.112   1_554 S
C457   H460    1.111   .     S
C457   H458    1.107   .     S
C457   H459    1.111   .     S
O461   C462    1.419   .     S
C462   C465    1.523   .     S
C462   H463    1.110   .     S
C462   H464    1.098   .     S
C465   H466    1.110   .     S
C465   H467    1.111   .     S
C465   H468    1.106   .     S
C469   O493    1.290   .     A
C469   C480    1.415   .     S
C469   O491    1.293   .     A
C470   O494    1.292   .     A
C470   C479    1.405   .     S
C470   O492    1.286   .     A
C471   C473    1.405   .     S
C471   O495    1.283   .     A
C471   O497    1.289   .     A
C472   O498    1.292   .     A
C472   C474    1.406   .     S
C472   O496    1.281   .     A
C473   C630    1.356   1_455 S
C473   C657    1.540   1_455 S
C474   C551    1.356   .     S
C474   C586    1.544   .     S
C475   C480    1.395   .     A
C475   H485    1.082   .     S
C476   C479    1.389   .     A
C476   H486    1.084   .     S
C476   C10     1.367   1_565 S
C477   C479    1.395   .     A
C477   H487    1.084   .     S
C477   C7      1.373   1_565 S
C478   C480    1.393   .     A
C478   H488    1.070   .     S
C481   N490    1.374   .     A
C481   O515    1.389   .     S
C481   C1887   1.445   1_554 S
C482   O523    1.382   .     S
C482   N489    1.378   .     A
C482   C1186   1.432   .     S
C483   N489    1.371   .     A
C483   O531    1.385   .     S
C483   C1183   1.445   .     S
C484   O539    1.384   .     S
C484   N490    1.371   .     A
C484   C1886   1.432   1_554 S
N489   Zn499   2.033   .     S
N490   Zn500   2.033   .     S
O491   Zn499   1.987   .     S
O492   Zn500   1.987   .     S
O493   Zn500   1.985   .     S
O494   Zn499   1.985   .     S
O495   Zn499   1.995   .     S
O496   Zn500   1.995   .     S
O497   Zn500   1.981   .     S
O498   Zn499   1.981   .     S
C501   C502    1.524   .     S
C501   H506    1.103   .     S
C501   C551    1.540   .     S
C501   H585    1.107   .     S
C502   H505    1.109   .     S
C502   H504    1.110   .     S
C502   H581    1.105   .     S
H503   C658    1.105   1_455 S
H507   C657    1.107   1_455 S
C508   H514    1.108   .     S
C508   H513    1.111   .     S
C508   C630    1.544   1_455 S
C508   C665    1.529   1_455 S
C509   H510    1.107   .     S
C509   H511    1.103   .     S
C509   H512    1.111   .     S
C509   C586    1.529   .     S
O515   C516    1.419   .     S
C516   H518    1.107   .     S
C516   H517    1.107   .     S
C516   C519    1.520   .     S
C519   H520    1.104   .     S
C519   H522    1.111   .     S
C519   H599    1.111   .     S
H521   C675    1.111   1_455 S
O523   C524    1.406   .     S
C524   C527    1.524   .     S
C524   H526    1.098   .     S
C524   H525    1.111   .     S
C527   H529    1.111   .     S
C527   H530    1.107   .     S
C527   H684    1.111   1_455 S
H528   C605    1.111   .     S
O531   C532    1.420   .     S
C532   H534    1.111   .     S
C532   C535    1.522   .     S
C532   H1235   1.112   .     S
H533   C1936   1.112   1_554 S
C535   H538    1.111   .     S
C535   H536    1.107   .     S
C535   H537    1.111   .     S
O539   C540    1.419   .     S
C540   C543    1.523   .     S
C540   H541    1.110   .     S
C540   H542    1.098   .     S
C543   H544    1.110   .     S
C543   H545    1.111   .     S
C543   H546    1.106   .     S
C547   O571    1.290   .     A
C547   C558    1.415   .     S
C547   O569    1.293   .     A
C548   O572    1.292   .     A
C548   C557    1.405   .     S
C548   O570    1.286   .     A
C549   C551    1.405   .     S
C549   O573    1.283   .     A
C549   O575    1.289   .     A
C550   O576    1.292   .     A
C550   C552    1.406   .     S
C550   O574    1.281   .     A
C552   C629    1.356   .     S
C552   C664    1.544   .     S
C553   C558    1.395   .     A
C553   H563    1.082   .     S
C554   C557    1.389   .     A
C554   H564    1.084   .     S
C554   C88     1.367   1_565 S
C555   C557    1.395   .     A
C555   H565    1.084   .     S
C555   C85     1.373   1_565 S
C556   C558    1.393   .     A
C556   H566    1.070   .     S
C559   N568    1.374   .     A
C559   O593    1.389   .     S
C559   C1965   1.445   1_554 S
C560   O601    1.382   .     S
C560   N567    1.378   .     A
C560   C1264   1.432   .     S
C561   N567    1.371   .     A
C561   O609    1.385   .     S
C561   C1261   1.445   .     S
C562   O617    1.384   .     S
C562   N568    1.371   .     A
C562   C1964   1.432   1_554 S
N567   Zn577   2.033   .     S
N568   Zn578   2.033   .     S
O569   Zn577   1.987   .     S
O570   Zn578   1.987   .     S
O571   Zn578   1.985   .     S
O572   Zn577   1.985   .     S
O573   Zn577   1.995   .     S
O574   Zn578   1.995   .     S
O575   Zn578   1.981   .     S
O576   Zn577   1.981   .     S
C579   C580    1.524   .     S
C579   H584    1.103   .     S
C579   C629    1.540   .     S
C579   H663    1.107   .     S
C580   H583    1.109   .     S
C580   H582    1.110   .     S
C580   H659    1.105   .     S
C586   H592    1.108   .     S
C586   H591    1.111   .     S
C587   H588    1.107   .     S
C587   H589    1.103   .     S
C587   H590    1.111   .     S
C587   C664    1.529   .     S
O593   C594    1.419   .     S
C594   H596    1.107   .     S
C594   H595    1.107   .     S
C594   C597    1.520   .     S
C597   H598    1.104   .     S
C597   H600    1.111   .     S
C597   H677    1.111   .     S
O601   C602    1.406   .     S
C602   C605    1.524   .     S
C602   H604    1.098   .     S
C602   H603    1.111   .     S
C605   H607    1.111   .     S
C605   H608    1.107   .     S
H606   C683    1.111   .     S
O609   C610    1.420   .     S
C610   H612    1.111   .     S
C610   C613    1.522   .     S
C610   H1313   1.112   .     S
H611   C2014   1.112   1_554 S
C613   H616    1.111   .     S
C613   H614    1.107   .     S
C613   H615    1.111   .     S
O617   C618    1.419   .     S
C618   C621    1.523   .     S
C618   H619    1.110   .     S
C618   H620    1.098   .     S
C621   H622    1.110   .     S
C621   H623    1.111   .     S
C621   H624    1.106   .     S
C625   O649    1.290   .     A
C625   C636    1.415   .     S
C625   O647    1.293   .     A
C626   O650    1.292   .     A
C626   C635    1.405   .     S
C626   O648    1.286   .     A
C627   C629    1.405   .     S
C627   O651    1.283   .     A
C627   O653    1.289   .     A
C628   O654    1.292   .     A
C628   C630    1.406   .     S
C628   O652    1.281   .     A
C630   C473    1.356   1_655 S
C630   C508    1.544   1_655 S
C631   C636    1.395   .     A
C631   H641    1.082   .     S
C632   C635    1.389   .     A
C632   H642    1.084   .     S
C632   C166    1.367   1_565 S
C633   C635    1.395   .     A
C633   H643    1.084   .     S
C633   C163    1.373   1_565 S
C634   C636    1.393   .     A
C634   H644    1.070   .     S
C637   N646    1.374   .     A
C637   O671    1.389   .     S
C637   C2043   1.445   1_554 S
C638   O679    1.382   .     S
C638   N645    1.378   .     A
C638   C1342   1.432   .     S
C639   N645    1.371   .     A
C639   O687    1.385   .     S
C639   C1339   1.445   .     S
C640   O695    1.384   .     S
C640   N646    1.371   .     A
C640   C2042   1.432   1_554 S
N645   Zn655   2.033   .     S
N646   Zn656   2.033   .     S
O647   Zn655   1.987   .     S
O648   Zn656   1.987   .     S
O649   Zn656   1.985   .     S
O650   Zn655   1.985   .     S
O651   Zn655   1.995   .     S
O652   Zn656   1.995   .     S
O653   Zn656   1.981   .     S
O654   Zn655   1.981   .     S
C657   C658    1.524   .     S
C657   H662    1.103   .     S
C657   C473    1.540   1_655 S
C657   H507    1.107   1_655 S
C658   H661    1.109   .     S
C658   H660    1.110   .     S
C658   H503    1.105   1_655 S
C664   H670    1.108   .     S
C664   H669    1.111   .     S
C665   H666    1.107   .     S
C665   H667    1.103   .     S
C665   H668    1.111   .     S
C665   C508    1.529   1_655 S
O671   C672    1.419   .     S
C672   H674    1.107   .     S
C672   H673    1.107   .     S
C672   C675    1.520   .     S
C675   H676    1.104   .     S
C675   H678    1.111   .     S
C675   H521    1.111   1_655 S
O679   C680    1.406   .     S
C680   C683    1.524   .     S
C680   H682    1.098   .     S
C680   H681    1.111   .     S
C683   H685    1.111   .     S
C683   H686    1.107   .     S
H684   C527    1.111   1_655 S
O687   C688    1.420   .     S
C688   H690    1.111   .     S
C688   C691    1.522   .     S
C688   H1391   1.112   .     S
H689   C2092   1.112   1_554 S
C691   H694    1.111   .     S
C691   H692    1.107   .     S
C691   H693    1.111   .     S
O695   C696    1.419   .     S
C696   C699    1.523   .     S
C696   H697    1.110   .     S
C696   H698    1.098   .     S
C699   H700    1.110   .     S
C699   H701    1.111   .     S
C699   H702    1.106   .     S
C703   O727    1.290   .     A
C703   C714    1.415   .     S
C703   O725    1.293   .     A
C704   O728    1.292   .     A
C704   C713    1.405   .     S
C704   O726    1.286   .     A
C705   C707    1.405   .     S
C705   O729    1.283   .     A
C705   O731    1.289   .     A
C706   O732    1.292   .     A
C706   C708    1.406   .     S
C706   O730    1.281   .     A
C707   C864    1.356   1_455 S
C707   C891    1.540   1_455 S
C708   C785    1.356   .     S
C708   C820    1.544   .     S
C709   C714    1.395   .     A
C709   H719    1.082   .     S
C709   C1179   1.373   1_545 S
C710   C713    1.389   .     A
C710   H720    1.084   .     S
C710   C946    1.367   .     S
C711   C713    1.395   .     A
C711   H721    1.084   .     S
C711   C943    1.373   .     S
C712   C714    1.393   .     A
C712   H722    1.070   .     S
C712   C1178   1.367   1_545 S
C715   N724    1.374   .     A
C715   O749    1.389   .     S
C716   O757    1.382   .     S
C716   N723    1.378   .     A
C716   C1420   1.432   .     S
C717   N723    1.371   .     A
C717   O765    1.385   .     S
C717   C1417   1.445   .     S
C718   O773    1.384   .     S
C718   N724    1.371   .     A
N723   Zn733   2.033   .     S
N724   Zn734   2.033   .     S
O725   Zn733   1.987   .     S
O726   Zn734   1.987   .     S
O727   Zn734   1.985   .     S
O728   Zn733   1.985   .     S
O729   Zn733   1.995   .     S
O730   Zn734   1.995   .     S
O731   Zn734   1.981   .     S
O732   Zn733   1.981   .     S
C735   C736    1.524   .     S
C735   H740    1.103   .     S
C735   C785    1.540   .     S
C735   H819    1.107   .     S
C736   H739    1.109   .     S
C736   H738    1.110   .     S
C736   H815    1.105   .     S
H737   C892    1.105   1_455 S
H741   C891    1.107   1_455 S
C742   H748    1.108   .     S
C742   H747    1.111   .     S
C742   C864    1.544   1_455 S
C742   C899    1.529   1_455 S
C743   H744    1.107   .     S
C743   H745    1.103   .     S
C743   H746    1.111   .     S
C743   C820    1.529   .     S
O749   C750    1.419   .     S
C750   H752    1.107   .     S
C750   H751    1.107   .     S
C750   C753    1.520   .     S
C753   H754    1.104   .     S
C753   H756    1.111   .     S
C753   H833    1.111   .     S
H755   C909    1.111   1_455 S
O757   C758    1.406   .     S
C758   C761    1.524   .     S
C758   H760    1.098   .     S
C758   H759    1.111   .     S
C761   H763    1.111   .     S
C761   H764    1.107   .     S
C761   H918    1.111   1_455 S
H762   C839    1.111   .     S
O765   C766    1.420   .     S
C766   H768    1.111   .     S
C766   C769    1.522   .     S
C766   H1469   1.112   .     S
C769   H772    1.111   .     S
C769   H770    1.107   .     S
C769   H771    1.111   .     S
O773   C774    1.419   .     S
C774   C777    1.523   .     S
C774   H775    1.110   .     S
C774   H776    1.098   .     S
C777   H778    1.110   .     S
C777   H779    1.111   .     S
C777   H780    1.106   .     S
C781   O805    1.290   .     A
C781   C792    1.415   .     S
C781   O803    1.293   .     A
C782   O806    1.292   .     A
C782   C791    1.405   .     S
C782   O804    1.286   .     A
C783   C785    1.405   .     S
C783   O807    1.283   .     A
C783   O809    1.289   .     A
C784   O810    1.292   .     A
C784   C786    1.406   .     S
C784   O808    1.281   .     A
C786   C863    1.356   .     S
C786   C898    1.544   .     S
C787   C792    1.395   .     A
C787   H797    1.082   .     S
C787   C1257   1.373   1_545 S
C788   C791    1.389   .     A
C788   H798    1.084   .     S
C788   C1024   1.367   .     S
C789   C791    1.395   .     A
C789   H799    1.084   .     S
C789   C1021   1.373   .     S
C790   C792    1.393   .     A
C790   H800    1.070   .     S
C790   C1256   1.367   1_545 S
C793   N802    1.374   .     A
C793   O827    1.389   .     S
C794   O835    1.382   .     S
C794   N801    1.378   .     A
C794   C1498   1.432   .     S
C795   N801    1.371   .     A
C795   O843    1.385   .     S
C795   C1495   1.445   .     S
C796   O851    1.384   .     S
C796   N802    1.371   .     A
N801   Zn811   2.033   .     S
N802   Zn812   2.033   .     S
O803   Zn811   1.987   .     S
O804   Zn812   1.987   .     S
O805   Zn812   1.985   .     S
O806   Zn811   1.985   .     S
O807   Zn811   1.995   .     S
O808   Zn812   1.995   .     S
O809   Zn812   1.981   .     S
O810   Zn811   1.981   .     S
C813   C814    1.524   .     S
C813   H818    1.103   .     S
C813   C863    1.540   .     S
C813   H897    1.107   .     S
C814   H817    1.109   .     S
C814   H816    1.110   .     S
C814   H893    1.105   .     S
C820   H826    1.108   .     S
C820   H825    1.111   .     S
C821   H822    1.107   .     S
C821   H823    1.103   .     S
C821   H824    1.111   .     S
C821   C898    1.529   .     S
O827   C828    1.419   .     S
C828   H830    1.107   .     S
C828   H829    1.107   .     S
C828   C831    1.520   .     S
C831   H832    1.104   .     S
C831   H834    1.111   .     S
C831   H911    1.111   .     S
O835   C836    1.406   .     S
C836   C839    1.524   .     S
C836   H838    1.098   .     S
C836   H837    1.111   .     S
C839   H841    1.111   .     S
C839   H842    1.107   .     S
H840   C917    1.111   .     S
O843   C844    1.420   .     S
C844   H846    1.111   .     S
C844   C847    1.522   .     S
C844   H1547   1.112   .     S
C847   H850    1.111   .     S
C847   H848    1.107   .     S
C847   H849    1.111   .     S
O851   C852    1.419   .     S
C852   C855    1.523   .     S
C852   H853    1.110   .     S
C852   H854    1.098   .     S
C855   H856    1.110   .     S
C855   H857    1.111   .     S
C855   H858    1.106   .     S
C859   O883    1.290   .     A
C859   C870    1.415   .     S
C859   O881    1.293   .     A
C860   O884    1.292   .     A
C860   C869    1.405   .     S
C860   O882    1.286   .     A
C861   C863    1.405   .     S
C861   O885    1.283   .     A
C861   O887    1.289   .     A
C862   O888    1.292   .     A
C862   C864    1.406   .     S
C862   O886    1.281   .     A
C864   C707    1.356   1_655 S
C864   C742    1.544   1_655 S
C865   C870    1.395   .     A
C865   H875    1.082   .     S
C865   C1335   1.373   1_545 S
C866   C869    1.389   .     A
C866   H876    1.084   .     S
C866   C1102   1.367   .     S
C867   C869    1.395   .     A
C867   H877    1.084   .     S
C867   C1099   1.373   .     S
C868   C870    1.393   .     A
C868   H878    1.070   .     S
C868   C1334   1.367   1_545 S
C871   N880    1.374   .     A
C871   O905    1.389   .     S
C872   O913    1.382   .     S
C872   N879    1.378   .     A
C872   C1576   1.432   .     S
C873   N879    1.371   .     A
C873   O921    1.385   .     S
C873   C1573   1.445   .     S
C874   O929    1.384   .     S
C874   N880    1.371   .     A
N879   Zn889   2.033   .     S
N880   Zn890   2.033   .     S
O881   Zn889   1.987   .     S
O882   Zn890   1.987   .     S
O883   Zn890   1.985   .     S
O884   Zn889   1.985   .     S
O885   Zn889   1.995   .     S
O886   Zn890   1.995   .     S
O887   Zn890   1.981   .     S
O888   Zn889   1.981   .     S
C891   C892    1.524   .     S
C891   H896    1.103   .     S
C891   C707    1.540   1_655 S
C891   H741    1.107   1_655 S
C892   H895    1.109   .     S
C892   H894    1.110   .     S
C892   H737    1.105   1_655 S
C898   H904    1.108   .     S
C898   H903    1.111   .     S
C899   H900    1.107   .     S
C899   H901    1.103   .     S
C899   H902    1.111   .     S
C899   C742    1.529   1_655 S
O905   C906    1.419   .     S
C906   H908    1.107   .     S
C906   H907    1.107   .     S
C906   C909    1.520   .     S
C909   H910    1.104   .     S
C909   H912    1.111   .     S
C909   H755    1.111   1_655 S
O913   C914    1.406   .     S
C914   C917    1.524   .     S
C914   H916    1.098   .     S
C914   H915    1.111   .     S
C917   H919    1.111   .     S
C917   H920    1.107   .     S
H918   C761    1.111   1_655 S
O921   C922    1.420   .     S
C922   H924    1.111   .     S
C922   C925    1.522   .     S
C922   H1625   1.112   .     S
C925   H928    1.111   .     S
C925   H926    1.107   .     S
C925   H927    1.111   .     S
O929   C930    1.419   .     S
C930   C933    1.523   .     S
C930   H931    1.110   .     S
C930   H932    1.098   .     S
C933   H934    1.110   .     S
C933   H935    1.111   .     S
C933   H936    1.106   .     S
C937   O961    1.290   .     A
C937   C948    1.415   .     S
C937   O959    1.293   .     A
C938   O962    1.292   .     A
C938   C947    1.405   .     S
C938   O960    1.286   .     A
C939   C941    1.405   .     S
C939   O963    1.283   .     A
C939   O965    1.289   .     A
C940   O966    1.292   .     A
C940   C942    1.406   .     S
C940   O964    1.281   .     A
C941   C1098   1.356   1_455 S
C941   C1125   1.540   1_455 S
C942   C1019   1.356   .     S
C942   C1054   1.544   .     S
C943   C948    1.395   .     A
C943   H953    1.082   .     S
C944   C947    1.389   .     A
C944   H954    1.084   .     S
C944   C1180   1.367   .     S
C945   C947    1.395   .     A
C945   H955    1.084   .     S
C945   C1177   1.373   .     S
C946   C948    1.393   .     A
C946   H956    1.070   .     S
C949   N958    1.374   .     A
C949   O983    1.389   .     S
C950   O991    1.382   .     S
C950   N957    1.378   .     A
C950   C1654   1.432   .     S
C951   N957    1.371   .     A
C951   O999    1.385   .     S
C951   C1651   1.445   .     S
C952   O1007   1.384   .     S
C952   N958    1.371   .     A
N957   Zn967   2.033   .     S
N958   Zn968   2.033   .     S
O959   Zn967   1.987   .     S
O960   Zn968   1.987   .     S
O961   Zn968   1.985   .     S
O962   Zn967   1.985   .     S
O963   Zn967   1.995   .     S
O964   Zn968   1.995   .     S
O965   Zn968   1.981   .     S
O966   Zn967   1.981   .     S
C969   C970    1.524   .     S
C969   H974    1.103   .     S
C969   C1019   1.540   .     S
C969   H1053   1.107   .     S
C970   H973    1.109   .     S
C970   H972    1.110   .     S
C970   H1049   1.105   .     S
H971   C1126   1.105   1_455 S
H975   C1125   1.107   1_455 S
C976   H982    1.108   .     S
C976   H981    1.111   .     S
C976   C1098   1.544   1_455 S
C976   C1133   1.529   1_455 S
C977   H978    1.107   .     S
C977   H979    1.103   .     S
C977   H980    1.111   .     S
C977   C1054   1.529   .     S
O983   C984    1.419   .     S
C984   H986    1.107   .     S
C984   H985    1.107   .     S
C984   C987    1.520   .     S
C987   H988    1.104   .     S
C987   H990    1.111   .     S
C987   H1067   1.111   .     S
H989   C1143   1.111   1_455 S
O991   C992    1.406   .     S
C992   C995    1.524   .     S
C992   H994    1.098   .     S
C992   H993    1.111   .     S
C995   H997    1.111   .     S
C995   H998    1.107   .     S
C995   H1152   1.111   1_455 S
H996   C1073   1.111   .     S
O999   C1000   1.420   .     S
C1000  H1002   1.111   .     S
C1000  C1003   1.522   .     S
C1000  H1703   1.112   .     S
C1003  H1006   1.111   .     S
C1003  H1004   1.107   .     S
C1003  H1005   1.111   .     S
O1007  C1008   1.419   .     S
C1008  C1011   1.523   .     S
C1008  H1009   1.110   .     S
C1008  H1010   1.098   .     S
C1011  H1012   1.110   .     S
C1011  H1013   1.111   .     S
C1011  H1014   1.106   .     S
C1015  O1039   1.290   .     A
C1015  C1026   1.415   .     S
C1015  O1037   1.293   .     A
C1016  O1040   1.292   .     A
C1016  C1025   1.405   .     S
C1016  O1038   1.286   .     A
C1017  C1019   1.405   .     S
C1017  O1041   1.283   .     A
C1017  O1043   1.289   .     A
C1018  O1044   1.292   .     A
C1018  C1020   1.406   .     S
C1018  O1042   1.281   .     A
C1020  C1097   1.356   .     S
C1020  C1132   1.544   .     S
C1021  C1026   1.395   .     A
C1021  H1031   1.082   .     S
C1022  C1025   1.389   .     A
C1022  H1032   1.084   .     S
C1022  C1258   1.367   .     S
C1023  C1025   1.395   .     A
C1023  H1033   1.084   .     S
C1023  C1255   1.373   .     S
C1024  C1026   1.393   .     A
C1024  H1034   1.070   .     S
C1027  N1036   1.374   .     A
C1027  O1061   1.389   .     S
C1028  O1069   1.382   .     S
C1028  N1035   1.378   .     A
C1028  C1732   1.432   .     S
C1029  N1035   1.371   .     A
C1029  O1077   1.385   .     S
C1029  C1729   1.445   .     S
C1030  O1085   1.384   .     S
C1030  N1036   1.371   .     A
N1035  Zn1045  2.033   .     S
N1036  Zn1046  2.033   .     S
O1037  Zn1045  1.987   .     S
O1038  Zn1046  1.987   .     S
O1039  Zn1046  1.985   .     S
O1040  Zn1045  1.985   .     S
O1041  Zn1045  1.995   .     S
O1042  Zn1046  1.995   .     S
O1043  Zn1046  1.981   .     S
O1044  Zn1045  1.981   .     S
C1047  C1048   1.524   .     S
C1047  H1052   1.103   .     S
C1047  C1097   1.540   .     S
C1047  H1131   1.107   .     S
C1048  H1051   1.109   .     S
C1048  H1050   1.110   .     S
C1048  H1127   1.105   .     S
C1054  H1060   1.108   .     S
C1054  H1059   1.111   .     S
C1055  H1056   1.107   .     S
C1055  H1057   1.103   .     S
C1055  H1058   1.111   .     S
C1055  C1132   1.529   .     S
O1061  C1062   1.419   .     S
C1062  H1064   1.107   .     S
C1062  H1063   1.107   .     S
C1062  C1065   1.520   .     S
C1065  H1066   1.104   .     S
C1065  H1068   1.111   .     S
C1065  H1145   1.111   .     S
O1069  C1070   1.406   .     S
C1070  C1073   1.524   .     S
C1070  H1072   1.098   .     S
C1070  H1071   1.111   .     S
C1073  H1075   1.111   .     S
C1073  H1076   1.107   .     S
H1074  C1151   1.111   .     S
O1077  C1078   1.420   .     S
C1078  H1080   1.111   .     S
C1078  C1081   1.522   .     S
C1078  H1781   1.112   .     S
C1081  H1084   1.111   .     S
C1081  H1082   1.107   .     S
C1081  H1083   1.111   .     S
O1085  C1086   1.419   .     S
C1086  C1089   1.523   .     S
C1086  H1087   1.110   .     S
C1086  H1088   1.098   .     S
C1089  H1090   1.110   .     S
C1089  H1091   1.111   .     S
C1089  H1092   1.106   .     S
C1093  O1117   1.290   .     A
C1093  C1104   1.415   .     S
C1093  O1115   1.293   .     A
C1094  O1118   1.292   .     A
C1094  C1103   1.405   .     S
C1094  O1116   1.286   .     A
C1095  C1097   1.405   .     S
C1095  O1119   1.283   .     A
C1095  O1121   1.289   .     A
C1096  O1122   1.292   .     A
C1096  C1098   1.406   .     S
C1096  O1120   1.281   .     A
C1098  C941    1.356   1_655 S
C1098  C976    1.544   1_655 S
C1099  C1104   1.395   .     A
C1099  H1109   1.082   .     S
C1100  C1103   1.389   .     A
C1100  H1110   1.084   .     S
C1100  C1336   1.367   .     S
C1101  C1103   1.395   .     A
C1101  H1111   1.084   .     S
C1101  C1333   1.373   .     S
C1102  C1104   1.393   .     A
C1102  H1112   1.070   .     S
C1105  N1114   1.374   .     A
C1105  O1139   1.389   .     S
C1106  O1147   1.382   .     S
C1106  N1113   1.378   .     A
C1106  C1810   1.432   .     S
C1107  N1113   1.371   .     A
C1107  O1155   1.385   .     S
C1107  C1807   1.445   .     S
C1108  O1163   1.384   .     S
C1108  N1114   1.371   .     A
N1113  Zn1123  2.033   .     S
N1114  Zn1124  2.033   .     S
O1115  Zn1123  1.987   .     S
O1116  Zn1124  1.987   .     S
O1117  Zn1124  1.985   .     S
O1118  Zn1123  1.985   .     S
O1119  Zn1123  1.995   .     S
O1120  Zn1124  1.995   .     S
O1121  Zn1124  1.981   .     S
O1122  Zn1123  1.981   .     S
C1125  C1126   1.524   .     S
C1125  H1130   1.103   .     S
C1125  C941    1.540   1_655 S
C1125  H975    1.107   1_655 S
C1126  H1129   1.109   .     S
C1126  H1128   1.110   .     S
C1126  H971    1.105   1_655 S
C1132  H1138   1.108   .     S
C1132  H1137   1.111   .     S
C1133  H1134   1.107   .     S
C1133  H1135   1.103   .     S
C1133  H1136   1.111   .     S
C1133  C976    1.529   1_655 S
O1139  C1140   1.419   .     S
C1140  H1142   1.107   .     S
C1140  H1141   1.107   .     S
C1140  C1143   1.520   .     S
C1143  H1144   1.104   .     S
C1143  H1146   1.111   .     S
C1143  H989    1.111   1_655 S
O1147  C1148   1.406   .     S
C1148  C1151   1.524   .     S
C1148  H1150   1.098   .     S
C1148  H1149   1.111   .     S
C1151  H1153   1.111   .     S
C1151  H1154   1.107   .     S
H1152  C995    1.111   1_655 S
O1155  C1156   1.420   .     S
C1156  H1158   1.111   .     S
C1156  C1159   1.522   .     S
C1156  H1859   1.112   .     S
C1159  H1162   1.111   .     S
C1159  H1160   1.107   .     S
C1159  H1161   1.111   .     S
O1163  C1164   1.419   .     S
C1164  C1167   1.523   .     S
C1164  H1165   1.110   .     S
C1164  H1166   1.098   .     S
C1167  H1168   1.110   .     S
C1167  H1169   1.111   .     S
C1167  H1170   1.106   .     S
C1171  O1195   1.290   .     A
C1171  C1182   1.415   .     S
C1171  O1193   1.293   .     A
C1172  O1196   1.292   .     A
C1172  C1181   1.405   .     S
C1172  O1194   1.286   .     A
C1173  C1175   1.405   .     S
C1173  O1197   1.283   .     A
C1173  O1199   1.289   .     A
C1174  O1200   1.292   .     A
C1174  C1176   1.406   .     S
C1174  O1198   1.281   .     A
C1175  C1332   1.356   1_455 S
C1175  C1359   1.540   1_455 S
C1176  C1253   1.356   .     S
C1176  C1288   1.544   .     S
C1177  C1182   1.395   .     A
C1177  H1187   1.082   .     S
C1178  C1181   1.389   .     A
C1178  H1188   1.084   .     S
C1178  C712    1.367   1_565 S
C1179  C1181   1.395   .     A
C1179  H1189   1.084   .     S
C1179  C709    1.373   1_565 S
C1180  C1182   1.393   .     A
C1180  H1190   1.070   .     S
C1183  N1192   1.374   .     A
C1183  O1217   1.389   .     S
C1184  O1225   1.382   .     S
C1184  N1191   1.378   .     A
C1184  C1888   1.432   .     S
C1185  N1191   1.371   .     A
C1185  O1233   1.385   .     S
C1185  C1885   1.445   .     S
C1186  O1241   1.384   .     S
C1186  N1192   1.371   .     A
N1191  Zn1201  2.033   .     S
N1192  Zn1202  2.033   .     S
O1193  Zn1201  1.987   .     S
O1194  Zn1202  1.987   .     S
O1195  Zn1202  1.985   .     S
O1196  Zn1201  1.985   .     S
O1197  Zn1201  1.995   .     S
O1198  Zn1202  1.995   .     S
O1199  Zn1202  1.981   .     S
O1200  Zn1201  1.981   .     S
C1203  C1204   1.524   .     S
C1203  H1208   1.103   .     S
C1203  C1253   1.540   .     S
C1203  H1287   1.107   .     S
C1204  H1207   1.109   .     S
C1204  H1206   1.110   .     S
C1204  H1283   1.105   .     S
H1205  C1360   1.105   1_455 S
H1209  C1359   1.107   1_455 S
C1210  H1216   1.108   .     S
C1210  H1215   1.111   .     S
C1210  C1332   1.544   1_455 S
C1210  C1367   1.529   1_455 S
C1211  H1212   1.107   .     S
C1211  H1213   1.103   .     S
C1211  H1214   1.111   .     S
C1211  C1288   1.529   .     S
O1217  C1218   1.419   .     S
C1218  H1220   1.107   .     S
C1218  H1219   1.107   .     S
C1218  C1221   1.520   .     S
C1221  H1222   1.104   .     S
C1221  H1224   1.111   .     S
C1221  H1301   1.111   .     S
H1223  C1377   1.111   1_455 S
O1225  C1226   1.406   .     S
C1226  C1229   1.524   .     S
C1226  H1228   1.098   .     S
C1226  H1227   1.111   .     S
C1229  H1231   1.111   .     S
C1229  H1232   1.107   .     S
C1229  H1386   1.111   1_455 S
H1230  C1307   1.111   .     S
O1233  C1234   1.420   .     S
C1234  H1236   1.111   .     S
C1234  C1237   1.522   .     S
C1234  H1937   1.112   .     S
C1237  H1240   1.111   .     S
C1237  H1238   1.107   .     S
C1237  H1239   1.111   .     S
O1241  C1242   1.419   .     S
C1242  C1245   1.523   .     S
C1242  H1243   1.110   .     S
C1242  H1244   1.098   .     S
C1245  H1246   1.110   .     S
C1245  H1247   1.111   .     S
C1245  H1248   1.106   .     S
C1249  O1273   1.290   .     A
C1249  C1260   1.415   .     S
C1249  O1271   1.293   .     A
C1250  O1274   1.292   .     A
C1250  C1259   1.405   .     S
C1250  O1272   1.286   .     A
C1251  C1253   1.405   .     S
C1251  O1275   1.283   .     A
C1251  O1277   1.289   .     A
C1252  O1278   1.292   .     A
C1252  C1254   1.406   .     S
C1252  O1276   1.281   .     A
C1254  C1331   1.356   .     S
C1254  C1366   1.544   .     S
C1255  C1260   1.395   .     A
C1255  H1265   1.082   .     S
C1256  C1259   1.389   .     A
C1256  H1266   1.084   .     S
C1256  C790    1.367   1_565 S
C1257  C1259   1.395   .     A
C1257  H1267   1.084   .     S
C1257  C787    1.373   1_565 S
C1258  C1260   1.393   .     A
C1258  H1268   1.070   .     S
C1261  N1270   1.374   .     A
C1261  O1295   1.389   .     S
C1262  O1303   1.382   .     S
C1262  N1269   1.378   .     A
C1262  C1966   1.432   .     S
C1263  N1269   1.371   .     A
C1263  O1311   1.385   .     S
C1263  C1963   1.445   .     S
C1264  O1319   1.384   .     S
C1264  N1270   1.371   .     A
N1269  Zn1279  2.033   .     S
N1270  Zn1280  2.033   .     S
O1271  Zn1279  1.987   .     S
O1272  Zn1280  1.987   .     S
O1273  Zn1280  1.985   .     S
O1274  Zn1279  1.985   .     S
O1275  Zn1279  1.995   .     S
O1276  Zn1280  1.995   .     S
O1277  Zn1280  1.981   .     S
O1278  Zn1279  1.981   .     S
C1281  C1282   1.524   .     S
C1281  H1286   1.103   .     S
C1281  C1331   1.540   .     S
C1281  H1365   1.107   .     S
C1282  H1285   1.109   .     S
C1282  H1284   1.110   .     S
C1282  H1361   1.105   .     S
C1288  H1294   1.108   .     S
C1288  H1293   1.111   .     S
C1289  H1290   1.107   .     S
C1289  H1291   1.103   .     S
C1289  H1292   1.111   .     S
C1289  C1366   1.529   .     S
O1295  C1296   1.419   .     S
C1296  H1298   1.107   .     S
C1296  H1297   1.107   .     S
C1296  C1299   1.520   .     S
C1299  H1300   1.104   .     S
C1299  H1302   1.111   .     S
C1299  H1379   1.111   .     S
O1303  C1304   1.406   .     S
C1304  C1307   1.524   .     S
C1304  H1306   1.098   .     S
C1304  H1305   1.111   .     S
C1307  H1309   1.111   .     S
C1307  H1310   1.107   .     S
H1308  C1385   1.111   .     S
O1311  C1312   1.420   .     S
C1312  H1314   1.111   .     S
C1312  C1315   1.522   .     S
C1312  H2015   1.112   .     S
C1315  H1318   1.111   .     S
C1315  H1316   1.107   .     S
C1315  H1317   1.111   .     S
O1319  C1320   1.419   .     S
C1320  C1323   1.523   .     S
C1320  H1321   1.110   .     S
C1320  H1322   1.098   .     S
C1323  H1324   1.110   .     S
C1323  H1325   1.111   .     S
C1323  H1326   1.106   .     S
C1327  O1351   1.290   .     A
C1327  C1338   1.415   .     S
C1327  O1349   1.293   .     A
C1328  O1352   1.292   .     A
C1328  C1337   1.405   .     S
C1328  O1350   1.286   .     A
C1329  C1331   1.405   .     S
C1329  O1353   1.283   .     A
C1329  O1355   1.289   .     A
C1330  O1356   1.292   .     A
C1330  C1332   1.406   .     S
C1330  O1354   1.281   .     A
C1332  C1175   1.356   1_655 S
C1332  C1210   1.544   1_655 S
C1333  C1338   1.395   .     A
C1333  H1343   1.082   .     S
C1334  C1337   1.389   .     A
C1334  H1344   1.084   .     S
C1334  C868    1.367   1_565 S
C1335  C1337   1.395   .     A
C1335  H1345   1.084   .     S
C1335  C865    1.373   1_565 S
C1336  C1338   1.393   .     A
C1336  H1346   1.070   .     S
C1339  N1348   1.374   .     A
C1339  O1373   1.389   .     S
C1340  O1381   1.382   .     S
C1340  N1347   1.378   .     A
C1340  C2044   1.432   .     S
C1341  N1347   1.371   .     A
C1341  O1389   1.385   .     S
C1341  C2041   1.445   .     S
C1342  O1397   1.384   .     S
C1342  N1348   1.371   .     A
N1347  Zn1357  2.033   .     S
N1348  Zn1358  2.033   .     S
O1349  Zn1357  1.987   .     S
O1350  Zn1358  1.987   .     S
O1351  Zn1358  1.985   .     S
O1352  Zn1357  1.985   .     S
O1353  Zn1357  1.995   .     S
O1354  Zn1358  1.995   .     S
O1355  Zn1358  1.981   .     S
O1356  Zn1357  1.981   .     S
C1359  C1360   1.524   .     S
C1359  H1364   1.103   .     S
C1359  C1175   1.540   1_655 S
C1359  H1209   1.107   1_655 S
C1360  H1363   1.109   .     S
C1360  H1362   1.110   .     S
C1360  H1205   1.105   1_655 S
C1366  H1372   1.108   .     S
C1366  H1371   1.111   .     S
C1367  H1368   1.107   .     S
C1367  H1369   1.103   .     S
C1367  H1370   1.111   .     S
C1367  C1210   1.529   1_655 S
O1373  C1374   1.419   .     S
C1374  H1376   1.107   .     S
C1374  H1375   1.107   .     S
C1374  C1377   1.520   .     S
C1377  H1378   1.104   .     S
C1377  H1380   1.111   .     S
C1377  H1223   1.111   1_655 S
O1381  C1382   1.406   .     S
C1382  C1385   1.524   .     S
C1382  H1384   1.098   .     S
C1382  H1383   1.111   .     S
C1385  H1387   1.111   .     S
C1385  H1388   1.107   .     S
H1386  C1229   1.111   1_655 S
O1389  C1390   1.420   .     S
C1390  H1392   1.111   .     S
C1390  C1393   1.522   .     S
C1390  H2093   1.112   .     S
C1393  H1396   1.111   .     S
C1393  H1394   1.107   .     S
C1393  H1395   1.111   .     S
O1397  C1398   1.419   .     S
C1398  C1401   1.523   .     S
C1398  H1399   1.110   .     S
C1398  H1400   1.098   .     S
C1401  H1402   1.110   .     S
C1401  H1403   1.111   .     S
C1401  H1404   1.106   .     S
C1405  O1429   1.290   .     A
C1405  C1416   1.415   .     S
C1405  O1427   1.293   .     A
C1406  O1430   1.292   .     A
C1406  C1415   1.405   .     S
C1406  O1428   1.286   .     A
C1407  C1409   1.405   .     S
C1407  O1431   1.283   .     A
C1407  O1433   1.289   .     A
C1408  O1434   1.292   .     A
C1408  C1410   1.406   .     S
C1408  O1432   1.281   .     A
C1409  C1566   1.356   1_455 S
C1409  C1593   1.540   1_455 S
C1410  C1487   1.356   .     S
C1410  C1522   1.544   .     S
C1411  C1416   1.395   .     A
C1411  H1421   1.082   .     S
C1411  C1881   1.373   1_545 S
C1412  C1415   1.389   .     A
C1412  H1422   1.084   .     S
C1412  C1648   1.367   .     S
C1413  C1415   1.395   .     A
C1413  H1423   1.084   .     S
C1413  C1645   1.373   .     S
C1414  C1416   1.393   .     A
C1414  H1424   1.070   .     S
C1414  C1880   1.367   1_545 S
C1417  N1426   1.374   .     A
C1417  O1451   1.389   .     S
C1418  O1459   1.382   .     S
C1418  N1425   1.378   .     A
C1418  C16     1.432   1_556 S
C1419  N1425   1.371   .     A
C1419  O1467   1.385   .     S
C1419  C13     1.445   1_556 S
C1420  O1475   1.384   .     S
C1420  N1426   1.371   .     A
N1425  Zn1435  2.033   .     S
N1426  Zn1436  2.033   .     S
O1427  Zn1435  1.987   .     S
O1428  Zn1436  1.987   .     S
O1429  Zn1436  1.985   .     S
O1430  Zn1435  1.985   .     S
O1431  Zn1435  1.995   .     S
O1432  Zn1436  1.995   .     S
O1433  Zn1436  1.981   .     S
O1434  Zn1435  1.981   .     S
C1437  C1438   1.524   .     S
C1437  H1442   1.103   .     S
C1437  C1487   1.540   .     S
C1437  H1521   1.107   .     S
C1438  H1441   1.109   .     S
C1438  H1440   1.110   .     S
C1438  H1517   1.105   .     S
H1439  C1594   1.105   1_455 S
H1443  C1593   1.107   1_455 S
C1444  H1450   1.108   .     S
C1444  H1449   1.111   .     S
C1444  C1566   1.544   1_455 S
C1444  C1601   1.529   1_455 S
C1445  H1446   1.107   .     S
C1445  H1447   1.103   .     S
C1445  H1448   1.111   .     S
C1445  C1522   1.529   .     S
O1451  C1452   1.419   .     S
C1452  H1454   1.107   .     S
C1452  H1453   1.107   .     S
C1452  C1455   1.520   .     S
C1455  H1456   1.104   .     S
C1455  H1458   1.111   .     S
C1455  H1535   1.111   .     S
H1457  C1611   1.111   1_455 S
O1459  C1460   1.406   .     S
C1460  C1463   1.524   .     S
C1460  H1462   1.098   .     S
C1460  H1461   1.111   .     S
C1463  H1465   1.111   .     S
C1463  H1466   1.107   .     S
C1463  H1620   1.111   1_455 S
H1464  C1541   1.111   .     S
O1467  C1468   1.420   .     S
C1468  H1470   1.111   .     S
C1468  C1471   1.522   .     S
C1468  H65     1.112   1_556 S
C1471  H1474   1.111   .     S
C1471  H1472   1.107   .     S
C1471  H1473   1.111   .     S
O1475  C1476   1.419   .     S
C1476  C1479   1.523   .     S
C1476  H1477   1.110   .     S
C1476  H1478   1.098   .     S
C1479  H1480   1.110   .     S
C1479  H1481   1.111   .     S
C1479  H1482   1.106   .     S
C1483  O1507   1.290   .     A
C1483  C1494   1.415   .     S
C1483  O1505   1.293   .     A
C1484  O1508   1.292   .     A
C1484  C1493   1.405   .     S
C1484  O1506   1.286   .     A
C1485  C1487   1.405   .     S
C1485  O1509   1.283   .     A
C1485  O1511   1.289   .     A
C1486  O1512   1.292   .     A
C1486  C1488   1.406   .     S
C1486  O1510   1.281   .     A
C1488  C1565   1.356   .     S
C1488  C1600   1.544   .     S
C1489  C1494   1.395   .     A
C1489  H1499   1.082   .     S
C1489  C1959   1.373   1_545 S
C1490  C1493   1.389   .     A
C1490  H1500   1.084   .     S
C1490  C1726   1.367   .     S
C1491  C1493   1.395   .     A
C1491  H1501   1.084   .     S
C1491  C1723   1.373   .     S
C1492  C1494   1.393   .     A
C1492  H1502   1.070   .     S
C1492  C1958   1.367   1_545 S
C1495  N1504   1.374   .     A
C1495  O1529   1.389   .     S
C1496  O1537   1.382   .     S
C1496  N1503   1.378   .     A
C1496  C94     1.432   1_556 S
C1497  N1503   1.371   .     A
C1497  O1545   1.385   .     S
C1497  C91     1.445   1_556 S
C1498  O1553   1.384   .     S
C1498  N1504   1.371   .     A
N1503  Zn1513  2.033   .     S
N1504  Zn1514  2.033   .     S
O1505  Zn1513  1.987   .     S
O1506  Zn1514  1.987   .     S
O1507  Zn1514  1.985   .     S
O1508  Zn1513  1.985   .     S
O1509  Zn1513  1.995   .     S
O1510  Zn1514  1.995   .     S
O1511  Zn1514  1.981   .     S
O1512  Zn1513  1.981   .     S
C1515  C1516   1.524   .     S
C1515  H1520   1.103   .     S
C1515  C1565   1.540   .     S
C1515  H1599   1.107   .     S
C1516  H1519   1.109   .     S
C1516  H1518   1.110   .     S
C1516  H1595   1.105   .     S
C1522  H1528   1.108   .     S
C1522  H1527   1.111   .     S
C1523  H1524   1.107   .     S
C1523  H1525   1.103   .     S
C1523  H1526   1.111   .     S
C1523  C1600   1.529   .     S
O1529  C1530   1.419   .     S
C1530  H1532   1.107   .     S
C1530  H1531   1.107   .     S
C1530  C1533   1.520   .     S
C1533  H1534   1.104   .     S
C1533  H1536   1.111   .     S
C1533  H1613   1.111   .     S
O1537  C1538   1.406   .     S
C1538  C1541   1.524   .     S
C1538  H1540   1.098   .     S
C1538  H1539   1.111   .     S
C1541  H1543   1.111   .     S
C1541  H1544   1.107   .     S
H1542  C1619   1.111   .     S
O1545  C1546   1.420   .     S
C1546  H1548   1.111   .     S
C1546  C1549   1.522   .     S
C1546  H143    1.112   1_556 S
C1549  H1552   1.111   .     S
C1549  H1550   1.107   .     S
C1549  H1551   1.111   .     S
O1553  C1554   1.419   .     S
C1554  C1557   1.523   .     S
C1554  H1555   1.110   .     S
C1554  H1556   1.098   .     S
C1557  H1558   1.110   .     S
C1557  H1559   1.111   .     S
C1557  H1560   1.106   .     S
C1561  O1585   1.290   .     A
C1561  C1572   1.415   .     S
C1561  O1583   1.293   .     A
C1562  O1586   1.292   .     A
C1562  C1571   1.405   .     S
C1562  O1584   1.286   .     A
C1563  C1565   1.405   .     S
C1563  O1587   1.283   .     A
C1563  O1589   1.289   .     A
C1564  O1590   1.292   .     A
C1564  C1566   1.406   .     S
C1564  O1588   1.281   .     A
C1566  C1409   1.356   1_655 S
C1566  C1444   1.544   1_655 S
C1567  C1572   1.395   .     A
C1567  H1577   1.082   .     S
C1567  C2037   1.373   1_545 S
C1568  C1571   1.389   .     A
C1568  H1578   1.084   .     S
C1568  C1804   1.367   .     S
C1569  C1571   1.395   .     A
C1569  H1579   1.084   .     S
C1569  C1801   1.373   .     S
C1570  C1572   1.393   .     A
C1570  H1580   1.070   .     S
C1570  C2036   1.367   1_545 S
C1573  N1582   1.374   .     A
C1573  O1607   1.389   .     S
C1574  O1615   1.382   .     S
C1574  N1581   1.378   .     A
C1574  C172    1.432   1_556 S
C1575  N1581   1.371   .     A
C1575  O1623   1.385   .     S
C1575  C169    1.445   1_556 S
C1576  O1631   1.384   .     S
C1576  N1582   1.371   .     A
N1581  Zn1591  2.033   .     S
N1582  Zn1592  2.033   .     S
O1583  Zn1591  1.987   .     S
O1584  Zn1592  1.987   .     S
O1585  Zn1592  1.985   .     S
O1586  Zn1591  1.985   .     S
O1587  Zn1591  1.995   .     S
O1588  Zn1592  1.995   .     S
O1589  Zn1592  1.981   .     S
O1590  Zn1591  1.981   .     S
C1593  C1594   1.524   .     S
C1593  H1598   1.103   .     S
C1593  C1409   1.540   1_655 S
C1593  H1443   1.107   1_655 S
C1594  H1597   1.109   .     S
C1594  H1596   1.110   .     S
C1594  H1439   1.105   1_655 S
C1600  H1606   1.108   .     S
C1600  H1605   1.111   .     S
C1601  H1602   1.107   .     S
C1601  H1603   1.103   .     S
C1601  H1604   1.111   .     S
C1601  C1444   1.529   1_655 S
O1607  C1608   1.419   .     S
C1608  H1610   1.107   .     S
C1608  H1609   1.107   .     S
C1608  C1611   1.520   .     S
C1611  H1612   1.104   .     S
C1611  H1614   1.111   .     S
C1611  H1457   1.111   1_655 S
O1615  C1616   1.406   .     S
C1616  C1619   1.524   .     S
C1616  H1618   1.098   .     S
C1616  H1617   1.111   .     S
C1619  H1621   1.111   .     S
C1619  H1622   1.107   .     S
H1620  C1463   1.111   1_655 S
O1623  C1624   1.420   .     S
C1624  H1626   1.111   .     S
C1624  C1627   1.522   .     S
C1624  H221    1.112   1_556 S
C1627  H1630   1.111   .     S
C1627  H1628   1.107   .     S
C1627  H1629   1.111   .     S
O1631  C1632   1.419   .     S
C1632  C1635   1.523   .     S
C1632  H1633   1.110   .     S
C1632  H1634   1.098   .     S
C1635  H1636   1.110   .     S
C1635  H1637   1.111   .     S
C1635  H1638   1.106   .     S
C1639  O1663   1.290   .     A
C1639  C1650   1.415   .     S
C1639  O1661   1.293   .     A
C1640  O1664   1.292   .     A
C1640  C1649   1.405   .     S
C1640  O1662   1.286   .     A
C1641  C1643   1.405   .     S
C1641  O1665   1.283   .     A
C1641  O1667   1.289   .     A
C1642  O1668   1.292   .     A
C1642  C1644   1.406   .     S
C1642  O1666   1.281   .     A
C1643  C1800   1.356   1_455 S
C1643  C1827   1.540   1_455 S
C1644  C1721   1.356   .     S
C1644  C1756   1.544   .     S
C1645  C1650   1.395   .     A
C1645  H1655   1.082   .     S
C1646  C1649   1.389   .     A
C1646  H1656   1.084   .     S
C1646  C1882   1.367   .     S
C1647  C1649   1.395   .     A
C1647  H1657   1.084   .     S
C1647  C1879   1.373   .     S
C1648  C1650   1.393   .     A
C1648  H1658   1.070   .     S
C1651  N1660   1.374   .     A
C1651  O1685   1.389   .     S
C1652  O1693   1.382   .     S
C1652  N1659   1.378   .     A
C1652  C250    1.432   1_556 S
C1653  N1659   1.371   .     A
C1653  O1701   1.385   .     S
C1653  C247    1.445   1_556 S
C1654  O1709   1.384   .     S
C1654  N1660   1.371   .     A
N1659  Zn1669  2.033   .     S
N1660  Zn1670  2.033   .     S
O1661  Zn1669  1.987   .     S
O1662  Zn1670  1.987   .     S
O1663  Zn1670  1.985   .     S
O1664  Zn1669  1.985   .     S
O1665  Zn1669  1.995   .     S
O1666  Zn1670  1.995   .     S
O1667  Zn1670  1.981   .     S
O1668  Zn1669  1.981   .     S
C1671  C1672   1.524   .     S
C1671  H1676   1.103   .     S
C1671  C1721   1.540   .     S
C1671  H1755   1.107   .     S
C1672  H1675   1.109   .     S
C1672  H1674   1.110   .     S
C1672  H1751   1.105   .     S
H1673  C1828   1.105   1_455 S
H1677  C1827   1.107   1_455 S
C1678  H1684   1.108   .     S
C1678  H1683   1.111   .     S
C1678  C1800   1.544   1_455 S
C1678  C1835   1.529   1_455 S
C1679  H1680   1.107   .     S
C1679  H1681   1.103   .     S
C1679  H1682   1.111   .     S
C1679  C1756   1.529   .     S
O1685  C1686   1.419   .     S
C1686  H1688   1.107   .     S
C1686  H1687   1.107   .     S
C1686  C1689   1.520   .     S
C1689  H1690   1.104   .     S
C1689  H1692   1.111   .     S
C1689  H1769   1.111   .     S
H1691  C1845   1.111   1_455 S
O1693  C1694   1.406   .     S
C1694  C1697   1.524   .     S
C1694  H1696   1.098   .     S
C1694  H1695   1.111   .     S
C1697  H1699   1.111   .     S
C1697  H1700   1.107   .     S
C1697  H1854   1.111   1_455 S
H1698  C1775   1.111   .     S
O1701  C1702   1.420   .     S
C1702  H1704   1.111   .     S
C1702  C1705   1.522   .     S
C1702  H299    1.112   1_556 S
C1705  H1708   1.111   .     S
C1705  H1706   1.107   .     S
C1705  H1707   1.111   .     S
O1709  C1710   1.419   .     S
C1710  C1713   1.523   .     S
C1710  H1711   1.110   .     S
C1710  H1712   1.098   .     S
C1713  H1714   1.110   .     S
C1713  H1715   1.111   .     S
C1713  H1716   1.106   .     S
C1717  O1741   1.290   .     A
C1717  C1728   1.415   .     S
C1717  O1739   1.293   .     A
C1718  O1742   1.292   .     A
C1718  C1727   1.405   .     S
C1718  O1740   1.286   .     A
C1719  C1721   1.405   .     S
C1719  O1743   1.283   .     A
C1719  O1745   1.289   .     A
C1720  O1746   1.292   .     A
C1720  C1722   1.406   .     S
C1720  O1744   1.281   .     A
C1722  C1799   1.356   .     S
C1722  C1834   1.544   .     S
C1723  C1728   1.395   .     A
C1723  H1733   1.082   .     S
C1724  C1727   1.389   .     A
C1724  H1734   1.084   .     S
C1724  C1960   1.367   .     S
C1725  C1727   1.395   .     A
C1725  H1735   1.084   .     S
C1725  C1957   1.373   .     S
C1726  C1728   1.393   .     A
C1726  H1736   1.070   .     S
C1729  N1738   1.374   .     A
C1729  O1763   1.389   .     S
C1730  O1771   1.382   .     S
C1730  N1737   1.378   .     A
C1730  C328    1.432   1_556 S
C1731  N1737   1.371   .     A
C1731  O1779   1.385   .     S
C1731  C325    1.445   1_556 S
C1732  O1787   1.384   .     S
C1732  N1738   1.371   .     A
N1737  Zn1747  2.033   .     S
N1738  Zn1748  2.033   .     S
O1739  Zn1747  1.987   .     S
O1740  Zn1748  1.987   .     S
O1741  Zn1748  1.985   .     S
O1742  Zn1747  1.985   .     S
O1743  Zn1747  1.995   .     S
O1744  Zn1748  1.995   .     S
O1745  Zn1748  1.981   .     S
O1746  Zn1747  1.981   .     S
C1749  C1750   1.524   .     S
C1749  H1754   1.103   .     S
C1749  C1799   1.540   .     S
C1749  H1833   1.107   .     S
C1750  H1753   1.109   .     S
C1750  H1752   1.110   .     S
C1750  H1829   1.105   .     S
C1756  H1762   1.108   .     S
C1756  H1761   1.111   .     S
C1757  H1758   1.107   .     S
C1757  H1759   1.103   .     S
C1757  H1760   1.111   .     S
C1757  C1834   1.529   .     S
O1763  C1764   1.419   .     S
C1764  H1766   1.107   .     S
C1764  H1765   1.107   .     S
C1764  C1767   1.520   .     S
C1767  H1768   1.104   .     S
C1767  H1770   1.111   .     S
C1767  H1847   1.111   .     S
O1771  C1772   1.406   .     S
C1772  C1775   1.524   .     S
C1772  H1774   1.098   .     S
C1772  H1773   1.111   .     S
C1775  H1777   1.111   .     S
C1775  H1778   1.107   .     S
H1776  C1853   1.111   .     S
O1779  C1780   1.420   .     S
C1780  H1782   1.111   .     S
C1780  C1783   1.522   .     S
C1780  H377    1.112   1_556 S
C1783  H1786   1.111   .     S
C1783  H1784   1.107   .     S
C1783  H1785   1.111   .     S
O1787  C1788   1.419   .     S
C1788  C1791   1.523   .     S
C1788  H1789   1.110   .     S
C1788  H1790   1.098   .     S
C1791  H1792   1.110   .     S
C1791  H1793   1.111   .     S
C1791  H1794   1.106   .     S
C1795  O1819   1.290   .     A
C1795  C1806   1.415   .     S
C1795  O1817   1.293   .     A
C1796  O1820   1.292   .     A
C1796  C1805   1.405   .     S
C1796  O1818   1.286   .     A
C1797  C1799   1.405   .     S
C1797  O1821   1.283   .     A
C1797  O1823   1.289   .     A
C1798  O1824   1.292   .     A
C1798  C1800   1.406   .     S
C1798  O1822   1.281   .     A
C1800  C1643   1.356   1_655 S
C1800  C1678   1.544   1_655 S
C1801  C1806   1.395   .     A
C1801  H1811   1.082   .     S
C1802  C1805   1.389   .     A
C1802  H1812   1.084   .     S
C1802  C2038   1.367   .     S
C1803  C1805   1.395   .     A
C1803  H1813   1.084   .     S
C1803  C2035   1.373   .     S
C1804  C1806   1.393   .     A
C1804  H1814   1.070   .     S
C1807  N1816   1.374   .     A
C1807  O1841   1.389   .     S
C1808  O1849   1.382   .     S
C1808  N1815   1.378   .     A
C1808  C406    1.432   1_556 S
C1809  N1815   1.371   .     A
C1809  O1857   1.385   .     S
C1809  C403    1.445   1_556 S
C1810  O1865   1.384   .     S
C1810  N1816   1.371   .     A
N1815  Zn1825  2.033   .     S
N1816  Zn1826  2.033   .     S
O1817  Zn1825  1.987   .     S
O1818  Zn1826  1.987   .     S
O1819  Zn1826  1.985   .     S
O1820  Zn1825  1.985   .     S
O1821  Zn1825  1.995   .     S
O1822  Zn1826  1.995   .     S
O1823  Zn1826  1.981   .     S
O1824  Zn1825  1.981   .     S
C1827  C1828   1.524   .     S
C1827  H1832   1.103   .     S
C1827  C1643   1.540   1_655 S
C1827  H1677   1.107   1_655 S
C1828  H1831   1.109   .     S
C1828  H1830   1.110   .     S
C1828  H1673   1.105   1_655 S
C1834  H1840   1.108   .     S
C1834  H1839   1.111   .     S
C1835  H1836   1.107   .     S
C1835  H1837   1.103   .     S
C1835  H1838   1.111   .     S
C1835  C1678   1.529   1_655 S
O1841  C1842   1.419   .     S
C1842  H1844   1.107   .     S
C1842  H1843   1.107   .     S
C1842  C1845   1.520   .     S
C1845  H1846   1.104   .     S
C1845  H1848   1.111   .     S
C1845  H1691   1.111   1_655 S
O1849  C1850   1.406   .     S
C1850  C1853   1.524   .     S
C1850  H1852   1.098   .     S
C1850  H1851   1.111   .     S
C1853  H1855   1.111   .     S
C1853  H1856   1.107   .     S
H1854  C1697   1.111   1_655 S
O1857  C1858   1.420   .     S
C1858  H1860   1.111   .     S
C1858  C1861   1.522   .     S
C1858  H455    1.112   1_556 S
C1861  H1864   1.111   .     S
C1861  H1862   1.107   .     S
C1861  H1863   1.111   .     S
O1865  C1866   1.419   .     S
C1866  C1869   1.523   .     S
C1866  H1867   1.110   .     S
C1866  H1868   1.098   .     S
C1869  H1870   1.110   .     S
C1869  H1871   1.111   .     S
C1869  H1872   1.106   .     S
C1873  O1897   1.290   .     A
C1873  C1884   1.415   .     S
C1873  O1895   1.293   .     A
C1874  O1898   1.292   .     A
C1874  C1883   1.405   .     S
C1874  O1896   1.286   .     A
C1875  C1877   1.405   .     S
C1875  O1899   1.283   .     A
C1875  O1901   1.289   .     A
C1876  O1902   1.292   .     A
C1876  C1878   1.406   .     S
C1876  O1900   1.281   .     A
C1877  C2034   1.356   1_455 S
C1877  C2061   1.540   1_455 S
C1878  C1955   1.356   .     S
C1878  C1990   1.544   .     S
C1879  C1884   1.395   .     A
C1879  H1889   1.082   .     S
C1880  C1883   1.389   .     A
C1880  H1890   1.084   .     S
C1880  C1414   1.367   1_565 S
C1881  C1883   1.395   .     A
C1881  H1891   1.084   .     S
C1881  C1411   1.373   1_565 S
C1882  C1884   1.393   .     A
C1882  H1892   1.070   .     S
C1885  N1894   1.374   .     A
C1885  O1919   1.389   .     S
C1886  O1927   1.382   .     S
C1886  N1893   1.378   .     A
C1886  C484    1.432   1_556 S
C1887  N1893   1.371   .     A
C1887  O1935   1.385   .     S
C1887  C481    1.445   1_556 S
C1888  O1943   1.384   .     S
C1888  N1894   1.371   .     A
N1893  Zn1903  2.033   .     S
N1894  Zn1904  2.033   .     S
O1895  Zn1903  1.987   .     S
O1896  Zn1904  1.987   .     S
O1897  Zn1904  1.985   .     S
O1898  Zn1903  1.985   .     S
O1899  Zn1903  1.995   .     S
O1900  Zn1904  1.995   .     S
O1901  Zn1904  1.981   .     S
O1902  Zn1903  1.981   .     S
C1905  C1906   1.524   .     S
C1905  H1910   1.103   .     S
C1905  C1955   1.540   .     S
C1905  H1989   1.107   .     S
C1906  H1909   1.109   .     S
C1906  H1908   1.110   .     S
C1906  H1985   1.105   .     S
H1907  C2062   1.105   1_455 S
H1911  C2061   1.107   1_455 S
C1912  H1918   1.108   .     S
C1912  H1917   1.111   .     S
C1912  C2034   1.544   1_455 S
C1912  C2069   1.529   1_455 S
C1913  H1914   1.107   .     S
C1913  H1915   1.103   .     S
C1913  H1916   1.111   .     S
C1913  C1990   1.529   .     S
O1919  C1920   1.419   .     S
C1920  H1922   1.107   .     S
C1920  H1921   1.107   .     S
C1920  C1923   1.520   .     S
C1923  H1924   1.104   .     S
C1923  H1926   1.111   .     S
C1923  H2003   1.111   .     S
H1925  C2079   1.111   1_455 S
O1927  C1928   1.406   .     S
C1928  C1931   1.524   .     S
C1928  H1930   1.098   .     S
C1928  H1929   1.111   .     S
C1931  H1933   1.111   .     S
C1931  H1934   1.107   .     S
C1931  H2088   1.111   1_455 S
H1932  C2009   1.111   .     S
O1935  C1936   1.420   .     S
C1936  H1938   1.111   .     S
C1936  C1939   1.522   .     S
C1936  H533    1.112   1_556 S
C1939  H1942   1.111   .     S
C1939  H1940   1.107   .     S
C1939  H1941   1.111   .     S
O1943  C1944   1.419   .     S
C1944  C1947   1.523   .     S
C1944  H1945   1.110   .     S
C1944  H1946   1.098   .     S
C1947  H1948   1.110   .     S
C1947  H1949   1.111   .     S
C1947  H1950   1.106   .     S
C1951  O1975   1.290   .     A
C1951  C1962   1.415   .     S
C1951  O1973   1.293   .     A
C1952  O1976   1.292   .     A
C1952  C1961   1.405   .     S
C1952  O1974   1.286   .     A
C1953  C1955   1.405   .     S
C1953  O1977   1.283   .     A
C1953  O1979   1.289   .     A
C1954  O1980   1.292   .     A
C1954  C1956   1.406   .     S
C1954  O1978   1.281   .     A
C1956  C2033   1.356   .     S
C1956  C2068   1.544   .     S
C1957  C1962   1.395   .     A
C1957  H1967   1.082   .     S
C1958  C1961   1.389   .     A
C1958  H1968   1.084   .     S
C1958  C1492   1.367   1_565 S
C1959  C1961   1.395   .     A
C1959  H1969   1.084   .     S
C1959  C1489   1.373   1_565 S
C1960  C1962   1.393   .     A
C1960  H1970   1.070   .     S
C1963  N1972   1.374   .     A
C1963  O1997   1.389   .     S
C1964  O2005   1.382   .     S
C1964  N1971   1.378   .     A
C1964  C562    1.432   1_556 S
C1965  N1971   1.371   .     A
C1965  O2013   1.385   .     S
C1965  C559    1.445   1_556 S
C1966  O2021   1.384   .     S
C1966  N1972   1.371   .     A
N1971  Zn1981  2.033   .     S
N1972  Zn1982  2.033   .     S
O1973  Zn1981  1.987   .     S
O1974  Zn1982  1.987   .     S
O1975  Zn1982  1.985   .     S
O1976  Zn1981  1.985   .     S
O1977  Zn1981  1.995   .     S
O1978  Zn1982  1.995   .     S
O1979  Zn1982  1.981   .     S
O1980  Zn1981  1.981   .     S
C1983  C1984   1.524   .     S
C1983  H1988   1.103   .     S
C1983  C2033   1.540   .     S
C1983  H2067   1.107   .     S
C1984  H1987   1.109   .     S
C1984  H1986   1.110   .     S
C1984  H2063   1.105   .     S
C1990  H1996   1.108   .     S
C1990  H1995   1.111   .     S
C1991  H1992   1.107   .     S
C1991  H1993   1.103   .     S
C1991  H1994   1.111   .     S
C1991  C2068   1.529   .     S
O1997  C1998   1.419   .     S
C1998  H2000   1.107   .     S
C1998  H1999   1.107   .     S
C1998  C2001   1.520   .     S
C2001  H2002   1.104   .     S
C2001  H2004   1.111   .     S
C2001  H2081   1.111   .     S
O2005  C2006   1.406   .     S
C2006  C2009   1.524   .     S
C2006  H2008   1.098   .     S
C2006  H2007   1.111   .     S
C2009  H2011   1.111   .     S
C2009  H2012   1.107   .     S
H2010  C2087   1.111   .     S
O2013  C2014   1.420   .     S
C2014  H2016   1.111   .     S
C2014  C2017   1.522   .     S
C2014  H611    1.112   1_556 S
C2017  H2020   1.111   .     S
C2017  H2018   1.107   .     S
C2017  H2019   1.111   .     S
O2021  C2022   1.419   .     S
C2022  C2025   1.523   .     S
C2022  H2023   1.110   .     S
C2022  H2024   1.098   .     S
C2025  H2026   1.110   .     S
C2025  H2027   1.111   .     S
C2025  H2028   1.106   .     S
C2029  O2053   1.290   .     A
C2029  C2040   1.415   .     S
C2029  O2051   1.293   .     A
C2030  O2054   1.292   .     A
C2030  C2039   1.405   .     S
C2030  O2052   1.286   .     A
C2031  C2033   1.405   .     S
C2031  O2055   1.283   .     A
C2031  O2057   1.289   .     A
C2032  O2058   1.292   .     A
C2032  C2034   1.406   .     S
C2032  O2056   1.281   .     A
C2034  C1877   1.356   1_655 S
C2034  C1912   1.544   1_655 S
C2035  C2040   1.395   .     A
C2035  H2045   1.082   .     S
C2036  C2039   1.389   .     A
C2036  H2046   1.084   .     S
C2036  C1570   1.367   1_565 S
C2037  C2039   1.395   .     A
C2037  H2047   1.084   .     S
C2037  C1567   1.373   1_565 S
C2038  C2040   1.393   .     A
C2038  H2048   1.070   .     S
C2041  N2050   1.374   .     A
C2041  O2075   1.389   .     S
C2042  O2083   1.382   .     S
C2042  N2049   1.378   .     A
C2042  C640    1.432   1_556 S
C2043  N2049   1.371   .     A
C2043  O2091   1.385   .     S
C2043  C637    1.445   1_556 S
C2044  O2099   1.384   .     S
C2044  N2050   1.371   .     A
N2049  Zn2059  2.033   .     S
N2050  Zn2060  2.033   .     S
O2051  Zn2059  1.987   .     S
O2052  Zn2060  1.987   .     S
O2053  Zn2060  1.985   .     S
O2054  Zn2059  1.985   .     S
O2055  Zn2059  1.995   .     S
O2056  Zn2060  1.995   .     S
O2057  Zn2060  1.981   .     S
O2058  Zn2059  1.981   .     S
C2061  C2062   1.524   .     S
C2061  H2066   1.103   .     S
C2061  C1877   1.540   1_655 S
C2061  H1911   1.107   1_655 S
C2062  H2065   1.109   .     S
C2062  H2064   1.110   .     S
C2062  H1907   1.105   1_655 S
C2068  H2074   1.108   .     S
C2068  H2073   1.111   .     S
C2069  H2070   1.107   .     S
C2069  H2071   1.103   .     S
C2069  H2072   1.111   .     S
C2069  C1912   1.529   1_655 S
O2075  C2076   1.419   .     S
C2076  H2078   1.107   .     S
C2076  H2077   1.107   .     S
C2076  C2079   1.520   .     S
C2079  H2080   1.104   .     S
C2079  H2082   1.111   .     S
C2079  H1925   1.111   1_655 S
O2083  C2084   1.406   .     S
C2084  C2087   1.524   .     S
C2084  H2086   1.098   .     S
C2084  H2085   1.111   .     S
C2087  H2089   1.111   .     S
C2087  H2090   1.107   .     S
H2088  C1931   1.111   1_655 S
O2091  C2092   1.420   .     S
C2092  H2094   1.111   .     S
C2092  C2095   1.522   .     S
C2092  H689    1.112   1_556 S
C2095  H2098   1.111   .     S
C2095  H2096   1.107   .     S
C2095  H2097   1.111   .     S
O2099  C2100   1.419   .     S
C2100  C2103   1.523   .     S
C2100  H2101   1.110   .     S
C2100  H2102   1.098   .     S
C2103  H2104   1.110   .     S
C2103  H2105   1.111   .     S
C2103  H2106   1.106   .     S
