data_str_m3_o1_o18_pcu_sym.107
_audit_creation_date              2020-01-03
_audit_creation_method            'Materials Studio'
_symmetry_space_group_name_H-M    'P1'
_symmetry_Int_Tables_number       1
_symmetry_cell_setting            triclinic
loop_
_symmetry_equiv_pos_as_xyz
  x,y,z
_cell_length_a                    29.5334
_cell_length_b                    31.9587
_cell_length_c                    31.0889
_cell_angle_alpha                 89.9189
_cell_angle_beta                  66.8392
_cell_angle_gamma                 89.7604
loop_
_atom_site_label
_atom_site_type_symbol
_atom_site_fract_x
_atom_site_fract_y
_atom_site_fract_z
_atom_site_U_iso_or_equiv
_atom_site_adp_type
_atom_site_occupancy
C1     C     0.16680   0.24658   0.24948   0.00000  Uiso   1.00
C2     C     0.16671   0.08665   0.25045   0.00000  Uiso   1.00
C3     C     0.11006   0.15294   0.05210   0.00000  Uiso   1.00
C4     C     0.22270   0.18216   0.44832   0.00000  Uiso   1.00
C5     C     0.07615   0.14436   0.03224   0.00000  Uiso   1.00
C6     C     0.25664   0.19056   0.46819   0.00000  Uiso   1.00
C7     C     0.18944   0.31093   0.27456   0.00000  Uiso   1.00
C8     C     0.14608   0.02208   0.22301   0.00000  Uiso   1.00
C9     C     0.19186   0.02046   0.27389   0.00000  Uiso   1.00
C10    C     0.14746   0.31246   0.22057   0.00000  Uiso   1.00
C11    C     0.16798   0.04246   0.24955   0.00000  Uiso   1.00
C12    C     0.16758   0.29062   0.24812   0.00000  Uiso   1.00
C13    C     0.32160   0.14084   0.22073   0.00000  Uiso   1.00
C14    C     0.01183   0.19269   0.27906   0.00000  Uiso   1.00
C15    C     0.03615   0.14072   0.22087   0.00000  Uiso   1.00
C16    C     0.29721   0.19265   0.27909   0.00000  Uiso   1.00
C17    C     0.13574   0.16684   0.33809   0.00000  Uiso   1.00
C18    C     0.19757   0.16656   0.16194   0.00000  Uiso   1.00
C19    C     0.11610   0.16522   0.38891   0.00000  Uiso   1.00
C20    C     0.21708   0.16868   0.11119   0.00000  Uiso   1.00
C21    C     0.05615   0.14236   0.46335   0.00000  Uiso   1.00
C22    C     0.27672   0.19229   0.03701   0.00000  Uiso   1.00
C23    C     0.06994   0.14838   0.41547   0.00000  Uiso   1.00
C24    C     0.26306   0.18588   0.08480   0.00000  Uiso   1.00
C25    C     0.14753   0.17682   0.41026   0.00000  Uiso   1.00
C26    C     0.18551   0.15746   0.08985   0.00000  Uiso   1.00
C27    C     0.13723   0.16651   0.45674   0.00000  Uiso   1.00
C28    C     0.19561   0.16829   0.04357   0.00000  Uiso   1.00
C29    C     0.08960   0.15095   0.48435   0.00000  Uiso   1.00
C30    C     0.24323   0.18385   0.01603   0.00000  Uiso   1.00
C31    C     0.17319   0.17129   0.47607   0.00000  Uiso   1.00
C32    C     0.15958   0.16377   0.02432   0.00000  Uiso   1.00
H33    H     0.15257   0.14071   0.11067   0.00000  Uiso   1.00
H34    H     0.18053   0.19339   0.38925   0.00000  Uiso   1.00
H35    H     0.28783   0.19497   0.10115   0.00000  Uiso   1.00
H36    H     0.04514   0.13923   0.39917   0.00000  Uiso   1.00
H37    H     0.02005   0.12959   0.48347   0.00000  Uiso   1.00
H38    H     0.31274   0.20525   0.01697   0.00000  Uiso   1.00
H39    H     0.09589   0.15175   0.08972   0.00000  Uiso   1.00
H40    H     0.23692   0.18344   0.41071   0.00000  Uiso   1.00
H41    H     0.20396   0.29346   0.29627   0.00000  Uiso   1.00
H42    H     0.12901   0.03949   0.20336   0.00000  Uiso   1.00
H43    H     0.31322   0.12011   0.19745   0.00000  Uiso   1.00
H44    H     0.02028   0.21355   0.30221   0.00000  Uiso   1.00
H45    H     0.06398   0.11988   0.19764   0.00000  Uiso   1.00
H46    H     0.26936   0.21346   0.30235   0.00000  Uiso   1.00
N47    N     0.04759   0.16668   0.25001   0.00000  Uiso   1.00
N48    N     0.28574   0.16666   0.24999   0.00000  Uiso   1.00
O49    O     0.12846   0.22775   0.25000   0.00000  Uiso   1.00
O50    O     0.20488   0.10558   0.24999   0.00000  Uiso   1.00
O51    O     0.20490   0.22774   0.25000   0.00000  Uiso   1.00
O52    O     0.12843   0.10559   0.25000   0.00000  Uiso   1.00
O53    O     0.10661   0.16667   0.31612   0.00000  Uiso   1.00
O54    O     0.22672   0.16666   0.18387   0.00000  Uiso   1.00
O55    O     0.18305   0.16666   0.31612   0.00000  Uiso   1.00
O56    O     0.15028   0.16667   0.18388   0.00000  Uiso   1.00
Zn57   Zn    0.11562   0.16667   0.25000   0.00000  Uiso   1.00
Zn58   Zn    0.21771   0.16666   0.25000   0.00000  Uiso   1.00
O59    O     0.02795   0.13428   0.06048   0.00000  Uiso   1.00
C60    C     0.02620   0.09342   0.07842   0.00000  Uiso   1.00
H61    H     0.04487   0.09223   0.10332   0.00000  Uiso   1.00
H62    H     0.04400   0.07054   0.04955   0.00000  Uiso   1.00
C63    C     0.30563   0.08100   0.10465   0.00000  Uiso   1.00
H64    H     0.28723   0.10396   0.13298   0.00000  Uiso   1.00
H65    H     0.28650   0.08158   0.08017   0.00000  Uiso   1.00
C66    C     0.30098   0.03742   0.12611   0.00000  Uiso   1.00
H67    H     0.31686   0.01355   0.09820   0.00000  Uiso   1.00
H68    H     0.26151   0.03012   0.14626   0.00000  Uiso   1.00
H69    H     0.32043   0.03600   0.15025   0.00000  Uiso   1.00
O70    O     0.30491   0.20029   0.43996   0.00000  Uiso   1.00
C71    C     0.30704   0.24121   0.42211   0.00000  Uiso   1.00
H72    H     0.28959   0.26413   0.45103   0.00000  Uiso   1.00
H73    H     0.28828   0.24270   0.39730   0.00000  Uiso   1.00
C74    C     0.02773   0.25314   0.39580   0.00000  Uiso   1.00
H75    H     0.04674   0.25284   0.42037   0.00000  Uiso   1.00
H76    H     0.04597   0.22977   0.36787   0.00000  Uiso   1.00
C77    C     0.03280   0.29637   0.37356   0.00000  Uiso   1.00
H78    H     0.01408   0.29711   0.34881   0.00000  Uiso   1.00
H79    H     0.07239   0.30364   0.35396   0.00000  Uiso   1.00
H80    H     0.01628   0.32058   0.40095   0.00000  Uiso   1.00
O81    O     0.21252   0.04050   0.30126   0.00000  Uiso   1.00
C82    C     0.26384   0.04565   0.27553   0.00000  Uiso   1.00
H83    H     0.27437   0.07560   0.28710   0.00000  Uiso   1.00
H84    H     0.27433   0.04849   0.23700   0.00000  Uiso   1.00
C85    C     0.29346   0.01031   0.28568   0.00000  Uiso   1.00
H86    H     0.28193   0.00682   0.32411   0.00000  Uiso   1.00
H87    H     0.28657   0.31371   0.27127   0.00000  Uiso   1.00
C88    C     0.01528   0.01929   0.26332   0.00000  Uiso   1.00
H89    H     0.02747   0.02341   0.22491   0.00000  Uiso   1.00
H90    H     0.03597   0.32596   0.26978   0.00000  Uiso   1.00
H91    H     0.02401   0.04803   0.27857   0.00000  Uiso   1.00
O92    O     0.12620   0.29231   0.19376   0.00000  Uiso   1.00
C93    C     0.16332   0.27788   0.15144   0.00000  Uiso   1.00
H94    H     0.14891   0.24960   0.14041   0.00000  Uiso   1.00
H95    H     0.19792   0.26798   0.15511   0.00000  Uiso   1.00
C96    C     0.17472   0.31107   0.11303   0.00000  Uiso   1.00
H97    H     0.14011   0.32040   0.10939   0.00000  Uiso   1.00
H98    H     0.19058   0.00587   0.12272   0.00000  Uiso   1.00
C99    C     0.21132   0.29453   0.06615   0.00000  Uiso   1.00
H100   H     0.24639   0.28531   0.06891   0.00000  Uiso   1.00
H101   H     0.21924   0.31932   0.03914   0.00000  Uiso   1.00
H102   H     0.19573   0.26705   0.05497   0.00000  Uiso   1.00
C103   C     0.50014   0.24658   0.24948   0.00000  Uiso   1.00
C104   C     0.50004   0.08665   0.25045   0.00000  Uiso   1.00
C105   C     0.44340   0.15294   0.05210   0.00000  Uiso   1.00
C106   C     0.55603   0.18216   0.44832   0.00000  Uiso   1.00
C107   C     0.40948   0.14436   0.03224   0.00000  Uiso   1.00
C108   C     0.58997   0.19056   0.46819   0.00000  Uiso   1.00
C109   C     0.52277   0.31093   0.27456   0.00000  Uiso   1.00
C110   C     0.47942   0.02208   0.22301   0.00000  Uiso   1.00
C111   C     0.52519   0.02046   0.27389   0.00000  Uiso   1.00
C112   C     0.48079   0.31246   0.22057   0.00000  Uiso   1.00
C113   C     0.50131   0.04246   0.24955   0.00000  Uiso   1.00
C114   C     0.50091   0.29062   0.24812   0.00000  Uiso   1.00
C115   C     0.65494   0.14084   0.22073   0.00000  Uiso   1.00
C116   C     0.34516   0.19269   0.27906   0.00000  Uiso   1.00
C117   C     0.36948   0.14072   0.22087   0.00000  Uiso   1.00
C118   C     0.63054   0.19265   0.27909   0.00000  Uiso   1.00
C119   C     0.46908   0.16684   0.33809   0.00000  Uiso   1.00
C120   C     0.53090   0.16656   0.16194   0.00000  Uiso   1.00
C121   C     0.44943   0.16522   0.38891   0.00000  Uiso   1.00
C122   C     0.55041   0.16868   0.11119   0.00000  Uiso   1.00
C123   C     0.38948   0.14236   0.46335   0.00000  Uiso   1.00
C124   C     0.61005   0.19229   0.03701   0.00000  Uiso   1.00
C125   C     0.40327   0.14838   0.41547   0.00000  Uiso   1.00
C126   C     0.59639   0.18588   0.08480   0.00000  Uiso   1.00
C127   C     0.48086   0.17682   0.41026   0.00000  Uiso   1.00
C128   C     0.51884   0.15746   0.08985   0.00000  Uiso   1.00
C129   C     0.47056   0.16651   0.45674   0.00000  Uiso   1.00
C130   C     0.52894   0.16829   0.04357   0.00000  Uiso   1.00
C131   C     0.42293   0.15095   0.48435   0.00000  Uiso   1.00
C132   C     0.57656   0.18385   0.01603   0.00000  Uiso   1.00
C133   C     0.50652   0.17129   0.47607   0.00000  Uiso   1.00
C134   C     0.49291   0.16377   0.02432   0.00000  Uiso   1.00
H135   H     0.48590   0.14071   0.11067   0.00000  Uiso   1.00
H136   H     0.51386   0.19339   0.38925   0.00000  Uiso   1.00
H137   H     0.62116   0.19497   0.10115   0.00000  Uiso   1.00
H138   H     0.37847   0.13923   0.39917   0.00000  Uiso   1.00
H139   H     0.35338   0.12959   0.48347   0.00000  Uiso   1.00
H140   H     0.64607   0.20525   0.01697   0.00000  Uiso   1.00
H141   H     0.42923   0.15175   0.08972   0.00000  Uiso   1.00
H142   H     0.57026   0.18344   0.41071   0.00000  Uiso   1.00
H143   H     0.53729   0.29346   0.29627   0.00000  Uiso   1.00
H144   H     0.46234   0.03949   0.20336   0.00000  Uiso   1.00
H145   H     0.64656   0.12011   0.19745   0.00000  Uiso   1.00
H146   H     0.35361   0.21355   0.30221   0.00000  Uiso   1.00
H147   H     0.39731   0.11988   0.19764   0.00000  Uiso   1.00
H148   H     0.60269   0.21346   0.30235   0.00000  Uiso   1.00
N149   N     0.38093   0.16668   0.25001   0.00000  Uiso   1.00
N150   N     0.61907   0.16666   0.24999   0.00000  Uiso   1.00
O151   O     0.46179   0.22775   0.25000   0.00000  Uiso   1.00
O152   O     0.53821   0.10558   0.24999   0.00000  Uiso   1.00
O153   O     0.53823   0.22774   0.25000   0.00000  Uiso   1.00
O154   O     0.46177   0.10559   0.25000   0.00000  Uiso   1.00
O155   O     0.43994   0.16667   0.31612   0.00000  Uiso   1.00
O156   O     0.56006   0.16666   0.18387   0.00000  Uiso   1.00
O157   O     0.51639   0.16666   0.31612   0.00000  Uiso   1.00
O158   O     0.48361   0.16667   0.18388   0.00000  Uiso   1.00
Zn159  Zn    0.44896   0.16667   0.25000   0.00000  Uiso   1.00
Zn160  Zn    0.55104   0.16666   0.25000   0.00000  Uiso   1.00
O161   O     0.36128   0.13428   0.06048   0.00000  Uiso   1.00
C162   C     0.35953   0.09342   0.07842   0.00000  Uiso   1.00
H163   H     0.37820   0.09223   0.10332   0.00000  Uiso   1.00
H164   H     0.37733   0.07054   0.04955   0.00000  Uiso   1.00
C165   C     0.63896   0.08100   0.10465   0.00000  Uiso   1.00
H166   H     0.62056   0.10396   0.13298   0.00000  Uiso   1.00
H167   H     0.61984   0.08158   0.08017   0.00000  Uiso   1.00
C168   C     0.63431   0.03742   0.12611   0.00000  Uiso   1.00
H169   H     0.65019   0.01355   0.09820   0.00000  Uiso   1.00
H170   H     0.59484   0.03012   0.14626   0.00000  Uiso   1.00
H171   H     0.65376   0.03600   0.15025   0.00000  Uiso   1.00
O172   O     0.63824   0.20029   0.43996   0.00000  Uiso   1.00
C173   C     0.64038   0.24121   0.42211   0.00000  Uiso   1.00
H174   H     0.62292   0.26413   0.45103   0.00000  Uiso   1.00
H175   H     0.62162   0.24270   0.39730   0.00000  Uiso   1.00
C176   C     0.36106   0.25314   0.39580   0.00000  Uiso   1.00
H177   H     0.38007   0.25284   0.42037   0.00000  Uiso   1.00
H178   H     0.37930   0.22977   0.36787   0.00000  Uiso   1.00
C179   C     0.36613   0.29637   0.37356   0.00000  Uiso   1.00
H180   H     0.34742   0.29711   0.34881   0.00000  Uiso   1.00
H181   H     0.40572   0.30364   0.35396   0.00000  Uiso   1.00
H182   H     0.34962   0.32058   0.40095   0.00000  Uiso   1.00
O183   O     0.54585   0.04050   0.30126   0.00000  Uiso   1.00
C184   C     0.59718   0.04565   0.27553   0.00000  Uiso   1.00
H185   H     0.60770   0.07560   0.28710   0.00000  Uiso   1.00
H186   H     0.60766   0.04849   0.23700   0.00000  Uiso   1.00
C187   C     0.62679   0.01031   0.28568   0.00000  Uiso   1.00
H188   H     0.61526   0.00682   0.32411   0.00000  Uiso   1.00
H189   H     0.61990   0.31371   0.27127   0.00000  Uiso   1.00
C190   C     0.34862   0.01929   0.26332   0.00000  Uiso   1.00
H191   H     0.36081   0.02341   0.22491   0.00000  Uiso   1.00
H192   H     0.36930   0.32596   0.26978   0.00000  Uiso   1.00
H193   H     0.35734   0.04803   0.27857   0.00000  Uiso   1.00
O194   O     0.45953   0.29231   0.19376   0.00000  Uiso   1.00
C195   C     0.49665   0.27788   0.15144   0.00000  Uiso   1.00
H196   H     0.48225   0.24960   0.14041   0.00000  Uiso   1.00
H197   H     0.53125   0.26798   0.15511   0.00000  Uiso   1.00
C198   C     0.50806   0.31107   0.11303   0.00000  Uiso   1.00
H199   H     0.47344   0.32040   0.10939   0.00000  Uiso   1.00
H200   H     0.52392   0.00587   0.12272   0.00000  Uiso   1.00
C201   C     0.54465   0.29453   0.06615   0.00000  Uiso   1.00
H202   H     0.57972   0.28531   0.06891   0.00000  Uiso   1.00
H203   H     0.55258   0.31932   0.03914   0.00000  Uiso   1.00
H204   H     0.52906   0.26705   0.05497   0.00000  Uiso   1.00
C205   C     0.83347   0.24658   0.24948   0.00000  Uiso   1.00
C206   C     0.83338   0.08665   0.25045   0.00000  Uiso   1.00
C207   C     0.77673   0.15294   0.05210   0.00000  Uiso   1.00
C208   C     0.88936   0.18216   0.44832   0.00000  Uiso   1.00
C209   C     0.74281   0.14436   0.03224   0.00000  Uiso   1.00
C210   C     0.92330   0.19056   0.46819   0.00000  Uiso   1.00
C211   C     0.85611   0.31093   0.27456   0.00000  Uiso   1.00
C212   C     0.81275   0.02208   0.22301   0.00000  Uiso   1.00
C213   C     0.85853   0.02046   0.27389   0.00000  Uiso   1.00
C214   C     0.81412   0.31246   0.22057   0.00000  Uiso   1.00
C215   C     0.83464   0.04246   0.24955   0.00000  Uiso   1.00
C216   C     0.83424   0.29062   0.24812   0.00000  Uiso   1.00
C217   C     0.98827   0.14084   0.22073   0.00000  Uiso   1.00
C218   C     0.67850   0.19269   0.27906   0.00000  Uiso   1.00
C219   C     0.70281   0.14072   0.22087   0.00000  Uiso   1.00
C220   C     0.96388   0.19265   0.27909   0.00000  Uiso   1.00
C221   C     0.80241   0.16684   0.33809   0.00000  Uiso   1.00
C222   C     0.86423   0.16656   0.16194   0.00000  Uiso   1.00
C223   C     0.78277   0.16522   0.38891   0.00000  Uiso   1.00
C224   C     0.88374   0.16868   0.11119   0.00000  Uiso   1.00
C225   C     0.72282   0.14236   0.46335   0.00000  Uiso   1.00
C226   C     0.94339   0.19229   0.03701   0.00000  Uiso   1.00
C227   C     0.73661   0.14838   0.41547   0.00000  Uiso   1.00
C228   C     0.92973   0.18588   0.08480   0.00000  Uiso   1.00
C229   C     0.81419   0.17682   0.41026   0.00000  Uiso   1.00
C230   C     0.85218   0.15746   0.08985   0.00000  Uiso   1.00
C231   C     0.80390   0.16651   0.45674   0.00000  Uiso   1.00
C232   C     0.86228   0.16829   0.04357   0.00000  Uiso   1.00
C233   C     0.75626   0.15095   0.48435   0.00000  Uiso   1.00
C234   C     0.90989   0.18385   0.01603   0.00000  Uiso   1.00
C235   C     0.83985   0.17129   0.47607   0.00000  Uiso   1.00
C236   C     0.82624   0.16377   0.02432   0.00000  Uiso   1.00
H237   H     0.81923   0.14071   0.11067   0.00000  Uiso   1.00
H238   H     0.84720   0.19339   0.38925   0.00000  Uiso   1.00
H239   H     0.95450   0.19497   0.10115   0.00000  Uiso   1.00
H240   H     0.71180   0.13923   0.39917   0.00000  Uiso   1.00
H241   H     0.68671   0.12959   0.48347   0.00000  Uiso   1.00
H242   H     0.97940   0.20525   0.01697   0.00000  Uiso   1.00
H243   H     0.76256   0.15175   0.08972   0.00000  Uiso   1.00
H244   H     0.90359   0.18344   0.41071   0.00000  Uiso   1.00
H245   H     0.87062   0.29346   0.29627   0.00000  Uiso   1.00
H246   H     0.79567   0.03949   0.20336   0.00000  Uiso   1.00
H247   H     0.97989   0.12011   0.19745   0.00000  Uiso   1.00
H248   H     0.68695   0.21355   0.30221   0.00000  Uiso   1.00
H249   H     0.73064   0.11988   0.19764   0.00000  Uiso   1.00
H250   H     0.93603   0.21346   0.30235   0.00000  Uiso   1.00
N251   N     0.71426   0.16668   0.25001   0.00000  Uiso   1.00
N252   N     0.95241   0.16666   0.24999   0.00000  Uiso   1.00
O253   O     0.79512   0.22775   0.25000   0.00000  Uiso   1.00
O254   O     0.87154   0.10558   0.24999   0.00000  Uiso   1.00
O255   O     0.87157   0.22774   0.25000   0.00000  Uiso   1.00
O256   O     0.79510   0.10559   0.25000   0.00000  Uiso   1.00
O257   O     0.77328   0.16667   0.31612   0.00000  Uiso   1.00
O258   O     0.89339   0.16666   0.18387   0.00000  Uiso   1.00
O259   O     0.84972   0.16666   0.31612   0.00000  Uiso   1.00
O260   O     0.81695   0.16667   0.18388   0.00000  Uiso   1.00
Zn261  Zn    0.78229   0.16667   0.25000   0.00000  Uiso   1.00
Zn262  Zn    0.88438   0.16666   0.25000   0.00000  Uiso   1.00
O263   O     0.69462   0.13428   0.06048   0.00000  Uiso   1.00
C264   C     0.69286   0.09342   0.07842   0.00000  Uiso   1.00
H265   H     0.71153   0.09223   0.10332   0.00000  Uiso   1.00
H266   H     0.71066   0.07054   0.04955   0.00000  Uiso   1.00
C267   C     0.97230   0.08100   0.10465   0.00000  Uiso   1.00
H268   H     0.95389   0.10396   0.13298   0.00000  Uiso   1.00
H269   H     0.95317   0.08158   0.08017   0.00000  Uiso   1.00
C270   C     0.96765   0.03742   0.12611   0.00000  Uiso   1.00
H271   H     0.98353   0.01355   0.09820   0.00000  Uiso   1.00
H272   H     0.92817   0.03012   0.14626   0.00000  Uiso   1.00
H273   H     0.98709   0.03600   0.15025   0.00000  Uiso   1.00
O274   O     0.97157   0.20029   0.43996   0.00000  Uiso   1.00
C275   C     0.97371   0.24121   0.42211   0.00000  Uiso   1.00
H276   H     0.95625   0.26413   0.45103   0.00000  Uiso   1.00
H277   H     0.95495   0.24270   0.39730   0.00000  Uiso   1.00
C278   C     0.69440   0.25314   0.39580   0.00000  Uiso   1.00
H279   H     0.71341   0.25284   0.42037   0.00000  Uiso   1.00
H280   H     0.71264   0.22977   0.36787   0.00000  Uiso   1.00
C281   C     0.69946   0.29637   0.37356   0.00000  Uiso   1.00
H282   H     0.68075   0.29711   0.34881   0.00000  Uiso   1.00
H283   H     0.73905   0.30364   0.35396   0.00000  Uiso   1.00
H284   H     0.68295   0.32058   0.40095   0.00000  Uiso   1.00
O285   O     0.87918   0.04050   0.30126   0.00000  Uiso   1.00
C286   C     0.93051   0.04565   0.27553   0.00000  Uiso   1.00
H287   H     0.94104   0.07560   0.28710   0.00000  Uiso   1.00
H288   H     0.94099   0.04849   0.23700   0.00000  Uiso   1.00
C289   C     0.96012   0.01031   0.28568   0.00000  Uiso   1.00
H290   H     0.94860   0.00682   0.32411   0.00000  Uiso   1.00
H291   H     0.95323   0.31371   0.27127   0.00000  Uiso   1.00
C292   C     0.68195   0.01929   0.26332   0.00000  Uiso   1.00
H293   H     0.69414   0.02341   0.22491   0.00000  Uiso   1.00
H294   H     0.70263   0.32596   0.26978   0.00000  Uiso   1.00
H295   H     0.69067   0.04803   0.27857   0.00000  Uiso   1.00
O296   O     0.79287   0.29231   0.19376   0.00000  Uiso   1.00
C297   C     0.82998   0.27788   0.15144   0.00000  Uiso   1.00
H298   H     0.81558   0.24960   0.14041   0.00000  Uiso   1.00
H299   H     0.86459   0.26798   0.15511   0.00000  Uiso   1.00
C300   C     0.84139   0.31107   0.11303   0.00000  Uiso   1.00
H301   H     0.80677   0.32040   0.10939   0.00000  Uiso   1.00
H302   H     0.85725   0.00587   0.12272   0.00000  Uiso   1.00
C303   C     0.87799   0.29453   0.06615   0.00000  Uiso   1.00
H304   H     0.91306   0.28531   0.06891   0.00000  Uiso   1.00
H305   H     0.88591   0.31932   0.03914   0.00000  Uiso   1.00
H306   H     0.86240   0.26705   0.05497   0.00000  Uiso   1.00
C307   C     0.16680   0.57991   0.24948   0.00000  Uiso   1.00
C308   C     0.16671   0.41998   0.25045   0.00000  Uiso   1.00
C309   C     0.11006   0.48628   0.05210   0.00000  Uiso   1.00
C310   C     0.22270   0.51549   0.44832   0.00000  Uiso   1.00
C311   C     0.07615   0.47769   0.03224   0.00000  Uiso   1.00
C312   C     0.25664   0.52389   0.46819   0.00000  Uiso   1.00
C313   C     0.18944   0.64426   0.27456   0.00000  Uiso   1.00
C314   C     0.14608   0.35541   0.22301   0.00000  Uiso   1.00
C315   C     0.19186   0.35379   0.27389   0.00000  Uiso   1.00
C316   C     0.14746   0.64579   0.22057   0.00000  Uiso   1.00
C317   C     0.16798   0.37579   0.24955   0.00000  Uiso   1.00
C318   C     0.16758   0.62395   0.24812   0.00000  Uiso   1.00
C319   C     0.32160   0.47418   0.22073   0.00000  Uiso   1.00
C320   C     0.01183   0.52602   0.27906   0.00000  Uiso   1.00
C321   C     0.03615   0.47406   0.22087   0.00000  Uiso   1.00
C322   C     0.29721   0.52599   0.27909   0.00000  Uiso   1.00
C323   C     0.13574   0.50017   0.33809   0.00000  Uiso   1.00
C324   C     0.19757   0.49989   0.16194   0.00000  Uiso   1.00
C325   C     0.11610   0.49856   0.38891   0.00000  Uiso   1.00
C326   C     0.21708   0.50201   0.11119   0.00000  Uiso   1.00
C327   C     0.05615   0.47569   0.46335   0.00000  Uiso   1.00
C328   C     0.27672   0.52562   0.03701   0.00000  Uiso   1.00
C329   C     0.06994   0.48171   0.41547   0.00000  Uiso   1.00
C330   C     0.26306   0.51921   0.08480   0.00000  Uiso   1.00
C331   C     0.14753   0.51015   0.41026   0.00000  Uiso   1.00
C332   C     0.18551   0.49080   0.08985   0.00000  Uiso   1.00
C333   C     0.13723   0.49984   0.45674   0.00000  Uiso   1.00
C334   C     0.19561   0.50162   0.04357   0.00000  Uiso   1.00
C335   C     0.08960   0.48428   0.48435   0.00000  Uiso   1.00
C336   C     0.24323   0.51719   0.01603   0.00000  Uiso   1.00
C337   C     0.17319   0.50462   0.47607   0.00000  Uiso   1.00
C338   C     0.15958   0.49710   0.02432   0.00000  Uiso   1.00
H339   H     0.15257   0.47405   0.11067   0.00000  Uiso   1.00
H340   H     0.18053   0.52672   0.38925   0.00000  Uiso   1.00
H341   H     0.28783   0.52830   0.10115   0.00000  Uiso   1.00
H342   H     0.04514   0.47256   0.39917   0.00000  Uiso   1.00
H343   H     0.02005   0.46292   0.48347   0.00000  Uiso   1.00
H344   H     0.31274   0.53858   0.01697   0.00000  Uiso   1.00
H345   H     0.09589   0.48508   0.08972   0.00000  Uiso   1.00
H346   H     0.23692   0.51678   0.41071   0.00000  Uiso   1.00
H347   H     0.20396   0.62680   0.29627   0.00000  Uiso   1.00
H348   H     0.12901   0.37282   0.20336   0.00000  Uiso   1.00
H349   H     0.31322   0.45344   0.19745   0.00000  Uiso   1.00
H350   H     0.02028   0.54688   0.30221   0.00000  Uiso   1.00
H351   H     0.06398   0.45321   0.19764   0.00000  Uiso   1.00
H352   H     0.26936   0.54680   0.30235   0.00000  Uiso   1.00
N353   N     0.04759   0.50001   0.25001   0.00000  Uiso   1.00
N354   N     0.28574   0.49999   0.24999   0.00000  Uiso   1.00
O355   O     0.12846   0.56108   0.25000   0.00000  Uiso   1.00
O356   O     0.20488   0.43892   0.24999   0.00000  Uiso   1.00
O357   O     0.20490   0.56107   0.25000   0.00000  Uiso   1.00
O358   O     0.12843   0.43893   0.25000   0.00000  Uiso   1.00
O359   O     0.10661   0.50001   0.31612   0.00000  Uiso   1.00
O360   O     0.22672   0.49999   0.18387   0.00000  Uiso   1.00
O361   O     0.18305   0.50000   0.31612   0.00000  Uiso   1.00
O362   O     0.15028   0.50000   0.18388   0.00000  Uiso   1.00
Zn363  Zn    0.11562   0.50001   0.25000   0.00000  Uiso   1.00
Zn364  Zn    0.21771   0.49999   0.25000   0.00000  Uiso   1.00
O365   O     0.02795   0.46762   0.06048   0.00000  Uiso   1.00
C366   C     0.02620   0.42675   0.07842   0.00000  Uiso   1.00
H367   H     0.04487   0.42557   0.10332   0.00000  Uiso   1.00
H368   H     0.04400   0.40387   0.04955   0.00000  Uiso   1.00
C369   C     0.30563   0.41433   0.10465   0.00000  Uiso   1.00
H370   H     0.28723   0.43730   0.13298   0.00000  Uiso   1.00
H371   H     0.28650   0.41491   0.08017   0.00000  Uiso   1.00
C372   C     0.30098   0.37076   0.12611   0.00000  Uiso   1.00
H373   H     0.31686   0.34689   0.09820   0.00000  Uiso   1.00
H374   H     0.26151   0.36345   0.14626   0.00000  Uiso   1.00
H375   H     0.32043   0.36933   0.15025   0.00000  Uiso   1.00
O376   O     0.30491   0.53362   0.43996   0.00000  Uiso   1.00
C377   C     0.30704   0.57454   0.42211   0.00000  Uiso   1.00
H378   H     0.28959   0.59746   0.45103   0.00000  Uiso   1.00
H379   H     0.28828   0.57603   0.39730   0.00000  Uiso   1.00
C380   C     0.02773   0.58647   0.39580   0.00000  Uiso   1.00
H381   H     0.04674   0.58617   0.42037   0.00000  Uiso   1.00
H382   H     0.04597   0.56310   0.36787   0.00000  Uiso   1.00
C383   C     0.03280   0.62970   0.37356   0.00000  Uiso   1.00
H384   H     0.01408   0.63045   0.34881   0.00000  Uiso   1.00
H385   H     0.07239   0.63697   0.35396   0.00000  Uiso   1.00
H386   H     0.01628   0.65391   0.40095   0.00000  Uiso   1.00
O387   O     0.21252   0.37384   0.30126   0.00000  Uiso   1.00
C388   C     0.26384   0.37898   0.27553   0.00000  Uiso   1.00
H389   H     0.27437   0.40893   0.28710   0.00000  Uiso   1.00
H390   H     0.27433   0.38183   0.23700   0.00000  Uiso   1.00
C391   C     0.29346   0.34364   0.28568   0.00000  Uiso   1.00
H392   H     0.28193   0.34015   0.32411   0.00000  Uiso   1.00
H393   H     0.28657   0.64705   0.27127   0.00000  Uiso   1.00
C394   C     0.01528   0.35262   0.26332   0.00000  Uiso   1.00
H395   H     0.02747   0.35675   0.22491   0.00000  Uiso   1.00
H396   H     0.03597   0.65929   0.26978   0.00000  Uiso   1.00
H397   H     0.02401   0.38137   0.27857   0.00000  Uiso   1.00
O398   O     0.12620   0.62565   0.19376   0.00000  Uiso   1.00
C399   C     0.16332   0.61122   0.15144   0.00000  Uiso   1.00
H400   H     0.14891   0.58294   0.14041   0.00000  Uiso   1.00
H401   H     0.19792   0.60131   0.15511   0.00000  Uiso   1.00
C402   C     0.17472   0.64440   0.11303   0.00000  Uiso   1.00
H403   H     0.14011   0.65374   0.10939   0.00000  Uiso   1.00
H404   H     0.19058   0.33920   0.12272   0.00000  Uiso   1.00
C405   C     0.21132   0.62786   0.06615   0.00000  Uiso   1.00
H406   H     0.24639   0.61864   0.06891   0.00000  Uiso   1.00
H407   H     0.21924   0.65265   0.03914   0.00000  Uiso   1.00
H408   H     0.19573   0.60039   0.05497   0.00000  Uiso   1.00
C409   C     0.50014   0.57991   0.24948   0.00000  Uiso   1.00
C410   C     0.50004   0.41998   0.25045   0.00000  Uiso   1.00
C411   C     0.44340   0.48628   0.05210   0.00000  Uiso   1.00
C412   C     0.55603   0.51549   0.44832   0.00000  Uiso   1.00
C413   C     0.40948   0.47769   0.03224   0.00000  Uiso   1.00
C414   C     0.58997   0.52389   0.46819   0.00000  Uiso   1.00
C415   C     0.52277   0.64426   0.27456   0.00000  Uiso   1.00
C416   C     0.47942   0.35541   0.22301   0.00000  Uiso   1.00
C417   C     0.52519   0.35379   0.27389   0.00000  Uiso   1.00
C418   C     0.48079   0.64579   0.22057   0.00000  Uiso   1.00
C419   C     0.50131   0.37579   0.24955   0.00000  Uiso   1.00
C420   C     0.50091   0.62395   0.24812   0.00000  Uiso   1.00
C421   C     0.65494   0.47418   0.22073   0.00000  Uiso   1.00
C422   C     0.34516   0.52602   0.27906   0.00000  Uiso   1.00
C423   C     0.36948   0.47406   0.22087   0.00000  Uiso   1.00
C424   C     0.63054   0.52599   0.27909   0.00000  Uiso   1.00
C425   C     0.46908   0.50017   0.33809   0.00000  Uiso   1.00
C426   C     0.53090   0.49989   0.16194   0.00000  Uiso   1.00
C427   C     0.44943   0.49856   0.38891   0.00000  Uiso   1.00
C428   C     0.55041   0.50201   0.11119   0.00000  Uiso   1.00
C429   C     0.38948   0.47569   0.46335   0.00000  Uiso   1.00
C430   C     0.61005   0.52562   0.03701   0.00000  Uiso   1.00
C431   C     0.40327   0.48171   0.41547   0.00000  Uiso   1.00
C432   C     0.59639   0.51921   0.08480   0.00000  Uiso   1.00
C433   C     0.48086   0.51015   0.41026   0.00000  Uiso   1.00
C434   C     0.51884   0.49080   0.08985   0.00000  Uiso   1.00
C435   C     0.47056   0.49984   0.45674   0.00000  Uiso   1.00
C436   C     0.52894   0.50162   0.04357   0.00000  Uiso   1.00
C437   C     0.42293   0.48428   0.48435   0.00000  Uiso   1.00
C438   C     0.57656   0.51719   0.01603   0.00000  Uiso   1.00
C439   C     0.50652   0.50462   0.47607   0.00000  Uiso   1.00
C440   C     0.49291   0.49710   0.02432   0.00000  Uiso   1.00
H441   H     0.48590   0.47405   0.11067   0.00000  Uiso   1.00
H442   H     0.51386   0.52672   0.38925   0.00000  Uiso   1.00
H443   H     0.62116   0.52830   0.10115   0.00000  Uiso   1.00
H444   H     0.37847   0.47256   0.39917   0.00000  Uiso   1.00
H445   H     0.35338   0.46292   0.48347   0.00000  Uiso   1.00
H446   H     0.64607   0.53858   0.01697   0.00000  Uiso   1.00
H447   H     0.42923   0.48508   0.08972   0.00000  Uiso   1.00
H448   H     0.57026   0.51678   0.41071   0.00000  Uiso   1.00
H449   H     0.53729   0.62680   0.29627   0.00000  Uiso   1.00
H450   H     0.46234   0.37282   0.20336   0.00000  Uiso   1.00
H451   H     0.64656   0.45344   0.19745   0.00000  Uiso   1.00
H452   H     0.35361   0.54688   0.30221   0.00000  Uiso   1.00
H453   H     0.39731   0.45321   0.19764   0.00000  Uiso   1.00
H454   H     0.60269   0.54680   0.30235   0.00000  Uiso   1.00
N455   N     0.38093   0.50001   0.25001   0.00000  Uiso   1.00
N456   N     0.61907   0.49999   0.24999   0.00000  Uiso   1.00
O457   O     0.46179   0.56108   0.25000   0.00000  Uiso   1.00
O458   O     0.53821   0.43892   0.24999   0.00000  Uiso   1.00
O459   O     0.53823   0.56107   0.25000   0.00000  Uiso   1.00
O460   O     0.46177   0.43893   0.25000   0.00000  Uiso   1.00
O461   O     0.43994   0.50001   0.31612   0.00000  Uiso   1.00
O462   O     0.56006   0.49999   0.18387   0.00000  Uiso   1.00
O463   O     0.51639   0.50000   0.31612   0.00000  Uiso   1.00
O464   O     0.48361   0.50000   0.18388   0.00000  Uiso   1.00
Zn465  Zn    0.44896   0.50001   0.25000   0.00000  Uiso   1.00
Zn466  Zn    0.55104   0.49999   0.25000   0.00000  Uiso   1.00
O467   O     0.36128   0.46762   0.06048   0.00000  Uiso   1.00
C468   C     0.35953   0.42675   0.07842   0.00000  Uiso   1.00
H469   H     0.37820   0.42557   0.10332   0.00000  Uiso   1.00
H470   H     0.37733   0.40387   0.04955   0.00000  Uiso   1.00
C471   C     0.63896   0.41433   0.10465   0.00000  Uiso   1.00
H472   H     0.62056   0.43730   0.13298   0.00000  Uiso   1.00
H473   H     0.61984   0.41491   0.08017   0.00000  Uiso   1.00
C474   C     0.63431   0.37076   0.12611   0.00000  Uiso   1.00
H475   H     0.65019   0.34689   0.09820   0.00000  Uiso   1.00
H476   H     0.59484   0.36345   0.14626   0.00000  Uiso   1.00
H477   H     0.65376   0.36933   0.15025   0.00000  Uiso   1.00
O478   O     0.63824   0.53362   0.43996   0.00000  Uiso   1.00
C479   C     0.64038   0.57454   0.42211   0.00000  Uiso   1.00
H480   H     0.62292   0.59746   0.45103   0.00000  Uiso   1.00
H481   H     0.62162   0.57603   0.39730   0.00000  Uiso   1.00
C482   C     0.36106   0.58647   0.39580   0.00000  Uiso   1.00
H483   H     0.38007   0.58617   0.42037   0.00000  Uiso   1.00
H484   H     0.37930   0.56310   0.36787   0.00000  Uiso   1.00
C485   C     0.36613   0.62970   0.37356   0.00000  Uiso   1.00
H486   H     0.34742   0.63045   0.34881   0.00000  Uiso   1.00
H487   H     0.40572   0.63697   0.35396   0.00000  Uiso   1.00
H488   H     0.34962   0.65391   0.40095   0.00000  Uiso   1.00
O489   O     0.54585   0.37384   0.30126   0.00000  Uiso   1.00
C490   C     0.59718   0.37898   0.27553   0.00000  Uiso   1.00
H491   H     0.60770   0.40893   0.28710   0.00000  Uiso   1.00
H492   H     0.60766   0.38183   0.23700   0.00000  Uiso   1.00
C493   C     0.62679   0.34364   0.28568   0.00000  Uiso   1.00
H494   H     0.61526   0.34015   0.32411   0.00000  Uiso   1.00
H495   H     0.61990   0.64705   0.27127   0.00000  Uiso   1.00
C496   C     0.34862   0.35262   0.26332   0.00000  Uiso   1.00
H497   H     0.36081   0.35675   0.22491   0.00000  Uiso   1.00
H498   H     0.36930   0.65929   0.26978   0.00000  Uiso   1.00
H499   H     0.35734   0.38137   0.27857   0.00000  Uiso   1.00
O500   O     0.45953   0.62565   0.19376   0.00000  Uiso   1.00
C501   C     0.49665   0.61122   0.15144   0.00000  Uiso   1.00
H502   H     0.48225   0.58294   0.14041   0.00000  Uiso   1.00
H503   H     0.53125   0.60131   0.15511   0.00000  Uiso   1.00
C504   C     0.50806   0.64440   0.11303   0.00000  Uiso   1.00
H505   H     0.47344   0.65374   0.10939   0.00000  Uiso   1.00
H506   H     0.52392   0.33920   0.12272   0.00000  Uiso   1.00
C507   C     0.54465   0.62786   0.06615   0.00000  Uiso   1.00
H508   H     0.57972   0.61864   0.06891   0.00000  Uiso   1.00
H509   H     0.55258   0.65265   0.03914   0.00000  Uiso   1.00
H510   H     0.52906   0.60039   0.05497   0.00000  Uiso   1.00
C511   C     0.83347   0.57991   0.24948   0.00000  Uiso   1.00
C512   C     0.83338   0.41998   0.25045   0.00000  Uiso   1.00
C513   C     0.77673   0.48628   0.05210   0.00000  Uiso   1.00
C514   C     0.88936   0.51549   0.44832   0.00000  Uiso   1.00
C515   C     0.74281   0.47769   0.03224   0.00000  Uiso   1.00
C516   C     0.92330   0.52389   0.46819   0.00000  Uiso   1.00
C517   C     0.85611   0.64426   0.27456   0.00000  Uiso   1.00
C518   C     0.81275   0.35541   0.22301   0.00000  Uiso   1.00
C519   C     0.85853   0.35379   0.27389   0.00000  Uiso   1.00
C520   C     0.81412   0.64579   0.22057   0.00000  Uiso   1.00
C521   C     0.83464   0.37579   0.24955   0.00000  Uiso   1.00
C522   C     0.83424   0.62395   0.24812   0.00000  Uiso   1.00
C523   C     0.98827   0.47418   0.22073   0.00000  Uiso   1.00
C524   C     0.67850   0.52602   0.27906   0.00000  Uiso   1.00
C525   C     0.70281   0.47406   0.22087   0.00000  Uiso   1.00
C526   C     0.96388   0.52599   0.27909   0.00000  Uiso   1.00
C527   C     0.80241   0.50017   0.33809   0.00000  Uiso   1.00
C528   C     0.86423   0.49989   0.16194   0.00000  Uiso   1.00
C529   C     0.78277   0.49856   0.38891   0.00000  Uiso   1.00
C530   C     0.88374   0.50201   0.11119   0.00000  Uiso   1.00
C531   C     0.72282   0.47569   0.46335   0.00000  Uiso   1.00
C532   C     0.94339   0.52562   0.03701   0.00000  Uiso   1.00
C533   C     0.73661   0.48171   0.41547   0.00000  Uiso   1.00
C534   C     0.92973   0.51921   0.08480   0.00000  Uiso   1.00
C535   C     0.81419   0.51015   0.41026   0.00000  Uiso   1.00
C536   C     0.85218   0.49080   0.08985   0.00000  Uiso   1.00
C537   C     0.80390   0.49984   0.45674   0.00000  Uiso   1.00
C538   C     0.86228   0.50162   0.04357   0.00000  Uiso   1.00
C539   C     0.75626   0.48428   0.48435   0.00000  Uiso   1.00
C540   C     0.90989   0.51719   0.01603   0.00000  Uiso   1.00
C541   C     0.83985   0.50462   0.47607   0.00000  Uiso   1.00
C542   C     0.82624   0.49710   0.02432   0.00000  Uiso   1.00
H543   H     0.81923   0.47405   0.11067   0.00000  Uiso   1.00
H544   H     0.84720   0.52672   0.38925   0.00000  Uiso   1.00
H545   H     0.95450   0.52830   0.10115   0.00000  Uiso   1.00
H546   H     0.71180   0.47256   0.39917   0.00000  Uiso   1.00
H547   H     0.68671   0.46292   0.48347   0.00000  Uiso   1.00
H548   H     0.97940   0.53858   0.01697   0.00000  Uiso   1.00
H549   H     0.76256   0.48508   0.08972   0.00000  Uiso   1.00
H550   H     0.90359   0.51678   0.41071   0.00000  Uiso   1.00
H551   H     0.87062   0.62680   0.29627   0.00000  Uiso   1.00
H552   H     0.79567   0.37282   0.20336   0.00000  Uiso   1.00
H553   H     0.97989   0.45344   0.19745   0.00000  Uiso   1.00
H554   H     0.68695   0.54688   0.30221   0.00000  Uiso   1.00
H555   H     0.73064   0.45321   0.19764   0.00000  Uiso   1.00
H556   H     0.93603   0.54680   0.30235   0.00000  Uiso   1.00
N557   N     0.71426   0.50001   0.25001   0.00000  Uiso   1.00
N558   N     0.95241   0.49999   0.24999   0.00000  Uiso   1.00
O559   O     0.79512   0.56108   0.25000   0.00000  Uiso   1.00
O560   O     0.87154   0.43892   0.24999   0.00000  Uiso   1.00
O561   O     0.87157   0.56107   0.25000   0.00000  Uiso   1.00
O562   O     0.79510   0.43893   0.25000   0.00000  Uiso   1.00
O563   O     0.77328   0.50001   0.31612   0.00000  Uiso   1.00
O564   O     0.89339   0.49999   0.18387   0.00000  Uiso   1.00
O565   O     0.84972   0.50000   0.31612   0.00000  Uiso   1.00
O566   O     0.81695   0.50000   0.18388   0.00000  Uiso   1.00
Zn567  Zn    0.78229   0.50001   0.25000   0.00000  Uiso   1.00
Zn568  Zn    0.88438   0.49999   0.25000   0.00000  Uiso   1.00
O569   O     0.69462   0.46762   0.06048   0.00000  Uiso   1.00
C570   C     0.69286   0.42675   0.07842   0.00000  Uiso   1.00
H571   H     0.71153   0.42557   0.10332   0.00000  Uiso   1.00
H572   H     0.71066   0.40387   0.04955   0.00000  Uiso   1.00
C573   C     0.97230   0.41433   0.10465   0.00000  Uiso   1.00
H574   H     0.95389   0.43730   0.13298   0.00000  Uiso   1.00
H575   H     0.95317   0.41491   0.08017   0.00000  Uiso   1.00
C576   C     0.96765   0.37076   0.12611   0.00000  Uiso   1.00
H577   H     0.98353   0.34689   0.09820   0.00000  Uiso   1.00
H578   H     0.92817   0.36345   0.14626   0.00000  Uiso   1.00
H579   H     0.98709   0.36933   0.15025   0.00000  Uiso   1.00
O580   O     0.97157   0.53362   0.43996   0.00000  Uiso   1.00
C581   C     0.97371   0.57454   0.42211   0.00000  Uiso   1.00
H582   H     0.95625   0.59746   0.45103   0.00000  Uiso   1.00
H583   H     0.95495   0.57603   0.39730   0.00000  Uiso   1.00
C584   C     0.69440   0.58647   0.39580   0.00000  Uiso   1.00
H585   H     0.71341   0.58617   0.42037   0.00000  Uiso   1.00
H586   H     0.71264   0.56310   0.36787   0.00000  Uiso   1.00
C587   C     0.69946   0.62970   0.37356   0.00000  Uiso   1.00
H588   H     0.68075   0.63045   0.34881   0.00000  Uiso   1.00
H589   H     0.73905   0.63697   0.35396   0.00000  Uiso   1.00
H590   H     0.68295   0.65391   0.40095   0.00000  Uiso   1.00
O591   O     0.87918   0.37384   0.30126   0.00000  Uiso   1.00
C592   C     0.93051   0.37898   0.27553   0.00000  Uiso   1.00
H593   H     0.94104   0.40893   0.28710   0.00000  Uiso   1.00
H594   H     0.94099   0.38183   0.23700   0.00000  Uiso   1.00
C595   C     0.96012   0.34364   0.28568   0.00000  Uiso   1.00
H596   H     0.94860   0.34015   0.32411   0.00000  Uiso   1.00
H597   H     0.95323   0.64705   0.27127   0.00000  Uiso   1.00
C598   C     0.68195   0.35262   0.26332   0.00000  Uiso   1.00
H599   H     0.69414   0.35675   0.22491   0.00000  Uiso   1.00
H600   H     0.70263   0.65929   0.26978   0.00000  Uiso   1.00
H601   H     0.69067   0.38137   0.27857   0.00000  Uiso   1.00
O602   O     0.79287   0.62565   0.19376   0.00000  Uiso   1.00
C603   C     0.82998   0.61122   0.15144   0.00000  Uiso   1.00
H604   H     0.81558   0.58294   0.14041   0.00000  Uiso   1.00
H605   H     0.86459   0.60131   0.15511   0.00000  Uiso   1.00
C606   C     0.84139   0.64440   0.11303   0.00000  Uiso   1.00
H607   H     0.80677   0.65374   0.10939   0.00000  Uiso   1.00
H608   H     0.85725   0.33920   0.12272   0.00000  Uiso   1.00
C609   C     0.87799   0.62786   0.06615   0.00000  Uiso   1.00
H610   H     0.91306   0.61864   0.06891   0.00000  Uiso   1.00
H611   H     0.88591   0.65265   0.03914   0.00000  Uiso   1.00
H612   H     0.86240   0.60039   0.05497   0.00000  Uiso   1.00
C613   C     0.16680   0.91325   0.24948   0.00000  Uiso   1.00
C614   C     0.16671   0.75332   0.25045   0.00000  Uiso   1.00
C615   C     0.11006   0.81961   0.05210   0.00000  Uiso   1.00
C616   C     0.22270   0.84882   0.44832   0.00000  Uiso   1.00
C617   C     0.07615   0.81102   0.03224   0.00000  Uiso   1.00
C618   C     0.25664   0.85723   0.46819   0.00000  Uiso   1.00
C619   C     0.18944   0.97760   0.27456   0.00000  Uiso   1.00
C620   C     0.14608   0.68874   0.22301   0.00000  Uiso   1.00
C621   C     0.19186   0.68712   0.27389   0.00000  Uiso   1.00
C622   C     0.14746   0.97912   0.22057   0.00000  Uiso   1.00
C623   C     0.16798   0.70912   0.24955   0.00000  Uiso   1.00
C624   C     0.16758   0.95728   0.24812   0.00000  Uiso   1.00
C625   C     0.32160   0.80751   0.22073   0.00000  Uiso   1.00
C626   C     0.01183   0.85935   0.27906   0.00000  Uiso   1.00
C627   C     0.03615   0.80739   0.22087   0.00000  Uiso   1.00
C628   C     0.29721   0.85932   0.27909   0.00000  Uiso   1.00
C629   C     0.13574   0.83351   0.33809   0.00000  Uiso   1.00
C630   C     0.19757   0.83323   0.16194   0.00000  Uiso   1.00
C631   C     0.11610   0.83189   0.38891   0.00000  Uiso   1.00
C632   C     0.21708   0.83534   0.11119   0.00000  Uiso   1.00
C633   C     0.05615   0.80903   0.46335   0.00000  Uiso   1.00
C634   C     0.27672   0.85895   0.03701   0.00000  Uiso   1.00
C635   C     0.06994   0.81504   0.41547   0.00000  Uiso   1.00
C636   C     0.26306   0.85255   0.08480   0.00000  Uiso   1.00
C637   C     0.14753   0.84348   0.41026   0.00000  Uiso   1.00
C638   C     0.18551   0.82413   0.08985   0.00000  Uiso   1.00
C639   C     0.13723   0.83317   0.45674   0.00000  Uiso   1.00
C640   C     0.19561   0.83495   0.04357   0.00000  Uiso   1.00
C641   C     0.08960   0.81761   0.48435   0.00000  Uiso   1.00
C642   C     0.24323   0.85052   0.01603   0.00000  Uiso   1.00
C643   C     0.17319   0.83795   0.47607   0.00000  Uiso   1.00
C644   C     0.15958   0.83043   0.02432   0.00000  Uiso   1.00
H645   H     0.15257   0.80738   0.11067   0.00000  Uiso   1.00
H646   H     0.18053   0.86006   0.38925   0.00000  Uiso   1.00
H647   H     0.28783   0.86163   0.10115   0.00000  Uiso   1.00
H648   H     0.04514   0.80590   0.39917   0.00000  Uiso   1.00
H649   H     0.02005   0.79626   0.48347   0.00000  Uiso   1.00
H650   H     0.31274   0.87192   0.01697   0.00000  Uiso   1.00
H651   H     0.09589   0.81841   0.08972   0.00000  Uiso   1.00
H652   H     0.23692   0.85011   0.41071   0.00000  Uiso   1.00
H653   H     0.20396   0.96013   0.29627   0.00000  Uiso   1.00
H654   H     0.12901   0.70615   0.20336   0.00000  Uiso   1.00
H655   H     0.31322   0.78677   0.19745   0.00000  Uiso   1.00
H656   H     0.02028   0.88022   0.30221   0.00000  Uiso   1.00
H657   H     0.06398   0.78655   0.19764   0.00000  Uiso   1.00
H658   H     0.26936   0.88013   0.30235   0.00000  Uiso   1.00
N659   N     0.04759   0.83334   0.25001   0.00000  Uiso   1.00
N660   N     0.28574   0.83332   0.24999   0.00000  Uiso   1.00
O661   O     0.12846   0.89442   0.25000   0.00000  Uiso   1.00
O662   O     0.20488   0.77225   0.24999   0.00000  Uiso   1.00
O663   O     0.20490   0.89441   0.25000   0.00000  Uiso   1.00
O664   O     0.12843   0.77226   0.25000   0.00000  Uiso   1.00
O665   O     0.10661   0.83334   0.31612   0.00000  Uiso   1.00
O666   O     0.22672   0.83333   0.18387   0.00000  Uiso   1.00
O667   O     0.18305   0.83333   0.31612   0.00000  Uiso   1.00
O668   O     0.15028   0.83334   0.18388   0.00000  Uiso   1.00
Zn669  Zn    0.11562   0.83334   0.25000   0.00000  Uiso   1.00
Zn670  Zn    0.21771   0.83333   0.25000   0.00000  Uiso   1.00
O671   O     0.02795   0.80095   0.06048   0.00000  Uiso   1.00
C672   C     0.02620   0.76009   0.07842   0.00000  Uiso   1.00
H673   H     0.04487   0.75890   0.10332   0.00000  Uiso   1.00
H674   H     0.04400   0.73720   0.04955   0.00000  Uiso   1.00
C675   C     0.30563   0.74766   0.10465   0.00000  Uiso   1.00
H676   H     0.28723   0.77063   0.13298   0.00000  Uiso   1.00
H677   H     0.28650   0.74824   0.08017   0.00000  Uiso   1.00
C678   C     0.30098   0.70409   0.12611   0.00000  Uiso   1.00
H679   H     0.31686   0.68022   0.09820   0.00000  Uiso   1.00
H680   H     0.26151   0.69679   0.14626   0.00000  Uiso   1.00
H681   H     0.32043   0.70267   0.15025   0.00000  Uiso   1.00
O682   O     0.30491   0.86696   0.43996   0.00000  Uiso   1.00
C683   C     0.30704   0.90787   0.42211   0.00000  Uiso   1.00
H684   H     0.28959   0.93080   0.45103   0.00000  Uiso   1.00
H685   H     0.28828   0.90937   0.39730   0.00000  Uiso   1.00
C686   C     0.02773   0.91980   0.39580   0.00000  Uiso   1.00
H687   H     0.04674   0.91950   0.42037   0.00000  Uiso   1.00
H688   H     0.04597   0.89643   0.36787   0.00000  Uiso   1.00
C689   C     0.03280   0.96303   0.37356   0.00000  Uiso   1.00
H690   H     0.01408   0.96378   0.34881   0.00000  Uiso   1.00
H691   H     0.07239   0.97031   0.35396   0.00000  Uiso   1.00
H692   H     0.01628   0.98725   0.40095   0.00000  Uiso   1.00
O693   O     0.21252   0.70717   0.30126   0.00000  Uiso   1.00
C694   C     0.26384   0.71232   0.27553   0.00000  Uiso   1.00
H695   H     0.27437   0.74227   0.28710   0.00000  Uiso   1.00
H696   H     0.27433   0.71516   0.23700   0.00000  Uiso   1.00
C697   C     0.29346   0.67697   0.28568   0.00000  Uiso   1.00
H698   H     0.28193   0.67348   0.32411   0.00000  Uiso   1.00
H699   H     0.28657   0.98038   0.27127   0.00000  Uiso   1.00
C700   C     0.01528   0.68595   0.26332   0.00000  Uiso   1.00
H701   H     0.02747   0.69008   0.22491   0.00000  Uiso   1.00
H702   H     0.03597   0.99262   0.26978   0.00000  Uiso   1.00
H703   H     0.02401   0.71470   0.27857   0.00000  Uiso   1.00
O704   O     0.12620   0.95898   0.19376   0.00000  Uiso   1.00
C705   C     0.16332   0.94455   0.15144   0.00000  Uiso   1.00
H706   H     0.14891   0.91627   0.14041   0.00000  Uiso   1.00
H707   H     0.19792   0.93464   0.15511   0.00000  Uiso   1.00
C708   C     0.17472   0.97773   0.11303   0.00000  Uiso   1.00
H709   H     0.14011   0.98707   0.10939   0.00000  Uiso   1.00
H710   H     0.19058   0.67254   0.12272   0.00000  Uiso   1.00
C711   C     0.21132   0.96119   0.06615   0.00000  Uiso   1.00
H712   H     0.24639   0.95197   0.06891   0.00000  Uiso   1.00
H713   H     0.21924   0.98599   0.03914   0.00000  Uiso   1.00
H714   H     0.19573   0.93372   0.05497   0.00000  Uiso   1.00
C715   C     0.50014   0.91325   0.24948   0.00000  Uiso   1.00
C716   C     0.50004   0.75332   0.25045   0.00000  Uiso   1.00
C717   C     0.44340   0.81961   0.05210   0.00000  Uiso   1.00
C718   C     0.55603   0.84882   0.44832   0.00000  Uiso   1.00
C719   C     0.40948   0.81102   0.03224   0.00000  Uiso   1.00
C720   C     0.58997   0.85723   0.46819   0.00000  Uiso   1.00
C721   C     0.52277   0.97760   0.27456   0.00000  Uiso   1.00
C722   C     0.47942   0.68874   0.22301   0.00000  Uiso   1.00
C723   C     0.52519   0.68712   0.27389   0.00000  Uiso   1.00
C724   C     0.48079   0.97912   0.22057   0.00000  Uiso   1.00
C725   C     0.50131   0.70912   0.24955   0.00000  Uiso   1.00
C726   C     0.50091   0.95728   0.24812   0.00000  Uiso   1.00
C727   C     0.65494   0.80751   0.22073   0.00000  Uiso   1.00
C728   C     0.34516   0.85935   0.27906   0.00000  Uiso   1.00
C729   C     0.36948   0.80739   0.22087   0.00000  Uiso   1.00
C730   C     0.63054   0.85932   0.27909   0.00000  Uiso   1.00
C731   C     0.46908   0.83351   0.33809   0.00000  Uiso   1.00
C732   C     0.53090   0.83323   0.16194   0.00000  Uiso   1.00
C733   C     0.44943   0.83189   0.38891   0.00000  Uiso   1.00
C734   C     0.55041   0.83534   0.11119   0.00000  Uiso   1.00
C735   C     0.38948   0.80903   0.46335   0.00000  Uiso   1.00
C736   C     0.61005   0.85895   0.03701   0.00000  Uiso   1.00
C737   C     0.40327   0.81504   0.41547   0.00000  Uiso   1.00
C738   C     0.59639   0.85255   0.08480   0.00000  Uiso   1.00
C739   C     0.48086   0.84348   0.41026   0.00000  Uiso   1.00
C740   C     0.51884   0.82413   0.08985   0.00000  Uiso   1.00
C741   C     0.47056   0.83317   0.45674   0.00000  Uiso   1.00
C742   C     0.52894   0.83495   0.04357   0.00000  Uiso   1.00
C743   C     0.42293   0.81761   0.48435   0.00000  Uiso   1.00
C744   C     0.57656   0.85052   0.01603   0.00000  Uiso   1.00
C745   C     0.50652   0.83795   0.47607   0.00000  Uiso   1.00
C746   C     0.49291   0.83043   0.02432   0.00000  Uiso   1.00
H747   H     0.48590   0.80738   0.11067   0.00000  Uiso   1.00
H748   H     0.51386   0.86006   0.38925   0.00000  Uiso   1.00
H749   H     0.62116   0.86163   0.10115   0.00000  Uiso   1.00
H750   H     0.37847   0.80590   0.39917   0.00000  Uiso   1.00
H751   H     0.35338   0.79626   0.48347   0.00000  Uiso   1.00
H752   H     0.64607   0.87192   0.01697   0.00000  Uiso   1.00
H753   H     0.42923   0.81841   0.08972   0.00000  Uiso   1.00
H754   H     0.57026   0.85011   0.41071   0.00000  Uiso   1.00
H755   H     0.53729   0.96013   0.29627   0.00000  Uiso   1.00
H756   H     0.46234   0.70615   0.20336   0.00000  Uiso   1.00
H757   H     0.64656   0.78677   0.19745   0.00000  Uiso   1.00
H758   H     0.35361   0.88022   0.30221   0.00000  Uiso   1.00
H759   H     0.39731   0.78655   0.19764   0.00000  Uiso   1.00
H760   H     0.60269   0.88013   0.30235   0.00000  Uiso   1.00
N761   N     0.38093   0.83334   0.25001   0.00000  Uiso   1.00
N762   N     0.61907   0.83332   0.24999   0.00000  Uiso   1.00
O763   O     0.46179   0.89442   0.25000   0.00000  Uiso   1.00
O764   O     0.53821   0.77225   0.24999   0.00000  Uiso   1.00
O765   O     0.53823   0.89441   0.25000   0.00000  Uiso   1.00
O766   O     0.46177   0.77226   0.25000   0.00000  Uiso   1.00
O767   O     0.43994   0.83334   0.31612   0.00000  Uiso   1.00
O768   O     0.56006   0.83333   0.18387   0.00000  Uiso   1.00
O769   O     0.51639   0.83333   0.31612   0.00000  Uiso   1.00
O770   O     0.48361   0.83334   0.18388   0.00000  Uiso   1.00
Zn771  Zn    0.44896   0.83334   0.25000   0.00000  Uiso   1.00
Zn772  Zn    0.55104   0.83333   0.25000   0.00000  Uiso   1.00
O773   O     0.36128   0.80095   0.06048   0.00000  Uiso   1.00
C774   C     0.35953   0.76009   0.07842   0.00000  Uiso   1.00
H775   H     0.37820   0.75890   0.10332   0.00000  Uiso   1.00
H776   H     0.37733   0.73720   0.04955   0.00000  Uiso   1.00
C777   C     0.63896   0.74766   0.10465   0.00000  Uiso   1.00
H778   H     0.62056   0.77063   0.13298   0.00000  Uiso   1.00
H779   H     0.61984   0.74824   0.08017   0.00000  Uiso   1.00
C780   C     0.63431   0.70409   0.12611   0.00000  Uiso   1.00
H781   H     0.65019   0.68022   0.09820   0.00000  Uiso   1.00
H782   H     0.59484   0.69679   0.14626   0.00000  Uiso   1.00
H783   H     0.65376   0.70267   0.15025   0.00000  Uiso   1.00
O784   O     0.63824   0.86696   0.43996   0.00000  Uiso   1.00
C785   C     0.64038   0.90787   0.42211   0.00000  Uiso   1.00
H786   H     0.62292   0.93080   0.45103   0.00000  Uiso   1.00
H787   H     0.62162   0.90937   0.39730   0.00000  Uiso   1.00
C788   C     0.36106   0.91980   0.39580   0.00000  Uiso   1.00
H789   H     0.38007   0.91950   0.42037   0.00000  Uiso   1.00
H790   H     0.37930   0.89643   0.36787   0.00000  Uiso   1.00
C791   C     0.36613   0.96303   0.37356   0.00000  Uiso   1.00
H792   H     0.34742   0.96378   0.34881   0.00000  Uiso   1.00
H793   H     0.40572   0.97031   0.35396   0.00000  Uiso   1.00
H794   H     0.34962   0.98725   0.40095   0.00000  Uiso   1.00
O795   O     0.54585   0.70717   0.30126   0.00000  Uiso   1.00
C796   C     0.59718   0.71232   0.27553   0.00000  Uiso   1.00
H797   H     0.60770   0.74227   0.28710   0.00000  Uiso   1.00
H798   H     0.60766   0.71516   0.23700   0.00000  Uiso   1.00
C799   C     0.62679   0.67697   0.28568   0.00000  Uiso   1.00
H800   H     0.61526   0.67348   0.32411   0.00000  Uiso   1.00
H801   H     0.61990   0.98038   0.27127   0.00000  Uiso   1.00
C802   C     0.34862   0.68595   0.26332   0.00000  Uiso   1.00
H803   H     0.36081   0.69008   0.22491   0.00000  Uiso   1.00
H804   H     0.36930   0.99262   0.26978   0.00000  Uiso   1.00
H805   H     0.35734   0.71470   0.27857   0.00000  Uiso   1.00
O806   O     0.45953   0.95898   0.19376   0.00000  Uiso   1.00
C807   C     0.49665   0.94455   0.15144   0.00000  Uiso   1.00
H808   H     0.48225   0.91627   0.14041   0.00000  Uiso   1.00
H809   H     0.53125   0.93464   0.15511   0.00000  Uiso   1.00
C810   C     0.50806   0.97773   0.11303   0.00000  Uiso   1.00
H811   H     0.47344   0.98707   0.10939   0.00000  Uiso   1.00
H812   H     0.52392   0.67254   0.12272   0.00000  Uiso   1.00
C813   C     0.54465   0.96119   0.06615   0.00000  Uiso   1.00
H814   H     0.57972   0.95197   0.06891   0.00000  Uiso   1.00
H815   H     0.55258   0.98599   0.03914   0.00000  Uiso   1.00
H816   H     0.52906   0.93372   0.05497   0.00000  Uiso   1.00
C817   C     0.83347   0.91325   0.24948   0.00000  Uiso   1.00
C818   C     0.83338   0.75332   0.25045   0.00000  Uiso   1.00
C819   C     0.77673   0.81961   0.05210   0.00000  Uiso   1.00
C820   C     0.88936   0.84882   0.44832   0.00000  Uiso   1.00
C821   C     0.74281   0.81102   0.03224   0.00000  Uiso   1.00
C822   C     0.92330   0.85723   0.46819   0.00000  Uiso   1.00
C823   C     0.85611   0.97760   0.27456   0.00000  Uiso   1.00
C824   C     0.81275   0.68874   0.22301   0.00000  Uiso   1.00
C825   C     0.85853   0.68712   0.27389   0.00000  Uiso   1.00
C826   C     0.81412   0.97912   0.22057   0.00000  Uiso   1.00
C827   C     0.83464   0.70912   0.24955   0.00000  Uiso   1.00
C828   C     0.83424   0.95728   0.24812   0.00000  Uiso   1.00
C829   C     0.98827   0.80751   0.22073   0.00000  Uiso   1.00
C830   C     0.67850   0.85935   0.27906   0.00000  Uiso   1.00
C831   C     0.70281   0.80739   0.22087   0.00000  Uiso   1.00
C832   C     0.96388   0.85932   0.27909   0.00000  Uiso   1.00
C833   C     0.80241   0.83351   0.33809   0.00000  Uiso   1.00
C834   C     0.86423   0.83323   0.16194   0.00000  Uiso   1.00
C835   C     0.78277   0.83189   0.38891   0.00000  Uiso   1.00
C836   C     0.88374   0.83534   0.11119   0.00000  Uiso   1.00
C837   C     0.72282   0.80903   0.46335   0.00000  Uiso   1.00
C838   C     0.94339   0.85895   0.03701   0.00000  Uiso   1.00
C839   C     0.73661   0.81504   0.41547   0.00000  Uiso   1.00
C840   C     0.92973   0.85255   0.08480   0.00000  Uiso   1.00
C841   C     0.81419   0.84348   0.41026   0.00000  Uiso   1.00
C842   C     0.85218   0.82413   0.08985   0.00000  Uiso   1.00
C843   C     0.80390   0.83317   0.45674   0.00000  Uiso   1.00
C844   C     0.86228   0.83495   0.04357   0.00000  Uiso   1.00
C845   C     0.75626   0.81761   0.48435   0.00000  Uiso   1.00
C846   C     0.90989   0.85052   0.01603   0.00000  Uiso   1.00
C847   C     0.83985   0.83795   0.47607   0.00000  Uiso   1.00
C848   C     0.82624   0.83043   0.02432   0.00000  Uiso   1.00
H849   H     0.81923   0.80738   0.11067   0.00000  Uiso   1.00
H850   H     0.84720   0.86006   0.38925   0.00000  Uiso   1.00
H851   H     0.95450   0.86163   0.10115   0.00000  Uiso   1.00
H852   H     0.71180   0.80590   0.39917   0.00000  Uiso   1.00
H853   H     0.68671   0.79626   0.48347   0.00000  Uiso   1.00
H854   H     0.97940   0.87192   0.01697   0.00000  Uiso   1.00
H855   H     0.76256   0.81841   0.08972   0.00000  Uiso   1.00
H856   H     0.90359   0.85011   0.41071   0.00000  Uiso   1.00
H857   H     0.87062   0.96013   0.29627   0.00000  Uiso   1.00
H858   H     0.79567   0.70615   0.20336   0.00000  Uiso   1.00
H859   H     0.97989   0.78677   0.19745   0.00000  Uiso   1.00
H860   H     0.68695   0.88022   0.30221   0.00000  Uiso   1.00
H861   H     0.73064   0.78655   0.19764   0.00000  Uiso   1.00
H862   H     0.93603   0.88013   0.30235   0.00000  Uiso   1.00
N863   N     0.71426   0.83334   0.25001   0.00000  Uiso   1.00
N864   N     0.95241   0.83332   0.24999   0.00000  Uiso   1.00
O865   O     0.79512   0.89442   0.25000   0.00000  Uiso   1.00
O866   O     0.87154   0.77225   0.24999   0.00000  Uiso   1.00
O867   O     0.87157   0.89441   0.25000   0.00000  Uiso   1.00
O868   O     0.79510   0.77226   0.25000   0.00000  Uiso   1.00
O869   O     0.77328   0.83334   0.31612   0.00000  Uiso   1.00
O870   O     0.89339   0.83333   0.18387   0.00000  Uiso   1.00
O871   O     0.84972   0.83333   0.31612   0.00000  Uiso   1.00
O872   O     0.81695   0.83334   0.18388   0.00000  Uiso   1.00
Zn873  Zn    0.78229   0.83334   0.25000   0.00000  Uiso   1.00
Zn874  Zn    0.88438   0.83333   0.25000   0.00000  Uiso   1.00
O875   O     0.69462   0.80095   0.06048   0.00000  Uiso   1.00
C876   C     0.69286   0.76009   0.07842   0.00000  Uiso   1.00
H877   H     0.71153   0.75890   0.10332   0.00000  Uiso   1.00
H878   H     0.71066   0.73720   0.04955   0.00000  Uiso   1.00
C879   C     0.97230   0.74766   0.10465   0.00000  Uiso   1.00
H880   H     0.95389   0.77063   0.13298   0.00000  Uiso   1.00
H881   H     0.95317   0.74824   0.08017   0.00000  Uiso   1.00
C882   C     0.96765   0.70409   0.12611   0.00000  Uiso   1.00
H883   H     0.98353   0.68022   0.09820   0.00000  Uiso   1.00
H884   H     0.92817   0.69679   0.14626   0.00000  Uiso   1.00
H885   H     0.98709   0.70267   0.15025   0.00000  Uiso   1.00
O886   O     0.97157   0.86696   0.43996   0.00000  Uiso   1.00
C887   C     0.97371   0.90787   0.42211   0.00000  Uiso   1.00
H888   H     0.95625   0.93080   0.45103   0.00000  Uiso   1.00
H889   H     0.95495   0.90937   0.39730   0.00000  Uiso   1.00
C890   C     0.69440   0.91980   0.39580   0.00000  Uiso   1.00
H891   H     0.71341   0.91950   0.42037   0.00000  Uiso   1.00
H892   H     0.71264   0.89643   0.36787   0.00000  Uiso   1.00
C893   C     0.69946   0.96303   0.37356   0.00000  Uiso   1.00
H894   H     0.68075   0.96378   0.34881   0.00000  Uiso   1.00
H895   H     0.73905   0.97031   0.35396   0.00000  Uiso   1.00
H896   H     0.68295   0.98725   0.40095   0.00000  Uiso   1.00
O897   O     0.87918   0.70717   0.30126   0.00000  Uiso   1.00
C898   C     0.93051   0.71232   0.27553   0.00000  Uiso   1.00
H899   H     0.94104   0.74227   0.28710   0.00000  Uiso   1.00
H900   H     0.94099   0.71516   0.23700   0.00000  Uiso   1.00
C901   C     0.96012   0.67697   0.28568   0.00000  Uiso   1.00
H902   H     0.94860   0.67348   0.32411   0.00000  Uiso   1.00
H903   H     0.95323   0.98038   0.27127   0.00000  Uiso   1.00
C904   C     0.68195   0.68595   0.26332   0.00000  Uiso   1.00
H905   H     0.69414   0.69008   0.22491   0.00000  Uiso   1.00
H906   H     0.70263   0.99262   0.26978   0.00000  Uiso   1.00
H907   H     0.69067   0.71470   0.27857   0.00000  Uiso   1.00
O908   O     0.79287   0.95898   0.19376   0.00000  Uiso   1.00
C909   C     0.82998   0.94455   0.15144   0.00000  Uiso   1.00
H910   H     0.81558   0.91627   0.14041   0.00000  Uiso   1.00
H911   H     0.86459   0.93464   0.15511   0.00000  Uiso   1.00
C912   C     0.84139   0.97773   0.11303   0.00000  Uiso   1.00
H913   H     0.80677   0.98707   0.10939   0.00000  Uiso   1.00
H914   H     0.85725   0.67254   0.12272   0.00000  Uiso   1.00
C915   C     0.87799   0.96119   0.06615   0.00000  Uiso   1.00
H916   H     0.91306   0.95197   0.06891   0.00000  Uiso   1.00
H917   H     0.88591   0.98599   0.03914   0.00000  Uiso   1.00
H918   H     0.86240   0.93372   0.05497   0.00000  Uiso   1.00
C919   C     0.16680   0.24658   0.74948   0.00000  Uiso   1.00
C920   C     0.16671   0.08665   0.75045   0.00000  Uiso   1.00
C921   C     0.11006   0.15294   0.55210   0.00000  Uiso   1.00
C922   C     0.22270   0.18216   0.94832   0.00000  Uiso   1.00
C923   C     0.07615   0.14436   0.53224   0.00000  Uiso   1.00
C924   C     0.25664   0.19056   0.96819   0.00000  Uiso   1.00
C925   C     0.18944   0.31093   0.77456   0.00000  Uiso   1.00
C926   C     0.14608   0.02208   0.72301   0.00000  Uiso   1.00
C927   C     0.19186   0.02046   0.77389   0.00000  Uiso   1.00
C928   C     0.14746   0.31246   0.72057   0.00000  Uiso   1.00
C929   C     0.16798   0.04246   0.74955   0.00000  Uiso   1.00
C930   C     0.16758   0.29062   0.74812   0.00000  Uiso   1.00
C931   C     0.32160   0.14084   0.72073   0.00000  Uiso   1.00
C932   C     0.01183   0.19269   0.77906   0.00000  Uiso   1.00
C933   C     0.03615   0.14072   0.72087   0.00000  Uiso   1.00
C934   C     0.29721   0.19265   0.77909   0.00000  Uiso   1.00
C935   C     0.13574   0.16684   0.83809   0.00000  Uiso   1.00
C936   C     0.19757   0.16656   0.66194   0.00000  Uiso   1.00
C937   C     0.11610   0.16522   0.88891   0.00000  Uiso   1.00
C938   C     0.21708   0.16868   0.61119   0.00000  Uiso   1.00
C939   C     0.05615   0.14236   0.96335   0.00000  Uiso   1.00
C940   C     0.27672   0.19229   0.53701   0.00000  Uiso   1.00
C941   C     0.06994   0.14838   0.91547   0.00000  Uiso   1.00
C942   C     0.26306   0.18588   0.58480   0.00000  Uiso   1.00
C943   C     0.14753   0.17682   0.91026   0.00000  Uiso   1.00
C944   C     0.18551   0.15746   0.58985   0.00000  Uiso   1.00
C945   C     0.13723   0.16651   0.95674   0.00000  Uiso   1.00
C946   C     0.19561   0.16829   0.54357   0.00000  Uiso   1.00
C947   C     0.08960   0.15095   0.98435   0.00000  Uiso   1.00
C948   C     0.24323   0.18385   0.51603   0.00000  Uiso   1.00
C949   C     0.17319   0.17129   0.97607   0.00000  Uiso   1.00
C950   C     0.15958   0.16377   0.52432   0.00000  Uiso   1.00
H951   H     0.15257   0.14071   0.61067   0.00000  Uiso   1.00
H952   H     0.18053   0.19339   0.88925   0.00000  Uiso   1.00
H953   H     0.28783   0.19497   0.60115   0.00000  Uiso   1.00
H954   H     0.04514   0.13923   0.89917   0.00000  Uiso   1.00
H955   H     0.02005   0.12959   0.98347   0.00000  Uiso   1.00
H956   H     0.31274   0.20525   0.51697   0.00000  Uiso   1.00
H957   H     0.09589   0.15175   0.58972   0.00000  Uiso   1.00
H958   H     0.23692   0.18344   0.91071   0.00000  Uiso   1.00
H959   H     0.20396   0.29346   0.79627   0.00000  Uiso   1.00
H960   H     0.12901   0.03949   0.70336   0.00000  Uiso   1.00
H961   H     0.31322   0.12011   0.69745   0.00000  Uiso   1.00
H962   H     0.02028   0.21355   0.80221   0.00000  Uiso   1.00
H963   H     0.06398   0.11988   0.69764   0.00000  Uiso   1.00
H964   H     0.26936   0.21346   0.80235   0.00000  Uiso   1.00
N965   N     0.04759   0.16668   0.75001   0.00000  Uiso   1.00
N966   N     0.28574   0.16666   0.74999   0.00000  Uiso   1.00
O967   O     0.12846   0.22775   0.75000   0.00000  Uiso   1.00
O968   O     0.20488   0.10558   0.74999   0.00000  Uiso   1.00
O969   O     0.20490   0.22774   0.75000   0.00000  Uiso   1.00
O970   O     0.12843   0.10559   0.75000   0.00000  Uiso   1.00
O971   O     0.10661   0.16667   0.81612   0.00000  Uiso   1.00
O972   O     0.22672   0.16666   0.68387   0.00000  Uiso   1.00
O973   O     0.18305   0.16666   0.81612   0.00000  Uiso   1.00
O974   O     0.15028   0.16667   0.68388   0.00000  Uiso   1.00
Zn975  Zn    0.11562   0.16667   0.75000   0.00000  Uiso   1.00
Zn976  Zn    0.21771   0.16666   0.75000   0.00000  Uiso   1.00
O977   O     0.02795   0.13428   0.56048   0.00000  Uiso   1.00
C978   C     0.02620   0.09342   0.57842   0.00000  Uiso   1.00
H979   H     0.04487   0.09223   0.60332   0.00000  Uiso   1.00
H980   H     0.04400   0.07054   0.54955   0.00000  Uiso   1.00
C981   C     0.30563   0.08100   0.60465   0.00000  Uiso   1.00
H982   H     0.28723   0.10396   0.63298   0.00000  Uiso   1.00
H983   H     0.28650   0.08158   0.58017   0.00000  Uiso   1.00
C984   C     0.30098   0.03742   0.62611   0.00000  Uiso   1.00
H985   H     0.31686   0.01355   0.59820   0.00000  Uiso   1.00
H986   H     0.26151   0.03012   0.64626   0.00000  Uiso   1.00
H987   H     0.32043   0.03600   0.65025   0.00000  Uiso   1.00
O988   O     0.30491   0.20029   0.93996   0.00000  Uiso   1.00
C989   C     0.30704   0.24121   0.92211   0.00000  Uiso   1.00
H990   H     0.28959   0.26413   0.95103   0.00000  Uiso   1.00
H991   H     0.28828   0.24270   0.89730   0.00000  Uiso   1.00
C992   C     0.02773   0.25314   0.89580   0.00000  Uiso   1.00
H993   H     0.04674   0.25284   0.92037   0.00000  Uiso   1.00
H994   H     0.04597   0.22977   0.86787   0.00000  Uiso   1.00
C995   C     0.03280   0.29637   0.87356   0.00000  Uiso   1.00
H996   H     0.01408   0.29711   0.84881   0.00000  Uiso   1.00
H997   H     0.07239   0.30364   0.85396   0.00000  Uiso   1.00
H998   H     0.01628   0.32058   0.90095   0.00000  Uiso   1.00
O999   O     0.21252   0.04050   0.80126   0.00000  Uiso   1.00
C1000  C     0.26384   0.04565   0.77553   0.00000  Uiso   1.00
H1001  H     0.27437   0.07560   0.78710   0.00000  Uiso   1.00
H1002  H     0.27433   0.04849   0.73700   0.00000  Uiso   1.00
C1003  C     0.29346   0.01031   0.78568   0.00000  Uiso   1.00
H1004  H     0.28193   0.00682   0.82411   0.00000  Uiso   1.00
H1005  H     0.28657   0.31371   0.77127   0.00000  Uiso   1.00
C1006  C     0.01528   0.01929   0.76332   0.00000  Uiso   1.00
H1007  H     0.02747   0.02341   0.72491   0.00000  Uiso   1.00
H1008  H     0.03597   0.32596   0.76978   0.00000  Uiso   1.00
H1009  H     0.02401   0.04803   0.77857   0.00000  Uiso   1.00
O1010  O     0.12620   0.29231   0.69376   0.00000  Uiso   1.00
C1011  C     0.16332   0.27788   0.65144   0.00000  Uiso   1.00
H1012  H     0.14891   0.24960   0.64041   0.00000  Uiso   1.00
H1013  H     0.19792   0.26798   0.65511   0.00000  Uiso   1.00
C1014  C     0.17472   0.31107   0.61303   0.00000  Uiso   1.00
H1015  H     0.14011   0.32040   0.60939   0.00000  Uiso   1.00
H1016  H     0.19058   0.00587   0.62272   0.00000  Uiso   1.00
C1017  C     0.21132   0.29453   0.56615   0.00000  Uiso   1.00
H1018  H     0.24639   0.28531   0.56891   0.00000  Uiso   1.00
H1019  H     0.21924   0.31932   0.53914   0.00000  Uiso   1.00
H1020  H     0.19573   0.26705   0.55497   0.00000  Uiso   1.00
C1021  C     0.50014   0.24658   0.74948   0.00000  Uiso   1.00
C1022  C     0.50004   0.08665   0.75045   0.00000  Uiso   1.00
C1023  C     0.44340   0.15294   0.55210   0.00000  Uiso   1.00
C1024  C     0.55603   0.18216   0.94832   0.00000  Uiso   1.00
C1025  C     0.40948   0.14436   0.53224   0.00000  Uiso   1.00
C1026  C     0.58997   0.19056   0.96819   0.00000  Uiso   1.00
C1027  C     0.52277   0.31093   0.77456   0.00000  Uiso   1.00
C1028  C     0.47942   0.02208   0.72301   0.00000  Uiso   1.00
C1029  C     0.52519   0.02046   0.77389   0.00000  Uiso   1.00
C1030  C     0.48079   0.31246   0.72057   0.00000  Uiso   1.00
C1031  C     0.50131   0.04246   0.74955   0.00000  Uiso   1.00
C1032  C     0.50091   0.29062   0.74812   0.00000  Uiso   1.00
C1033  C     0.65494   0.14084   0.72073   0.00000  Uiso   1.00
C1034  C     0.34516   0.19269   0.77906   0.00000  Uiso   1.00
C1035  C     0.36948   0.14072   0.72087   0.00000  Uiso   1.00
C1036  C     0.63054   0.19265   0.77909   0.00000  Uiso   1.00
C1037  C     0.46908   0.16684   0.83809   0.00000  Uiso   1.00
C1038  C     0.53090   0.16656   0.66194   0.00000  Uiso   1.00
C1039  C     0.44943   0.16522   0.88891   0.00000  Uiso   1.00
C1040  C     0.55041   0.16868   0.61119   0.00000  Uiso   1.00
C1041  C     0.38948   0.14236   0.96335   0.00000  Uiso   1.00
C1042  C     0.61005   0.19229   0.53701   0.00000  Uiso   1.00
C1043  C     0.40327   0.14838   0.91547   0.00000  Uiso   1.00
C1044  C     0.59639   0.18588   0.58480   0.00000  Uiso   1.00
C1045  C     0.48086   0.17682   0.91026   0.00000  Uiso   1.00
C1046  C     0.51884   0.15746   0.58985   0.00000  Uiso   1.00
C1047  C     0.47056   0.16651   0.95674   0.00000  Uiso   1.00
C1048  C     0.52894   0.16829   0.54357   0.00000  Uiso   1.00
C1049  C     0.42293   0.15095   0.98435   0.00000  Uiso   1.00
C1050  C     0.57656   0.18385   0.51603   0.00000  Uiso   1.00
C1051  C     0.50652   0.17129   0.97607   0.00000  Uiso   1.00
C1052  C     0.49291   0.16377   0.52432   0.00000  Uiso   1.00
H1053  H     0.48590   0.14071   0.61067   0.00000  Uiso   1.00
H1054  H     0.51386   0.19339   0.88925   0.00000  Uiso   1.00
H1055  H     0.62116   0.19497   0.60115   0.00000  Uiso   1.00
H1056  H     0.37847   0.13923   0.89917   0.00000  Uiso   1.00
H1057  H     0.35338   0.12959   0.98347   0.00000  Uiso   1.00
H1058  H     0.64607   0.20525   0.51697   0.00000  Uiso   1.00
H1059  H     0.42923   0.15175   0.58972   0.00000  Uiso   1.00
H1060  H     0.57026   0.18344   0.91071   0.00000  Uiso   1.00
H1061  H     0.53729   0.29346   0.79627   0.00000  Uiso   1.00
H1062  H     0.46234   0.03949   0.70336   0.00000  Uiso   1.00
H1063  H     0.64656   0.12011   0.69745   0.00000  Uiso   1.00
H1064  H     0.35361   0.21355   0.80221   0.00000  Uiso   1.00
H1065  H     0.39731   0.11988   0.69764   0.00000  Uiso   1.00
H1066  H     0.60269   0.21346   0.80235   0.00000  Uiso   1.00
N1067  N     0.38093   0.16668   0.75001   0.00000  Uiso   1.00
N1068  N     0.61907   0.16666   0.74999   0.00000  Uiso   1.00
O1069  O     0.46179   0.22775   0.75000   0.00000  Uiso   1.00
O1070  O     0.53821   0.10558   0.74999   0.00000  Uiso   1.00
O1071  O     0.53823   0.22774   0.75000   0.00000  Uiso   1.00
O1072  O     0.46177   0.10559   0.75000   0.00000  Uiso   1.00
O1073  O     0.43994   0.16667   0.81612   0.00000  Uiso   1.00
O1074  O     0.56006   0.16666   0.68387   0.00000  Uiso   1.00
O1075  O     0.51639   0.16666   0.81612   0.00000  Uiso   1.00
O1076  O     0.48361   0.16667   0.68388   0.00000  Uiso   1.00
Zn1077 Zn    0.44896   0.16667   0.75000   0.00000  Uiso   1.00
Zn1078 Zn    0.55104   0.16666   0.75000   0.00000  Uiso   1.00
O1079  O     0.36128   0.13428   0.56048   0.00000  Uiso   1.00
C1080  C     0.35953   0.09342   0.57842   0.00000  Uiso   1.00
H1081  H     0.37820   0.09223   0.60332   0.00000  Uiso   1.00
H1082  H     0.37733   0.07054   0.54955   0.00000  Uiso   1.00
C1083  C     0.63896   0.08100   0.60465   0.00000  Uiso   1.00
H1084  H     0.62056   0.10396   0.63298   0.00000  Uiso   1.00
H1085  H     0.61984   0.08158   0.58017   0.00000  Uiso   1.00
C1086  C     0.63431   0.03742   0.62611   0.00000  Uiso   1.00
H1087  H     0.65019   0.01355   0.59820   0.00000  Uiso   1.00
H1088  H     0.59484   0.03012   0.64626   0.00000  Uiso   1.00
H1089  H     0.65376   0.03600   0.65025   0.00000  Uiso   1.00
O1090  O     0.63824   0.20029   0.93996   0.00000  Uiso   1.00
C1091  C     0.64038   0.24121   0.92211   0.00000  Uiso   1.00
H1092  H     0.62292   0.26413   0.95103   0.00000  Uiso   1.00
H1093  H     0.62162   0.24270   0.89730   0.00000  Uiso   1.00
C1094  C     0.36106   0.25314   0.89580   0.00000  Uiso   1.00
H1095  H     0.38007   0.25284   0.92037   0.00000  Uiso   1.00
H1096  H     0.37930   0.22977   0.86787   0.00000  Uiso   1.00
C1097  C     0.36613   0.29637   0.87356   0.00000  Uiso   1.00
H1098  H     0.34742   0.29711   0.84881   0.00000  Uiso   1.00
H1099  H     0.40572   0.30364   0.85396   0.00000  Uiso   1.00
H1100  H     0.34962   0.32058   0.90095   0.00000  Uiso   1.00
O1101  O     0.54585   0.04050   0.80126   0.00000  Uiso   1.00
C1102  C     0.59718   0.04565   0.77553   0.00000  Uiso   1.00
H1103  H     0.60770   0.07560   0.78710   0.00000  Uiso   1.00
H1104  H     0.60766   0.04849   0.73700   0.00000  Uiso   1.00
C1105  C     0.62679   0.01031   0.78568   0.00000  Uiso   1.00
H1106  H     0.61526   0.00682   0.82411   0.00000  Uiso   1.00
H1107  H     0.61990   0.31371   0.77127   0.00000  Uiso   1.00
C1108  C     0.34862   0.01929   0.76332   0.00000  Uiso   1.00
H1109  H     0.36081   0.02341   0.72491   0.00000  Uiso   1.00
H1110  H     0.36930   0.32596   0.76978   0.00000  Uiso   1.00
H1111  H     0.35734   0.04803   0.77857   0.00000  Uiso   1.00
O1112  O     0.45953   0.29231   0.69376   0.00000  Uiso   1.00
C1113  C     0.49665   0.27788   0.65144   0.00000  Uiso   1.00
H1114  H     0.48225   0.24960   0.64041   0.00000  Uiso   1.00
H1115  H     0.53125   0.26798   0.65511   0.00000  Uiso   1.00
C1116  C     0.50806   0.31107   0.61303   0.00000  Uiso   1.00
H1117  H     0.47344   0.32040   0.60939   0.00000  Uiso   1.00
H1118  H     0.52392   0.00587   0.62272   0.00000  Uiso   1.00
C1119  C     0.54465   0.29453   0.56615   0.00000  Uiso   1.00
H1120  H     0.57972   0.28531   0.56891   0.00000  Uiso   1.00
H1121  H     0.55258   0.31932   0.53914   0.00000  Uiso   1.00
H1122  H     0.52906   0.26705   0.55497   0.00000  Uiso   1.00
C1123  C     0.83347   0.24658   0.74948   0.00000  Uiso   1.00
C1124  C     0.83338   0.08665   0.75045   0.00000  Uiso   1.00
C1125  C     0.77673   0.15294   0.55210   0.00000  Uiso   1.00
C1126  C     0.88936   0.18216   0.94832   0.00000  Uiso   1.00
C1127  C     0.74281   0.14436   0.53224   0.00000  Uiso   1.00
C1128  C     0.92330   0.19056   0.96819   0.00000  Uiso   1.00
C1129  C     0.85611   0.31093   0.77456   0.00000  Uiso   1.00
C1130  C     0.81275   0.02208   0.72301   0.00000  Uiso   1.00
C1131  C     0.85853   0.02046   0.77389   0.00000  Uiso   1.00
C1132  C     0.81412   0.31246   0.72057   0.00000  Uiso   1.00
C1133  C     0.83464   0.04246   0.74955   0.00000  Uiso   1.00
C1134  C     0.83424   0.29062   0.74812   0.00000  Uiso   1.00
C1135  C     0.98827   0.14084   0.72073   0.00000  Uiso   1.00
C1136  C     0.67850   0.19269   0.77906   0.00000  Uiso   1.00
C1137  C     0.70281   0.14072   0.72087   0.00000  Uiso   1.00
C1138  C     0.96388   0.19265   0.77909   0.00000  Uiso   1.00
C1139  C     0.80241   0.16684   0.83809   0.00000  Uiso   1.00
C1140  C     0.86423   0.16656   0.66194   0.00000  Uiso   1.00
C1141  C     0.78277   0.16522   0.88891   0.00000  Uiso   1.00
C1142  C     0.88374   0.16868   0.61119   0.00000  Uiso   1.00
C1143  C     0.72282   0.14236   0.96335   0.00000  Uiso   1.00
C1144  C     0.94339   0.19229   0.53701   0.00000  Uiso   1.00
C1145  C     0.73661   0.14838   0.91547   0.00000  Uiso   1.00
C1146  C     0.92973   0.18588   0.58480   0.00000  Uiso   1.00
C1147  C     0.81419   0.17682   0.91026   0.00000  Uiso   1.00
C1148  C     0.85218   0.15746   0.58985   0.00000  Uiso   1.00
C1149  C     0.80390   0.16651   0.95674   0.00000  Uiso   1.00
C1150  C     0.86228   0.16829   0.54357   0.00000  Uiso   1.00
C1151  C     0.75626   0.15095   0.98435   0.00000  Uiso   1.00
C1152  C     0.90989   0.18385   0.51603   0.00000  Uiso   1.00
C1153  C     0.83985   0.17129   0.97607   0.00000  Uiso   1.00
C1154  C     0.82624   0.16377   0.52432   0.00000  Uiso   1.00
H1155  H     0.81923   0.14071   0.61067   0.00000  Uiso   1.00
H1156  H     0.84720   0.19339   0.88925   0.00000  Uiso   1.00
H1157  H     0.95450   0.19497   0.60115   0.00000  Uiso   1.00
H1158  H     0.71180   0.13923   0.89917   0.00000  Uiso   1.00
H1159  H     0.68671   0.12959   0.98347   0.00000  Uiso   1.00
H1160  H     0.97940   0.20525   0.51697   0.00000  Uiso   1.00
H1161  H     0.76256   0.15175   0.58972   0.00000  Uiso   1.00
H1162  H     0.90359   0.18344   0.91071   0.00000  Uiso   1.00
H1163  H     0.87062   0.29346   0.79627   0.00000  Uiso   1.00
H1164  H     0.79567   0.03949   0.70336   0.00000  Uiso   1.00
H1165  H     0.97989   0.12011   0.69745   0.00000  Uiso   1.00
H1166  H     0.68695   0.21355   0.80221   0.00000  Uiso   1.00
H1167  H     0.73064   0.11988   0.69764   0.00000  Uiso   1.00
H1168  H     0.93603   0.21346   0.80235   0.00000  Uiso   1.00
N1169  N     0.71426   0.16668   0.75001   0.00000  Uiso   1.00
N1170  N     0.95241   0.16666   0.74999   0.00000  Uiso   1.00
O1171  O     0.79512   0.22775   0.75000   0.00000  Uiso   1.00
O1172  O     0.87154   0.10558   0.74999   0.00000  Uiso   1.00
O1173  O     0.87157   0.22774   0.75000   0.00000  Uiso   1.00
O1174  O     0.79510   0.10559   0.75000   0.00000  Uiso   1.00
O1175  O     0.77328   0.16667   0.81612   0.00000  Uiso   1.00
O1176  O     0.89339   0.16666   0.68387   0.00000  Uiso   1.00
O1177  O     0.84972   0.16666   0.81612   0.00000  Uiso   1.00
O1178  O     0.81695   0.16667   0.68388   0.00000  Uiso   1.00
Zn1179 Zn    0.78229   0.16667   0.75000   0.00000  Uiso   1.00
Zn1180 Zn    0.88438   0.16666   0.75000   0.00000  Uiso   1.00
O1181  O     0.69462   0.13428   0.56048   0.00000  Uiso   1.00
C1182  C     0.69286   0.09342   0.57842   0.00000  Uiso   1.00
H1183  H     0.71153   0.09223   0.60332   0.00000  Uiso   1.00
H1184  H     0.71066   0.07054   0.54955   0.00000  Uiso   1.00
C1185  C     0.97230   0.08100   0.60465   0.00000  Uiso   1.00
H1186  H     0.95389   0.10396   0.63298   0.00000  Uiso   1.00
H1187  H     0.95317   0.08158   0.58017   0.00000  Uiso   1.00
C1188  C     0.96765   0.03742   0.62611   0.00000  Uiso   1.00
H1189  H     0.98353   0.01355   0.59820   0.00000  Uiso   1.00
H1190  H     0.92817   0.03012   0.64626   0.00000  Uiso   1.00
H1191  H     0.98709   0.03600   0.65025   0.00000  Uiso   1.00
O1192  O     0.97157   0.20029   0.93996   0.00000  Uiso   1.00
C1193  C     0.97371   0.24121   0.92211   0.00000  Uiso   1.00
H1194  H     0.95625   0.26413   0.95103   0.00000  Uiso   1.00
H1195  H     0.95495   0.24270   0.89730   0.00000  Uiso   1.00
C1196  C     0.69440   0.25314   0.89580   0.00000  Uiso   1.00
H1197  H     0.71341   0.25284   0.92037   0.00000  Uiso   1.00
H1198  H     0.71264   0.22977   0.86787   0.00000  Uiso   1.00
C1199  C     0.69946   0.29637   0.87356   0.00000  Uiso   1.00
H1200  H     0.68075   0.29711   0.84881   0.00000  Uiso   1.00
H1201  H     0.73905   0.30364   0.85396   0.00000  Uiso   1.00
H1202  H     0.68295   0.32058   0.90095   0.00000  Uiso   1.00
O1203  O     0.87918   0.04050   0.80126   0.00000  Uiso   1.00
C1204  C     0.93051   0.04565   0.77553   0.00000  Uiso   1.00
H1205  H     0.94104   0.07560   0.78710   0.00000  Uiso   1.00
H1206  H     0.94099   0.04849   0.73700   0.00000  Uiso   1.00
C1207  C     0.96012   0.01031   0.78568   0.00000  Uiso   1.00
H1208  H     0.94860   0.00682   0.82411   0.00000  Uiso   1.00
H1209  H     0.95323   0.31371   0.77127   0.00000  Uiso   1.00
C1210  C     0.68195   0.01929   0.76332   0.00000  Uiso   1.00
H1211  H     0.69414   0.02341   0.72491   0.00000  Uiso   1.00
H1212  H     0.70263   0.32596   0.76978   0.00000  Uiso   1.00
H1213  H     0.69067   0.04803   0.77857   0.00000  Uiso   1.00
O1214  O     0.79287   0.29231   0.69376   0.00000  Uiso   1.00
C1215  C     0.82998   0.27788   0.65144   0.00000  Uiso   1.00
H1216  H     0.81558   0.24960   0.64041   0.00000  Uiso   1.00
H1217  H     0.86459   0.26798   0.65511   0.00000  Uiso   1.00
C1218  C     0.84139   0.31107   0.61303   0.00000  Uiso   1.00
H1219  H     0.80677   0.32040   0.60939   0.00000  Uiso   1.00
H1220  H     0.85725   0.00587   0.62272   0.00000  Uiso   1.00
C1221  C     0.87799   0.29453   0.56615   0.00000  Uiso   1.00
H1222  H     0.91306   0.28531   0.56891   0.00000  Uiso   1.00
H1223  H     0.88591   0.31932   0.53914   0.00000  Uiso   1.00
H1224  H     0.86240   0.26705   0.55497   0.00000  Uiso   1.00
C1225  C     0.16680   0.57991   0.74948   0.00000  Uiso   1.00
C1226  C     0.16671   0.41998   0.75045   0.00000  Uiso   1.00
C1227  C     0.11006   0.48628   0.55210   0.00000  Uiso   1.00
C1228  C     0.22270   0.51549   0.94832   0.00000  Uiso   1.00
C1229  C     0.07615   0.47769   0.53224   0.00000  Uiso   1.00
C1230  C     0.25664   0.52389   0.96819   0.00000  Uiso   1.00
C1231  C     0.18944   0.64426   0.77456   0.00000  Uiso   1.00
C1232  C     0.14608   0.35541   0.72301   0.00000  Uiso   1.00
C1233  C     0.19186   0.35379   0.77389   0.00000  Uiso   1.00
C1234  C     0.14746   0.64579   0.72057   0.00000  Uiso   1.00
C1235  C     0.16798   0.37579   0.74955   0.00000  Uiso   1.00
C1236  C     0.16758   0.62395   0.74812   0.00000  Uiso   1.00
C1237  C     0.32160   0.47418   0.72073   0.00000  Uiso   1.00
C1238  C     0.01183   0.52602   0.77906   0.00000  Uiso   1.00
C1239  C     0.03615   0.47406   0.72087   0.00000  Uiso   1.00
C1240  C     0.29721   0.52599   0.77909   0.00000  Uiso   1.00
C1241  C     0.13574   0.50017   0.83809   0.00000  Uiso   1.00
C1242  C     0.19757   0.49989   0.66194   0.00000  Uiso   1.00
C1243  C     0.11610   0.49856   0.88891   0.00000  Uiso   1.00
C1244  C     0.21708   0.50201   0.61119   0.00000  Uiso   1.00
C1245  C     0.05615   0.47569   0.96335   0.00000  Uiso   1.00
C1246  C     0.27672   0.52562   0.53701   0.00000  Uiso   1.00
C1247  C     0.06994   0.48171   0.91547   0.00000  Uiso   1.00
C1248  C     0.26306   0.51921   0.58480   0.00000  Uiso   1.00
C1249  C     0.14753   0.51015   0.91026   0.00000  Uiso   1.00
C1250  C     0.18551   0.49080   0.58985   0.00000  Uiso   1.00
C1251  C     0.13723   0.49984   0.95674   0.00000  Uiso   1.00
C1252  C     0.19561   0.50162   0.54357   0.00000  Uiso   1.00
C1253  C     0.08960   0.48428   0.98435   0.00000  Uiso   1.00
C1254  C     0.24323   0.51719   0.51603   0.00000  Uiso   1.00
C1255  C     0.17319   0.50462   0.97607   0.00000  Uiso   1.00
C1256  C     0.15958   0.49710   0.52432   0.00000  Uiso   1.00
H1257  H     0.15257   0.47405   0.61067   0.00000  Uiso   1.00
H1258  H     0.18053   0.52672   0.88925   0.00000  Uiso   1.00
H1259  H     0.28783   0.52830   0.60115   0.00000  Uiso   1.00
H1260  H     0.04514   0.47256   0.89917   0.00000  Uiso   1.00
H1261  H     0.02005   0.46292   0.98347   0.00000  Uiso   1.00
H1262  H     0.31274   0.53858   0.51697   0.00000  Uiso   1.00
H1263  H     0.09589   0.48508   0.58972   0.00000  Uiso   1.00
H1264  H     0.23692   0.51678   0.91071   0.00000  Uiso   1.00
H1265  H     0.20396   0.62680   0.79627   0.00000  Uiso   1.00
H1266  H     0.12901   0.37282   0.70336   0.00000  Uiso   1.00
H1267  H     0.31322   0.45344   0.69745   0.00000  Uiso   1.00
H1268  H     0.02028   0.54688   0.80221   0.00000  Uiso   1.00
H1269  H     0.06398   0.45321   0.69764   0.00000  Uiso   1.00
H1270  H     0.26936   0.54680   0.80235   0.00000  Uiso   1.00
N1271  N     0.04759   0.50001   0.75001   0.00000  Uiso   1.00
N1272  N     0.28574   0.49999   0.74999   0.00000  Uiso   1.00
O1273  O     0.12846   0.56108   0.75000   0.00000  Uiso   1.00
O1274  O     0.20488   0.43892   0.74999   0.00000  Uiso   1.00
O1275  O     0.20490   0.56107   0.75000   0.00000  Uiso   1.00
O1276  O     0.12843   0.43893   0.75000   0.00000  Uiso   1.00
O1277  O     0.10661   0.50001   0.81612   0.00000  Uiso   1.00
O1278  O     0.22672   0.49999   0.68387   0.00000  Uiso   1.00
O1279  O     0.18305   0.50000   0.81612   0.00000  Uiso   1.00
O1280  O     0.15028   0.50000   0.68388   0.00000  Uiso   1.00
Zn1281 Zn    0.11562   0.50001   0.75000   0.00000  Uiso   1.00
Zn1282 Zn    0.21771   0.49999   0.75000   0.00000  Uiso   1.00
O1283  O     0.02795   0.46762   0.56048   0.00000  Uiso   1.00
C1284  C     0.02620   0.42675   0.57842   0.00000  Uiso   1.00
H1285  H     0.04487   0.42557   0.60332   0.00000  Uiso   1.00
H1286  H     0.04400   0.40387   0.54955   0.00000  Uiso   1.00
C1287  C     0.30563   0.41433   0.60465   0.00000  Uiso   1.00
H1288  H     0.28723   0.43730   0.63298   0.00000  Uiso   1.00
H1289  H     0.28650   0.41491   0.58017   0.00000  Uiso   1.00
C1290  C     0.30098   0.37076   0.62611   0.00000  Uiso   1.00
H1291  H     0.31686   0.34689   0.59820   0.00000  Uiso   1.00
H1292  H     0.26151   0.36345   0.64626   0.00000  Uiso   1.00
H1293  H     0.32043   0.36933   0.65025   0.00000  Uiso   1.00
O1294  O     0.30491   0.53362   0.93996   0.00000  Uiso   1.00
C1295  C     0.30704   0.57454   0.92211   0.00000  Uiso   1.00
H1296  H     0.28959   0.59746   0.95103   0.00000  Uiso   1.00
H1297  H     0.28828   0.57603   0.89730   0.00000  Uiso   1.00
C1298  C     0.02773   0.58647   0.89580   0.00000  Uiso   1.00
H1299  H     0.04674   0.58617   0.92037   0.00000  Uiso   1.00
H1300  H     0.04597   0.56310   0.86787   0.00000  Uiso   1.00
C1301  C     0.03280   0.62970   0.87356   0.00000  Uiso   1.00
H1302  H     0.01408   0.63045   0.84881   0.00000  Uiso   1.00
H1303  H     0.07239   0.63697   0.85396   0.00000  Uiso   1.00
H1304  H     0.01628   0.65391   0.90095   0.00000  Uiso   1.00
O1305  O     0.21252   0.37384   0.80126   0.00000  Uiso   1.00
C1306  C     0.26384   0.37898   0.77553   0.00000  Uiso   1.00
H1307  H     0.27437   0.40893   0.78710   0.00000  Uiso   1.00
H1308  H     0.27433   0.38183   0.73700   0.00000  Uiso   1.00
C1309  C     0.29346   0.34364   0.78568   0.00000  Uiso   1.00
H1310  H     0.28193   0.34015   0.82411   0.00000  Uiso   1.00
H1311  H     0.28657   0.64705   0.77127   0.00000  Uiso   1.00
C1312  C     0.01528   0.35262   0.76332   0.00000  Uiso   1.00
H1313  H     0.02747   0.35675   0.72491   0.00000  Uiso   1.00
H1314  H     0.03597   0.65929   0.76978   0.00000  Uiso   1.00
H1315  H     0.02401   0.38137   0.77857   0.00000  Uiso   1.00
O1316  O     0.12620   0.62565   0.69376   0.00000  Uiso   1.00
C1317  C     0.16332   0.61122   0.65144   0.00000  Uiso   1.00
H1318  H     0.14891   0.58294   0.64041   0.00000  Uiso   1.00
H1319  H     0.19792   0.60131   0.65511   0.00000  Uiso   1.00
C1320  C     0.17472   0.64440   0.61303   0.00000  Uiso   1.00
H1321  H     0.14011   0.65374   0.60939   0.00000  Uiso   1.00
H1322  H     0.19058   0.33920   0.62272   0.00000  Uiso   1.00
C1323  C     0.21132   0.62786   0.56615   0.00000  Uiso   1.00
H1324  H     0.24639   0.61864   0.56891   0.00000  Uiso   1.00
H1325  H     0.21924   0.65265   0.53914   0.00000  Uiso   1.00
H1326  H     0.19573   0.60039   0.55497   0.00000  Uiso   1.00
C1327  C     0.50014   0.57991   0.74948   0.00000  Uiso   1.00
C1328  C     0.50004   0.41998   0.75045   0.00000  Uiso   1.00
C1329  C     0.44340   0.48628   0.55210   0.00000  Uiso   1.00
C1330  C     0.55603   0.51549   0.94832   0.00000  Uiso   1.00
C1331  C     0.40948   0.47769   0.53224   0.00000  Uiso   1.00
C1332  C     0.58997   0.52389   0.96819   0.00000  Uiso   1.00
C1333  C     0.52277   0.64426   0.77456   0.00000  Uiso   1.00
C1334  C     0.47942   0.35541   0.72301   0.00000  Uiso   1.00
C1335  C     0.52519   0.35379   0.77389   0.00000  Uiso   1.00
C1336  C     0.48079   0.64579   0.72057   0.00000  Uiso   1.00
C1337  C     0.50131   0.37579   0.74955   0.00000  Uiso   1.00
C1338  C     0.50091   0.62395   0.74812   0.00000  Uiso   1.00
C1339  C     0.65494   0.47418   0.72073   0.00000  Uiso   1.00
C1340  C     0.34516   0.52602   0.77906   0.00000  Uiso   1.00
C1341  C     0.36948   0.47406   0.72087   0.00000  Uiso   1.00
C1342  C     0.63054   0.52599   0.77909   0.00000  Uiso   1.00
C1343  C     0.46908   0.50017   0.83809   0.00000  Uiso   1.00
C1344  C     0.53090   0.49989   0.66194   0.00000  Uiso   1.00
C1345  C     0.44943   0.49856   0.88891   0.00000  Uiso   1.00
C1346  C     0.55041   0.50201   0.61119   0.00000  Uiso   1.00
C1347  C     0.38948   0.47569   0.96335   0.00000  Uiso   1.00
C1348  C     0.61005   0.52562   0.53701   0.00000  Uiso   1.00
C1349  C     0.40327   0.48171   0.91547   0.00000  Uiso   1.00
C1350  C     0.59639   0.51921   0.58480   0.00000  Uiso   1.00
C1351  C     0.48086   0.51015   0.91026   0.00000  Uiso   1.00
C1352  C     0.51884   0.49080   0.58985   0.00000  Uiso   1.00
C1353  C     0.47056   0.49984   0.95674   0.00000  Uiso   1.00
C1354  C     0.52894   0.50162   0.54357   0.00000  Uiso   1.00
C1355  C     0.42293   0.48428   0.98435   0.00000  Uiso   1.00
C1356  C     0.57656   0.51719   0.51603   0.00000  Uiso   1.00
C1357  C     0.50652   0.50462   0.97607   0.00000  Uiso   1.00
C1358  C     0.49291   0.49710   0.52432   0.00000  Uiso   1.00
H1359  H     0.48590   0.47405   0.61067   0.00000  Uiso   1.00
H1360  H     0.51386   0.52672   0.88925   0.00000  Uiso   1.00
H1361  H     0.62116   0.52830   0.60115   0.00000  Uiso   1.00
H1362  H     0.37847   0.47256   0.89917   0.00000  Uiso   1.00
H1363  H     0.35338   0.46292   0.98347   0.00000  Uiso   1.00
H1364  H     0.64607   0.53858   0.51697   0.00000  Uiso   1.00
H1365  H     0.42923   0.48508   0.58972   0.00000  Uiso   1.00
H1366  H     0.57026   0.51678   0.91071   0.00000  Uiso   1.00
H1367  H     0.53729   0.62680   0.79627   0.00000  Uiso   1.00
H1368  H     0.46234   0.37282   0.70336   0.00000  Uiso   1.00
H1369  H     0.64656   0.45344   0.69745   0.00000  Uiso   1.00
H1370  H     0.35361   0.54688   0.80221   0.00000  Uiso   1.00
H1371  H     0.39731   0.45321   0.69764   0.00000  Uiso   1.00
H1372  H     0.60269   0.54680   0.80235   0.00000  Uiso   1.00
N1373  N     0.38093   0.50001   0.75001   0.00000  Uiso   1.00
N1374  N     0.61907   0.49999   0.74999   0.00000  Uiso   1.00
O1375  O     0.46179   0.56108   0.75000   0.00000  Uiso   1.00
O1376  O     0.53821   0.43892   0.74999   0.00000  Uiso   1.00
O1377  O     0.53823   0.56107   0.75000   0.00000  Uiso   1.00
O1378  O     0.46177   0.43893   0.75000   0.00000  Uiso   1.00
O1379  O     0.43994   0.50001   0.81612   0.00000  Uiso   1.00
O1380  O     0.56006   0.49999   0.68387   0.00000  Uiso   1.00
O1381  O     0.51639   0.50000   0.81612   0.00000  Uiso   1.00
O1382  O     0.48361   0.50000   0.68388   0.00000  Uiso   1.00
Zn1383 Zn    0.44896   0.50001   0.75000   0.00000  Uiso   1.00
Zn1384 Zn    0.55104   0.49999   0.75000   0.00000  Uiso   1.00
O1385  O     0.36128   0.46762   0.56048   0.00000  Uiso   1.00
C1386  C     0.35953   0.42675   0.57842   0.00000  Uiso   1.00
H1387  H     0.37820   0.42557   0.60332   0.00000  Uiso   1.00
H1388  H     0.37733   0.40387   0.54955   0.00000  Uiso   1.00
C1389  C     0.63896   0.41433   0.60465   0.00000  Uiso   1.00
H1390  H     0.62056   0.43730   0.63298   0.00000  Uiso   1.00
H1391  H     0.61984   0.41491   0.58017   0.00000  Uiso   1.00
C1392  C     0.63431   0.37076   0.62611   0.00000  Uiso   1.00
H1393  H     0.65019   0.34689   0.59820   0.00000  Uiso   1.00
H1394  H     0.59484   0.36345   0.64626   0.00000  Uiso   1.00
H1395  H     0.65376   0.36933   0.65025   0.00000  Uiso   1.00
O1396  O     0.63824   0.53362   0.93996   0.00000  Uiso   1.00
C1397  C     0.64038   0.57454   0.92211   0.00000  Uiso   1.00
H1398  H     0.62292   0.59746   0.95103   0.00000  Uiso   1.00
H1399  H     0.62162   0.57603   0.89730   0.00000  Uiso   1.00
C1400  C     0.36106   0.58647   0.89580   0.00000  Uiso   1.00
H1401  H     0.38007   0.58617   0.92037   0.00000  Uiso   1.00
H1402  H     0.37930   0.56310   0.86787   0.00000  Uiso   1.00
C1403  C     0.36613   0.62970   0.87356   0.00000  Uiso   1.00
H1404  H     0.34742   0.63045   0.84881   0.00000  Uiso   1.00
H1405  H     0.40572   0.63697   0.85396   0.00000  Uiso   1.00
H1406  H     0.34962   0.65391   0.90095   0.00000  Uiso   1.00
O1407  O     0.54585   0.37384   0.80126   0.00000  Uiso   1.00
C1408  C     0.59718   0.37898   0.77553   0.00000  Uiso   1.00
H1409  H     0.60770   0.40893   0.78710   0.00000  Uiso   1.00
H1410  H     0.60766   0.38183   0.73700   0.00000  Uiso   1.00
C1411  C     0.62679   0.34364   0.78568   0.00000  Uiso   1.00
H1412  H     0.61526   0.34015   0.82411   0.00000  Uiso   1.00
H1413  H     0.61990   0.64705   0.77127   0.00000  Uiso   1.00
C1414  C     0.34862   0.35262   0.76332   0.00000  Uiso   1.00
H1415  H     0.36081   0.35675   0.72491   0.00000  Uiso   1.00
H1416  H     0.36930   0.65929   0.76978   0.00000  Uiso   1.00
H1417  H     0.35734   0.38137   0.77857   0.00000  Uiso   1.00
O1418  O     0.45953   0.62565   0.69376   0.00000  Uiso   1.00
C1419  C     0.49665   0.61122   0.65144   0.00000  Uiso   1.00
H1420  H     0.48225   0.58294   0.64041   0.00000  Uiso   1.00
H1421  H     0.53125   0.60131   0.65511   0.00000  Uiso   1.00
C1422  C     0.50806   0.64440   0.61303   0.00000  Uiso   1.00
H1423  H     0.47344   0.65374   0.60939   0.00000  Uiso   1.00
H1424  H     0.52392   0.33920   0.62272   0.00000  Uiso   1.00
C1425  C     0.54465   0.62786   0.56615   0.00000  Uiso   1.00
H1426  H     0.57972   0.61864   0.56891   0.00000  Uiso   1.00
H1427  H     0.55258   0.65265   0.53914   0.00000  Uiso   1.00
H1428  H     0.52906   0.60039   0.55497   0.00000  Uiso   1.00
C1429  C     0.83347   0.57991   0.74948   0.00000  Uiso   1.00
C1430  C     0.83338   0.41998   0.75045   0.00000  Uiso   1.00
C1431  C     0.77673   0.48628   0.55210   0.00000  Uiso   1.00
C1432  C     0.88936   0.51549   0.94832   0.00000  Uiso   1.00
C1433  C     0.74281   0.47769   0.53224   0.00000  Uiso   1.00
C1434  C     0.92330   0.52389   0.96819   0.00000  Uiso   1.00
C1435  C     0.85611   0.64426   0.77456   0.00000  Uiso   1.00
C1436  C     0.81275   0.35541   0.72301   0.00000  Uiso   1.00
C1437  C     0.85853   0.35379   0.77389   0.00000  Uiso   1.00
C1438  C     0.81412   0.64579   0.72057   0.00000  Uiso   1.00
C1439  C     0.83464   0.37579   0.74955   0.00000  Uiso   1.00
C1440  C     0.83424   0.62395   0.74812   0.00000  Uiso   1.00
C1441  C     0.98827   0.47418   0.72073   0.00000  Uiso   1.00
C1442  C     0.67850   0.52602   0.77906   0.00000  Uiso   1.00
C1443  C     0.70281   0.47406   0.72087   0.00000  Uiso   1.00
C1444  C     0.96388   0.52599   0.77909   0.00000  Uiso   1.00
C1445  C     0.80241   0.50017   0.83809   0.00000  Uiso   1.00
C1446  C     0.86423   0.49989   0.66194   0.00000  Uiso   1.00
C1447  C     0.78277   0.49856   0.88891   0.00000  Uiso   1.00
C1448  C     0.88374   0.50201   0.61119   0.00000  Uiso   1.00
C1449  C     0.72282   0.47569   0.96335   0.00000  Uiso   1.00
C1450  C     0.94339   0.52562   0.53701   0.00000  Uiso   1.00
C1451  C     0.73661   0.48171   0.91547   0.00000  Uiso   1.00
C1452  C     0.92973   0.51921   0.58480   0.00000  Uiso   1.00
C1453  C     0.81419   0.51015   0.91026   0.00000  Uiso   1.00
C1454  C     0.85218   0.49080   0.58985   0.00000  Uiso   1.00
C1455  C     0.80390   0.49984   0.95674   0.00000  Uiso   1.00
C1456  C     0.86228   0.50162   0.54357   0.00000  Uiso   1.00
C1457  C     0.75626   0.48428   0.98435   0.00000  Uiso   1.00
C1458  C     0.90989   0.51719   0.51603   0.00000  Uiso   1.00
C1459  C     0.83985   0.50462   0.97607   0.00000  Uiso   1.00
C1460  C     0.82624   0.49710   0.52432   0.00000  Uiso   1.00
H1461  H     0.81923   0.47405   0.61067   0.00000  Uiso   1.00
H1462  H     0.84720   0.52672   0.88925   0.00000  Uiso   1.00
H1463  H     0.95450   0.52830   0.60115   0.00000  Uiso   1.00
H1464  H     0.71180   0.47256   0.89917   0.00000  Uiso   1.00
H1465  H     0.68671   0.46292   0.98347   0.00000  Uiso   1.00
H1466  H     0.97940   0.53858   0.51697   0.00000  Uiso   1.00
H1467  H     0.76256   0.48508   0.58972   0.00000  Uiso   1.00
H1468  H     0.90359   0.51678   0.91071   0.00000  Uiso   1.00
H1469  H     0.87062   0.62680   0.79627   0.00000  Uiso   1.00
H1470  H     0.79567   0.37282   0.70336   0.00000  Uiso   1.00
H1471  H     0.97989   0.45344   0.69745   0.00000  Uiso   1.00
H1472  H     0.68695   0.54688   0.80221   0.00000  Uiso   1.00
H1473  H     0.73064   0.45321   0.69764   0.00000  Uiso   1.00
H1474  H     0.93603   0.54680   0.80235   0.00000  Uiso   1.00
N1475  N     0.71426   0.50001   0.75001   0.00000  Uiso   1.00
N1476  N     0.95241   0.49999   0.74999   0.00000  Uiso   1.00
O1477  O     0.79512   0.56108   0.75000   0.00000  Uiso   1.00
O1478  O     0.87154   0.43892   0.74999   0.00000  Uiso   1.00
O1479  O     0.87157   0.56107   0.75000   0.00000  Uiso   1.00
O1480  O     0.79510   0.43893   0.75000   0.00000  Uiso   1.00
O1481  O     0.77328   0.50001   0.81612   0.00000  Uiso   1.00
O1482  O     0.89339   0.49999   0.68387   0.00000  Uiso   1.00
O1483  O     0.84972   0.50000   0.81612   0.00000  Uiso   1.00
O1484  O     0.81695   0.50000   0.68388   0.00000  Uiso   1.00
Zn1485 Zn    0.78229   0.50001   0.75000   0.00000  Uiso   1.00
Zn1486 Zn    0.88438   0.49999   0.75000   0.00000  Uiso   1.00
O1487  O     0.69462   0.46762   0.56048   0.00000  Uiso   1.00
C1488  C     0.69286   0.42675   0.57842   0.00000  Uiso   1.00
H1489  H     0.71153   0.42557   0.60332   0.00000  Uiso   1.00
H1490  H     0.71066   0.40387   0.54955   0.00000  Uiso   1.00
C1491  C     0.97230   0.41433   0.60465   0.00000  Uiso   1.00
H1492  H     0.95389   0.43730   0.63298   0.00000  Uiso   1.00
H1493  H     0.95317   0.41491   0.58017   0.00000  Uiso   1.00
C1494  C     0.96765   0.37076   0.62611   0.00000  Uiso   1.00
H1495  H     0.98353   0.34689   0.59820   0.00000  Uiso   1.00
H1496  H     0.92817   0.36345   0.64626   0.00000  Uiso   1.00
H1497  H     0.98709   0.36933   0.65025   0.00000  Uiso   1.00
O1498  O     0.97157   0.53362   0.93996   0.00000  Uiso   1.00
C1499  C     0.97371   0.57454   0.92211   0.00000  Uiso   1.00
H1500  H     0.95625   0.59746   0.95103   0.00000  Uiso   1.00
H1501  H     0.95495   0.57603   0.89730   0.00000  Uiso   1.00
C1502  C     0.69440   0.58647   0.89580   0.00000  Uiso   1.00
H1503  H     0.71341   0.58617   0.92037   0.00000  Uiso   1.00
H1504  H     0.71264   0.56310   0.86787   0.00000  Uiso   1.00
C1505  C     0.69946   0.62970   0.87356   0.00000  Uiso   1.00
H1506  H     0.68075   0.63045   0.84881   0.00000  Uiso   1.00
H1507  H     0.73905   0.63697   0.85396   0.00000  Uiso   1.00
H1508  H     0.68295   0.65391   0.90095   0.00000  Uiso   1.00
O1509  O     0.87918   0.37384   0.80126   0.00000  Uiso   1.00
C1510  C     0.93051   0.37898   0.77553   0.00000  Uiso   1.00
H1511  H     0.94104   0.40893   0.78710   0.00000  Uiso   1.00
H1512  H     0.94099   0.38183   0.73700   0.00000  Uiso   1.00
C1513  C     0.96012   0.34364   0.78568   0.00000  Uiso   1.00
H1514  H     0.94860   0.34015   0.82411   0.00000  Uiso   1.00
H1515  H     0.95323   0.64705   0.77127   0.00000  Uiso   1.00
C1516  C     0.68195   0.35262   0.76332   0.00000  Uiso   1.00
H1517  H     0.69414   0.35675   0.72491   0.00000  Uiso   1.00
H1518  H     0.70263   0.65929   0.76978   0.00000  Uiso   1.00
H1519  H     0.69067   0.38137   0.77857   0.00000  Uiso   1.00
O1520  O     0.79287   0.62565   0.69376   0.00000  Uiso   1.00
C1521  C     0.82998   0.61122   0.65144   0.00000  Uiso   1.00
H1522  H     0.81558   0.58294   0.64041   0.00000  Uiso   1.00
H1523  H     0.86459   0.60131   0.65511   0.00000  Uiso   1.00
C1524  C     0.84139   0.64440   0.61303   0.00000  Uiso   1.00
H1525  H     0.80677   0.65374   0.60939   0.00000  Uiso   1.00
H1526  H     0.85725   0.33920   0.62272   0.00000  Uiso   1.00
C1527  C     0.87799   0.62786   0.56615   0.00000  Uiso   1.00
H1528  H     0.91306   0.61864   0.56891   0.00000  Uiso   1.00
H1529  H     0.88591   0.65265   0.53914   0.00000  Uiso   1.00
H1530  H     0.86240   0.60039   0.55497   0.00000  Uiso   1.00
C1531  C     0.16680   0.91325   0.74948   0.00000  Uiso   1.00
C1532  C     0.16671   0.75332   0.75045   0.00000  Uiso   1.00
C1533  C     0.11006   0.81961   0.55210   0.00000  Uiso   1.00
C1534  C     0.22270   0.84882   0.94832   0.00000  Uiso   1.00
C1535  C     0.07615   0.81102   0.53224   0.00000  Uiso   1.00
C1536  C     0.25664   0.85723   0.96819   0.00000  Uiso   1.00
C1537  C     0.18944   0.97760   0.77456   0.00000  Uiso   1.00
C1538  C     0.14608   0.68874   0.72301   0.00000  Uiso   1.00
C1539  C     0.19186   0.68712   0.77389   0.00000  Uiso   1.00
C1540  C     0.14746   0.97912   0.72057   0.00000  Uiso   1.00
C1541  C     0.16798   0.70912   0.74955   0.00000  Uiso   1.00
C1542  C     0.16758   0.95728   0.74812   0.00000  Uiso   1.00
C1543  C     0.32160   0.80751   0.72073   0.00000  Uiso   1.00
C1544  C     0.01183   0.85935   0.77906   0.00000  Uiso   1.00
C1545  C     0.03615   0.80739   0.72087   0.00000  Uiso   1.00
C1546  C     0.29721   0.85932   0.77909   0.00000  Uiso   1.00
C1547  C     0.13574   0.83351   0.83809   0.00000  Uiso   1.00
C1548  C     0.19757   0.83323   0.66194   0.00000  Uiso   1.00
C1549  C     0.11610   0.83189   0.88891   0.00000  Uiso   1.00
C1550  C     0.21708   0.83534   0.61119   0.00000  Uiso   1.00
C1551  C     0.05615   0.80903   0.96335   0.00000  Uiso   1.00
C1552  C     0.27672   0.85895   0.53701   0.00000  Uiso   1.00
C1553  C     0.06994   0.81504   0.91547   0.00000  Uiso   1.00
C1554  C     0.26306   0.85255   0.58480   0.00000  Uiso   1.00
C1555  C     0.14753   0.84348   0.91026   0.00000  Uiso   1.00
C1556  C     0.18551   0.82413   0.58985   0.00000  Uiso   1.00
C1557  C     0.13723   0.83317   0.95674   0.00000  Uiso   1.00
C1558  C     0.19561   0.83495   0.54357   0.00000  Uiso   1.00
C1559  C     0.08960   0.81761   0.98435   0.00000  Uiso   1.00
C1560  C     0.24323   0.85052   0.51603   0.00000  Uiso   1.00
C1561  C     0.17319   0.83795   0.97607   0.00000  Uiso   1.00
C1562  C     0.15958   0.83043   0.52432   0.00000  Uiso   1.00
H1563  H     0.15257   0.80738   0.61067   0.00000  Uiso   1.00
H1564  H     0.18053   0.86006   0.88925   0.00000  Uiso   1.00
H1565  H     0.28783   0.86163   0.60115   0.00000  Uiso   1.00
H1566  H     0.04514   0.80590   0.89917   0.00000  Uiso   1.00
H1567  H     0.02005   0.79626   0.98347   0.00000  Uiso   1.00
H1568  H     0.31274   0.87192   0.51697   0.00000  Uiso   1.00
H1569  H     0.09589   0.81841   0.58972   0.00000  Uiso   1.00
H1570  H     0.23692   0.85011   0.91071   0.00000  Uiso   1.00
H1571  H     0.20396   0.96013   0.79627   0.00000  Uiso   1.00
H1572  H     0.12901   0.70615   0.70336   0.00000  Uiso   1.00
H1573  H     0.31322   0.78677   0.69745   0.00000  Uiso   1.00
H1574  H     0.02028   0.88022   0.80221   0.00000  Uiso   1.00
H1575  H     0.06398   0.78655   0.69764   0.00000  Uiso   1.00
H1576  H     0.26936   0.88013   0.80235   0.00000  Uiso   1.00
N1577  N     0.04759   0.83334   0.75001   0.00000  Uiso   1.00
N1578  N     0.28574   0.83332   0.74999   0.00000  Uiso   1.00
O1579  O     0.12846   0.89442   0.75000   0.00000  Uiso   1.00
O1580  O     0.20488   0.77225   0.74999   0.00000  Uiso   1.00
O1581  O     0.20490   0.89441   0.75000   0.00000  Uiso   1.00
O1582  O     0.12843   0.77226   0.75000   0.00000  Uiso   1.00
O1583  O     0.10661   0.83334   0.81612   0.00000  Uiso   1.00
O1584  O     0.22672   0.83333   0.68387   0.00000  Uiso   1.00
O1585  O     0.18305   0.83333   0.81612   0.00000  Uiso   1.00
O1586  O     0.15028   0.83334   0.68388   0.00000  Uiso   1.00
Zn1587 Zn    0.11562   0.83334   0.75000   0.00000  Uiso   1.00
Zn1588 Zn    0.21771   0.83333   0.75000   0.00000  Uiso   1.00
O1589  O     0.02795   0.80095   0.56048   0.00000  Uiso   1.00
C1590  C     0.02620   0.76009   0.57842   0.00000  Uiso   1.00
H1591  H     0.04487   0.75890   0.60332   0.00000  Uiso   1.00
H1592  H     0.04400   0.73720   0.54955   0.00000  Uiso   1.00
C1593  C     0.30563   0.74766   0.60465   0.00000  Uiso   1.00
H1594  H     0.28723   0.77063   0.63298   0.00000  Uiso   1.00
H1595  H     0.28650   0.74824   0.58017   0.00000  Uiso   1.00
C1596  C     0.30098   0.70409   0.62611   0.00000  Uiso   1.00
H1597  H     0.31686   0.68022   0.59820   0.00000  Uiso   1.00
H1598  H     0.26151   0.69679   0.64626   0.00000  Uiso   1.00
H1599  H     0.32043   0.70267   0.65025   0.00000  Uiso   1.00
O1600  O     0.30491   0.86696   0.93996   0.00000  Uiso   1.00
C1601  C     0.30704   0.90787   0.92211   0.00000  Uiso   1.00
H1602  H     0.28959   0.93080   0.95103   0.00000  Uiso   1.00
H1603  H     0.28828   0.90937   0.89730   0.00000  Uiso   1.00
C1604  C     0.02773   0.91980   0.89580   0.00000  Uiso   1.00
H1605  H     0.04674   0.91950   0.92037   0.00000  Uiso   1.00
H1606  H     0.04597   0.89643   0.86787   0.00000  Uiso   1.00
C1607  C     0.03280   0.96303   0.87356   0.00000  Uiso   1.00
H1608  H     0.01408   0.96378   0.84881   0.00000  Uiso   1.00
H1609  H     0.07239   0.97031   0.85396   0.00000  Uiso   1.00
H1610  H     0.01628   0.98725   0.90095   0.00000  Uiso   1.00
O1611  O     0.21252   0.70717   0.80126   0.00000  Uiso   1.00
C1612  C     0.26384   0.71232   0.77553   0.00000  Uiso   1.00
H1613  H     0.27437   0.74227   0.78710   0.00000  Uiso   1.00
H1614  H     0.27433   0.71516   0.73700   0.00000  Uiso   1.00
C1615  C     0.29346   0.67697   0.78568   0.00000  Uiso   1.00
H1616  H     0.28193   0.67348   0.82411   0.00000  Uiso   1.00
H1617  H     0.28657   0.98038   0.77127   0.00000  Uiso   1.00
C1618  C     0.01528   0.68595   0.76332   0.00000  Uiso   1.00
H1619  H     0.02747   0.69008   0.72491   0.00000  Uiso   1.00
H1620  H     0.03597   0.99262   0.76978   0.00000  Uiso   1.00
H1621  H     0.02401   0.71470   0.77857   0.00000  Uiso   1.00
O1622  O     0.12620   0.95898   0.69376   0.00000  Uiso   1.00
C1623  C     0.16332   0.94455   0.65144   0.00000  Uiso   1.00
H1624  H     0.14891   0.91627   0.64041   0.00000  Uiso   1.00
H1625  H     0.19792   0.93464   0.65511   0.00000  Uiso   1.00
C1626  C     0.17472   0.97773   0.61303   0.00000  Uiso   1.00
H1627  H     0.14011   0.98707   0.60939   0.00000  Uiso   1.00
H1628  H     0.19058   0.67254   0.62272   0.00000  Uiso   1.00
C1629  C     0.21132   0.96119   0.56615   0.00000  Uiso   1.00
H1630  H     0.24639   0.95197   0.56891   0.00000  Uiso   1.00
H1631  H     0.21924   0.98599   0.53914   0.00000  Uiso   1.00
H1632  H     0.19573   0.93372   0.55497   0.00000  Uiso   1.00
C1633  C     0.50014   0.91325   0.74948   0.00000  Uiso   1.00
C1634  C     0.50004   0.75332   0.75045   0.00000  Uiso   1.00
C1635  C     0.44340   0.81961   0.55210   0.00000  Uiso   1.00
C1636  C     0.55603   0.84882   0.94832   0.00000  Uiso   1.00
C1637  C     0.40948   0.81102   0.53224   0.00000  Uiso   1.00
C1638  C     0.58997   0.85723   0.96819   0.00000  Uiso   1.00
C1639  C     0.52277   0.97760   0.77456   0.00000  Uiso   1.00
C1640  C     0.47942   0.68874   0.72301   0.00000  Uiso   1.00
C1641  C     0.52519   0.68712   0.77389   0.00000  Uiso   1.00
C1642  C     0.48079   0.97912   0.72057   0.00000  Uiso   1.00
C1643  C     0.50131   0.70912   0.74955   0.00000  Uiso   1.00
C1644  C     0.50091   0.95728   0.74812   0.00000  Uiso   1.00
C1645  C     0.65494   0.80751   0.72073   0.00000  Uiso   1.00
C1646  C     0.34516   0.85935   0.77906   0.00000  Uiso   1.00
C1647  C     0.36948   0.80739   0.72087   0.00000  Uiso   1.00
C1648  C     0.63054   0.85932   0.77909   0.00000  Uiso   1.00
C1649  C     0.46908   0.83351   0.83809   0.00000  Uiso   1.00
C1650  C     0.53090   0.83323   0.66194   0.00000  Uiso   1.00
C1651  C     0.44943   0.83189   0.88891   0.00000  Uiso   1.00
C1652  C     0.55041   0.83534   0.61119   0.00000  Uiso   1.00
C1653  C     0.38948   0.80903   0.96335   0.00000  Uiso   1.00
C1654  C     0.61005   0.85895   0.53701   0.00000  Uiso   1.00
C1655  C     0.40327   0.81504   0.91547   0.00000  Uiso   1.00
C1656  C     0.59639   0.85255   0.58480   0.00000  Uiso   1.00
C1657  C     0.48086   0.84348   0.91026   0.00000  Uiso   1.00
C1658  C     0.51884   0.82413   0.58985   0.00000  Uiso   1.00
C1659  C     0.47056   0.83317   0.95674   0.00000  Uiso   1.00
C1660  C     0.52894   0.83495   0.54357   0.00000  Uiso   1.00
C1661  C     0.42293   0.81761   0.98435   0.00000  Uiso   1.00
C1662  C     0.57656   0.85052   0.51603   0.00000  Uiso   1.00
C1663  C     0.50652   0.83795   0.97607   0.00000  Uiso   1.00
C1664  C     0.49291   0.83043   0.52432   0.00000  Uiso   1.00
H1665  H     0.48590   0.80738   0.61067   0.00000  Uiso   1.00
H1666  H     0.51386   0.86006   0.88925   0.00000  Uiso   1.00
H1667  H     0.62116   0.86163   0.60115   0.00000  Uiso   1.00
H1668  H     0.37847   0.80590   0.89917   0.00000  Uiso   1.00
H1669  H     0.35338   0.79626   0.98347   0.00000  Uiso   1.00
H1670  H     0.64607   0.87192   0.51697   0.00000  Uiso   1.00
H1671  H     0.42923   0.81841   0.58972   0.00000  Uiso   1.00
H1672  H     0.57026   0.85011   0.91071   0.00000  Uiso   1.00
H1673  H     0.53729   0.96013   0.79627   0.00000  Uiso   1.00
H1674  H     0.46234   0.70615   0.70336   0.00000  Uiso   1.00
H1675  H     0.64656   0.78677   0.69745   0.00000  Uiso   1.00
H1676  H     0.35361   0.88022   0.80221   0.00000  Uiso   1.00
H1677  H     0.39731   0.78655   0.69764   0.00000  Uiso   1.00
H1678  H     0.60269   0.88013   0.80235   0.00000  Uiso   1.00
N1679  N     0.38093   0.83334   0.75001   0.00000  Uiso   1.00
N1680  N     0.61907   0.83332   0.74999   0.00000  Uiso   1.00
O1681  O     0.46179   0.89442   0.75000   0.00000  Uiso   1.00
O1682  O     0.53821   0.77225   0.74999   0.00000  Uiso   1.00
O1683  O     0.53823   0.89441   0.75000   0.00000  Uiso   1.00
O1684  O     0.46177   0.77226   0.75000   0.00000  Uiso   1.00
O1685  O     0.43994   0.83334   0.81612   0.00000  Uiso   1.00
O1686  O     0.56006   0.83333   0.68387   0.00000  Uiso   1.00
O1687  O     0.51639   0.83333   0.81612   0.00000  Uiso   1.00
O1688  O     0.48361   0.83334   0.68388   0.00000  Uiso   1.00
Zn1689 Zn    0.44896   0.83334   0.75000   0.00000  Uiso   1.00
Zn1690 Zn    0.55104   0.83333   0.75000   0.00000  Uiso   1.00
O1691  O     0.36128   0.80095   0.56048   0.00000  Uiso   1.00
C1692  C     0.35953   0.76009   0.57842   0.00000  Uiso   1.00
H1693  H     0.37820   0.75890   0.60332   0.00000  Uiso   1.00
H1694  H     0.37733   0.73720   0.54955   0.00000  Uiso   1.00
C1695  C     0.63896   0.74766   0.60465   0.00000  Uiso   1.00
H1696  H     0.62056   0.77063   0.63298   0.00000  Uiso   1.00
H1697  H     0.61984   0.74824   0.58017   0.00000  Uiso   1.00
C1698  C     0.63431   0.70409   0.62611   0.00000  Uiso   1.00
H1699  H     0.65019   0.68022   0.59820   0.00000  Uiso   1.00
H1700  H     0.59484   0.69679   0.64626   0.00000  Uiso   1.00
H1701  H     0.65376   0.70267   0.65025   0.00000  Uiso   1.00
O1702  O     0.63824   0.86696   0.93996   0.00000  Uiso   1.00
C1703  C     0.64038   0.90787   0.92211   0.00000  Uiso   1.00
H1704  H     0.62292   0.93080   0.95103   0.00000  Uiso   1.00
H1705  H     0.62162   0.90937   0.89730   0.00000  Uiso   1.00
C1706  C     0.36106   0.91980   0.89580   0.00000  Uiso   1.00
H1707  H     0.38007   0.91950   0.92037   0.00000  Uiso   1.00
H1708  H     0.37930   0.89643   0.86787   0.00000  Uiso   1.00
C1709  C     0.36613   0.96303   0.87356   0.00000  Uiso   1.00
H1710  H     0.34742   0.96378   0.84881   0.00000  Uiso   1.00
H1711  H     0.40572   0.97031   0.85396   0.00000  Uiso   1.00
H1712  H     0.34962   0.98725   0.90095   0.00000  Uiso   1.00
O1713  O     0.54585   0.70717   0.80126   0.00000  Uiso   1.00
C1714  C     0.59718   0.71232   0.77553   0.00000  Uiso   1.00
H1715  H     0.60770   0.74227   0.78710   0.00000  Uiso   1.00
H1716  H     0.60766   0.71516   0.73700   0.00000  Uiso   1.00
C1717  C     0.62679   0.67697   0.78568   0.00000  Uiso   1.00
H1718  H     0.61526   0.67348   0.82411   0.00000  Uiso   1.00
H1719  H     0.61990   0.98038   0.77127   0.00000  Uiso   1.00
C1720  C     0.34862   0.68595   0.76332   0.00000  Uiso   1.00
H1721  H     0.36081   0.69008   0.72491   0.00000  Uiso   1.00
H1722  H     0.36930   0.99262   0.76978   0.00000  Uiso   1.00
H1723  H     0.35734   0.71470   0.77857   0.00000  Uiso   1.00
O1724  O     0.45953   0.95898   0.69376   0.00000  Uiso   1.00
C1725  C     0.49665   0.94455   0.65144   0.00000  Uiso   1.00
H1726  H     0.48225   0.91627   0.64041   0.00000  Uiso   1.00
H1727  H     0.53125   0.93464   0.65511   0.00000  Uiso   1.00
C1728  C     0.50806   0.97773   0.61303   0.00000  Uiso   1.00
H1729  H     0.47344   0.98707   0.60939   0.00000  Uiso   1.00
H1730  H     0.52392   0.67254   0.62272   0.00000  Uiso   1.00
C1731  C     0.54465   0.96119   0.56615   0.00000  Uiso   1.00
H1732  H     0.57972   0.95197   0.56891   0.00000  Uiso   1.00
H1733  H     0.55258   0.98599   0.53914   0.00000  Uiso   1.00
H1734  H     0.52906   0.93372   0.55497   0.00000  Uiso   1.00
C1735  C     0.83347   0.91325   0.74948   0.00000  Uiso   1.00
C1736  C     0.83338   0.75332   0.75045   0.00000  Uiso   1.00
C1737  C     0.77673   0.81961   0.55210   0.00000  Uiso   1.00
C1738  C     0.88936   0.84882   0.94832   0.00000  Uiso   1.00
C1739  C     0.74281   0.81102   0.53224   0.00000  Uiso   1.00
C1740  C     0.92330   0.85723   0.96819   0.00000  Uiso   1.00
C1741  C     0.85611   0.97760   0.77456   0.00000  Uiso   1.00
C1742  C     0.81275   0.68874   0.72301   0.00000  Uiso   1.00
C1743  C     0.85853   0.68712   0.77389   0.00000  Uiso   1.00
C1744  C     0.81412   0.97912   0.72057   0.00000  Uiso   1.00
C1745  C     0.83464   0.70912   0.74955   0.00000  Uiso   1.00
C1746  C     0.83424   0.95728   0.74812   0.00000  Uiso   1.00
C1747  C     0.98827   0.80751   0.72073   0.00000  Uiso   1.00
C1748  C     0.67850   0.85935   0.77906   0.00000  Uiso   1.00
C1749  C     0.70281   0.80739   0.72087   0.00000  Uiso   1.00
C1750  C     0.96388   0.85932   0.77909   0.00000  Uiso   1.00
C1751  C     0.80241   0.83351   0.83809   0.00000  Uiso   1.00
C1752  C     0.86423   0.83323   0.66194   0.00000  Uiso   1.00
C1753  C     0.78277   0.83189   0.88891   0.00000  Uiso   1.00
C1754  C     0.88374   0.83534   0.61119   0.00000  Uiso   1.00
C1755  C     0.72282   0.80903   0.96335   0.00000  Uiso   1.00
C1756  C     0.94339   0.85895   0.53701   0.00000  Uiso   1.00
C1757  C     0.73661   0.81504   0.91547   0.00000  Uiso   1.00
C1758  C     0.92973   0.85255   0.58480   0.00000  Uiso   1.00
C1759  C     0.81419   0.84348   0.91026   0.00000  Uiso   1.00
C1760  C     0.85218   0.82413   0.58985   0.00000  Uiso   1.00
C1761  C     0.80390   0.83317   0.95674   0.00000  Uiso   1.00
C1762  C     0.86228   0.83495   0.54357   0.00000  Uiso   1.00
C1763  C     0.75626   0.81761   0.98435   0.00000  Uiso   1.00
C1764  C     0.90989   0.85052   0.51603   0.00000  Uiso   1.00
C1765  C     0.83985   0.83795   0.97607   0.00000  Uiso   1.00
C1766  C     0.82624   0.83043   0.52432   0.00000  Uiso   1.00
H1767  H     0.81923   0.80738   0.61067   0.00000  Uiso   1.00
H1768  H     0.84720   0.86006   0.88925   0.00000  Uiso   1.00
H1769  H     0.95450   0.86163   0.60115   0.00000  Uiso   1.00
H1770  H     0.71180   0.80590   0.89917   0.00000  Uiso   1.00
H1771  H     0.68671   0.79626   0.98347   0.00000  Uiso   1.00
H1772  H     0.97940   0.87192   0.51697   0.00000  Uiso   1.00
H1773  H     0.76256   0.81841   0.58972   0.00000  Uiso   1.00
H1774  H     0.90359   0.85011   0.91071   0.00000  Uiso   1.00
H1775  H     0.87062   0.96013   0.79627   0.00000  Uiso   1.00
H1776  H     0.79567   0.70615   0.70336   0.00000  Uiso   1.00
H1777  H     0.97989   0.78677   0.69745   0.00000  Uiso   1.00
H1778  H     0.68695   0.88022   0.80221   0.00000  Uiso   1.00
H1779  H     0.73064   0.78655   0.69764   0.00000  Uiso   1.00
H1780  H     0.93603   0.88013   0.80235   0.00000  Uiso   1.00
N1781  N     0.71426   0.83334   0.75001   0.00000  Uiso   1.00
N1782  N     0.95241   0.83332   0.74999   0.00000  Uiso   1.00
O1783  O     0.79512   0.89442   0.75000   0.00000  Uiso   1.00
O1784  O     0.87154   0.77225   0.74999   0.00000  Uiso   1.00
O1785  O     0.87157   0.89441   0.75000   0.00000  Uiso   1.00
O1786  O     0.79510   0.77226   0.75000   0.00000  Uiso   1.00
O1787  O     0.77328   0.83334   0.81612   0.00000  Uiso   1.00
O1788  O     0.89339   0.83333   0.68387   0.00000  Uiso   1.00
O1789  O     0.84972   0.83333   0.81612   0.00000  Uiso   1.00
O1790  O     0.81695   0.83334   0.68388   0.00000  Uiso   1.00
Zn1791 Zn    0.78229   0.83334   0.75000   0.00000  Uiso   1.00
Zn1792 Zn    0.88438   0.83333   0.75000   0.00000  Uiso   1.00
O1793  O     0.69462   0.80095   0.56048   0.00000  Uiso   1.00
C1794  C     0.69286   0.76009   0.57842   0.00000  Uiso   1.00
H1795  H     0.71153   0.75890   0.60332   0.00000  Uiso   1.00
H1796  H     0.71066   0.73720   0.54955   0.00000  Uiso   1.00
C1797  C     0.97230   0.74766   0.60465   0.00000  Uiso   1.00
H1798  H     0.95389   0.77063   0.63298   0.00000  Uiso   1.00
H1799  H     0.95317   0.74824   0.58017   0.00000  Uiso   1.00
C1800  C     0.96765   0.70409   0.62611   0.00000  Uiso   1.00
H1801  H     0.98353   0.68022   0.59820   0.00000  Uiso   1.00
H1802  H     0.92817   0.69679   0.64626   0.00000  Uiso   1.00
H1803  H     0.98709   0.70267   0.65025   0.00000  Uiso   1.00
O1804  O     0.97157   0.86696   0.93996   0.00000  Uiso   1.00
C1805  C     0.97371   0.90787   0.92211   0.00000  Uiso   1.00
H1806  H     0.95625   0.93080   0.95103   0.00000  Uiso   1.00
H1807  H     0.95495   0.90937   0.89730   0.00000  Uiso   1.00
C1808  C     0.69440   0.91980   0.89580   0.00000  Uiso   1.00
H1809  H     0.71341   0.91950   0.92037   0.00000  Uiso   1.00
H1810  H     0.71264   0.89643   0.86787   0.00000  Uiso   1.00
C1811  C     0.69946   0.96303   0.87356   0.00000  Uiso   1.00
H1812  H     0.68075   0.96378   0.84881   0.00000  Uiso   1.00
H1813  H     0.73905   0.97031   0.85396   0.00000  Uiso   1.00
H1814  H     0.68295   0.98725   0.90095   0.00000  Uiso   1.00
O1815  O     0.87918   0.70717   0.80126   0.00000  Uiso   1.00
C1816  C     0.93051   0.71232   0.77553   0.00000  Uiso   1.00
H1817  H     0.94104   0.74227   0.78710   0.00000  Uiso   1.00
H1818  H     0.94099   0.71516   0.73700   0.00000  Uiso   1.00
C1819  C     0.96012   0.67697   0.78568   0.00000  Uiso   1.00
H1820  H     0.94860   0.67348   0.82411   0.00000  Uiso   1.00
H1821  H     0.95323   0.98038   0.77127   0.00000  Uiso   1.00
C1822  C     0.68195   0.68595   0.76332   0.00000  Uiso   1.00
H1823  H     0.69414   0.69008   0.72491   0.00000  Uiso   1.00
H1824  H     0.70263   0.99262   0.76978   0.00000  Uiso   1.00
H1825  H     0.69067   0.71470   0.77857   0.00000  Uiso   1.00
O1826  O     0.79287   0.95898   0.69376   0.00000  Uiso   1.00
C1827  C     0.82998   0.94455   0.65144   0.00000  Uiso   1.00
H1828  H     0.81558   0.91627   0.64041   0.00000  Uiso   1.00
H1829  H     0.86459   0.93464   0.65511   0.00000  Uiso   1.00
C1830  C     0.84139   0.97773   0.61303   0.00000  Uiso   1.00
H1831  H     0.80677   0.98707   0.60939   0.00000  Uiso   1.00
H1832  H     0.85725   0.67254   0.62272   0.00000  Uiso   1.00
C1833  C     0.87799   0.96119   0.56615   0.00000  Uiso   1.00
H1834  H     0.91306   0.95197   0.56891   0.00000  Uiso   1.00
H1835  H     0.88591   0.98599   0.53914   0.00000  Uiso   1.00
H1836  H     0.86240   0.93372   0.55497   0.00000  Uiso   1.00
loop_
_geom_bond_atom_site_label_1
_geom_bond_atom_site_label_2
_geom_bond_distance
_geom_bond_site_symmetry_2
_ccdc_geom_bond_type
C1     C12     1.408   .     S
C1     O51     1.280   .     A
C1     O49     1.279   .     A
C2     O50     1.277   .     A
C2     C11     1.413   .     S
C2     O52     1.285   .     A
C3     C5      1.396   .     A
C3     C32     1.419   .     A
C3     H39     1.077   .     S
C4     H40     1.077   .     S
C4     C6      1.396   .     A
C4     C31     1.419   .     A
C5     O59     1.386   .     S
C5     C947    1.398   1_554 S
C6     O70     1.385   .     S
C6     C948    1.397   .     S
C7     C12     1.392   .     A
C7     H41     1.084   .     S
C7     C315    1.372   .     S
C8     H42     1.085   .     S
C8     C11     1.396   .     A
C8     C622    1.374   1_545 S
C9     C11     1.407   .     A
C9     O81     1.386   .     S
C9     C619    1.372   1_545 S
C10    O92     1.385   .     S
C10    C12     1.403   .     A
C10    C314    1.374   .     S
C13    N48     1.366   .     A
C13    H43     1.081   .     S
C13    C117    1.416   .     S
C14    H44     1.081   .     S
C14    N47     1.366   .     A
C14    C220    1.416   1_455 S
C15    N47     1.367   .     A
C15    H45     1.082   .     S
C15    C217    1.416   1_455 S
C16    N48     1.367   .     A
C16    H46     1.082   .     S
C16    C116    1.416   .     S
C17    O55     1.292   .     A
C17    O53     1.292   .     A
C17    C19     1.454   .     S
C18    O56     1.291   .     A
C18    C20     1.453   .     S
C18    O54     1.292   .     A
C19    C23     1.396   .     A
C19    C25     1.388   .     A
C20    C24     1.396   .     A
C20    C26     1.388   .     A
C21    C29     1.410   .     A
C21    C23     1.394   .     A
C21    H37     1.083   .     S
C22    C24     1.393   .     A
C22    H38     1.083   .     S
C22    C30     1.409   .     A
C23    H36     1.083   .     S
C24    H35     1.083   .     S
C25    H34     1.077   .     S
C25    C27     1.394   .     A
C26    H33     1.077   .     S
C26    C28     1.393   .     A
C27    C29     1.421   .     A
C27    C31     1.420   .     A
C28    C32     1.419   .     A
C28    C30     1.420   .     A
C29    C923    1.398   .     S
C30    C924    1.397   1_554 S
C31    C950    1.412   .     S
C32    C949    1.412   1_554 S
N47    Zn57    2.009   .     S
N48    Zn58    2.009   .     S
O49    Zn57    1.990   .     S
O50    Zn58    1.990   .     S
O51    Zn58    1.987   .     S
O52    Zn57    1.987   .     S
O53    Zn57    1.966   .     S
O54    Zn58    1.966   .     S
O55    Zn58    1.902   .     S
O56    Zn57    1.902   .     S
O59    C60     1.413   .     S
C60    H62     1.116   .     S
C60    H61     1.114   .     S
C60    C267    1.530   1_455 S
C63    H65     1.112   .     S
C63    C66     1.526   .     S
C63    H64     1.110   .     S
C63    C162    1.530   .     S
C66    H68     1.111   .     S
C66    H69     1.111   .     S
C66    H67     1.111   .     S
O70    C71     1.412   .     S
C71    H73     1.114   .     S
C71    H72     1.116   .     S
C71    C176    1.529   .     S
C74    H76     1.110   .     S
C74    C77     1.525   .     S
C74    H75     1.112   .     S
C74    C275    1.529   1_455 S
C77    H79     1.111   .     S
C77    H78     1.110   .     S
C77    H80     1.111   .     S
O81    C82     1.419   .     S
C82    H83     1.111   .     S
C82    H84     1.117   .     S
C82    C85     1.532   .     S
C85    H86     1.111   .     S
C85    H699    1.110   1_545 S
C85    C190    1.527   .     S
H87    C391    1.110   .     S
C88    H91     1.111   .     S
C88    H89     1.111   .     S
C88    C289    1.527   1_455 S
C88    H702    1.110   1_545 S
H90    C394    1.110   .     S
O92    C93     1.417   .     S
C93    H94     1.111   .     S
C93    H95     1.116   .     S
C93    C96     1.532   .     S
C96    C99     1.526   .     S
C96    H97     1.112   .     S
C96    H404    1.111   .     S
H98    C708    1.111   1_545 S
C99    H100    1.111   .     S
C99    H101    1.110   .     S
C99    H102    1.111   .     S
C103   C114    1.408   .     S
C103   O153    1.280   .     A
C103   O151    1.279   .     A
C104   O152    1.277   .     A
C104   C113    1.413   .     S
C104   O154    1.285   .     A
C105   C107    1.396   .     A
C105   C134    1.419   .     A
C105   H141    1.077   .     S
C106   H142    1.077   .     S
C106   C108    1.396   .     A
C106   C133    1.419   .     A
C107   O161    1.386   .     S
C107   C1049   1.398   1_554 S
C108   O172    1.385   .     S
C108   C1050   1.397   .     S
C109   C114    1.392   .     A
C109   H143    1.084   .     S
C109   C417    1.372   .     S
C110   H144    1.085   .     S
C110   C113    1.396   .     A
C110   C724    1.374   1_545 S
C111   C113    1.407   .     A
C111   O183    1.386   .     S
C111   C721    1.372   1_545 S
C112   O194    1.385   .     S
C112   C114    1.403   .     A
C112   C416    1.374   .     S
C115   N150    1.366   .     A
C115   H145    1.081   .     S
C115   C219    1.416   .     S
C116   H146    1.081   .     S
C116   N149    1.366   .     A
C117   N149    1.367   .     A
C117   H147    1.082   .     S
C118   N150    1.367   .     A
C118   H148    1.082   .     S
C118   C218    1.416   .     S
C119   O157    1.292   .     A
C119   O155    1.292   .     A
C119   C121    1.454   .     S
C120   O158    1.291   .     A
C120   C122    1.453   .     S
C120   O156    1.292   .     A
C121   C125    1.396   .     A
C121   C127    1.388   .     A
C122   C126    1.396   .     A
C122   C128    1.388   .     A
C123   C131    1.410   .     A
C123   C125    1.394   .     A
C123   H139    1.083   .     S
C124   C126    1.393   .     A
C124   H140    1.083   .     S
C124   C132    1.409   .     A
C125   H138    1.083   .     S
C126   H137    1.083   .     S
C127   H136    1.077   .     S
C127   C129    1.394   .     A
C128   H135    1.077   .     S
C128   C130    1.393   .     A
C129   C131    1.421   .     A
C129   C133    1.420   .     A
C130   C134    1.419   .     A
C130   C132    1.420   .     A
C131   C1025   1.398   .     S
C132   C1026   1.397   1_554 S
C133   C1052   1.412   .     S
C134   C1051   1.412   1_554 S
N149   Zn159   2.009   .     S
N150   Zn160   2.009   .     S
O151   Zn159   1.990   .     S
O152   Zn160   1.990   .     S
O153   Zn160   1.987   .     S
O154   Zn159   1.987   .     S
O155   Zn159   1.966   .     S
O156   Zn160   1.966   .     S
O157   Zn160   1.902   .     S
O158   Zn159   1.902   .     S
O161   C162    1.413   .     S
C162   H164    1.116   .     S
C162   H163    1.114   .     S
C165   H167    1.112   .     S
C165   C168    1.526   .     S
C165   H166    1.110   .     S
C165   C264    1.530   .     S
C168   H170    1.111   .     S
C168   H171    1.111   .     S
C168   H169    1.111   .     S
O172   C173    1.412   .     S
C173   H175    1.114   .     S
C173   H174    1.116   .     S
C173   C278    1.529   .     S
C176   H178    1.110   .     S
C176   C179    1.525   .     S
C176   H177    1.112   .     S
C179   H181    1.111   .     S
C179   H180    1.110   .     S
C179   H182    1.111   .     S
O183   C184    1.419   .     S
C184   H185    1.111   .     S
C184   H186    1.117   .     S
C184   C187    1.532   .     S
C187   H188    1.111   .     S
C187   H801    1.110   1_545 S
C187   C292    1.527   .     S
H189   C493    1.110   .     S
C190   H193    1.111   .     S
C190   H191    1.111   .     S
C190   H804    1.110   1_545 S
H192   C496    1.110   .     S
O194   C195    1.417   .     S
C195   H196    1.111   .     S
C195   H197    1.116   .     S
C195   C198    1.532   .     S
C198   C201    1.526   .     S
C198   H199    1.112   .     S
C198   H506    1.111   .     S
H200   C810    1.111   1_545 S
C201   H202    1.111   .     S
C201   H203    1.110   .     S
C201   H204    1.111   .     S
C205   C216    1.408   .     S
C205   O255    1.280   .     A
C205   O253    1.279   .     A
C206   O254    1.277   .     A
C206   C215    1.413   .     S
C206   O256    1.285   .     A
C207   C209    1.396   .     A
C207   C236    1.419   .     A
C207   H243    1.077   .     S
C208   H244    1.077   .     S
C208   C210    1.396   .     A
C208   C235    1.419   .     A
C209   O263    1.386   .     S
C209   C1151   1.398   1_554 S
C210   O274    1.385   .     S
C210   C1152   1.397   .     S
C211   C216    1.392   .     A
C211   H245    1.084   .     S
C211   C519    1.372   .     S
C212   H246    1.085   .     S
C212   C215    1.396   .     A
C212   C826    1.374   1_545 S
C213   C215    1.407   .     A
C213   O285    1.386   .     S
C213   C823    1.372   1_545 S
C214   O296    1.385   .     S
C214   C216    1.403   .     A
C214   C518    1.374   .     S
C217   N252    1.366   .     A
C217   H247    1.081   .     S
C217   C15     1.416   1_655 S
C218   H248    1.081   .     S
C218   N251    1.366   .     A
C219   N251    1.367   .     A
C219   H249    1.082   .     S
C220   N252    1.367   .     A
C220   H250    1.082   .     S
C220   C14     1.416   1_655 S
C221   O259    1.292   .     A
C221   O257    1.292   .     A
C221   C223    1.454   .     S
C222   O260    1.291   .     A
C222   C224    1.453   .     S
C222   O258    1.292   .     A
C223   C227    1.396   .     A
C223   C229    1.388   .     A
C224   C228    1.396   .     A
C224   C230    1.388   .     A
C225   C233    1.410   .     A
C225   C227    1.394   .     A
C225   H241    1.083   .     S
C226   C228    1.393   .     A
C226   H242    1.083   .     S
C226   C234    1.409   .     A
C227   H240    1.083   .     S
C228   H239    1.083   .     S
C229   H238    1.077   .     S
C229   C231    1.394   .     A
C230   H237    1.077   .     S
C230   C232    1.393   .     A
C231   C233    1.421   .     A
C231   C235    1.420   .     A
C232   C236    1.419   .     A
C232   C234    1.420   .     A
C233   C1127   1.398   .     S
C234   C1128   1.397   1_554 S
C235   C1154   1.412   .     S
C236   C1153   1.412   1_554 S
N251   Zn261   2.009   .     S
N252   Zn262   2.009   .     S
O253   Zn261   1.990   .     S
O254   Zn262   1.990   .     S
O255   Zn262   1.987   .     S
O256   Zn261   1.987   .     S
O257   Zn261   1.966   .     S
O258   Zn262   1.966   .     S
O259   Zn262   1.902   .     S
O260   Zn261   1.902   .     S
O263   C264    1.413   .     S
C264   H266    1.116   .     S
C264   H265    1.114   .     S
C267   H269    1.112   .     S
C267   C270    1.526   .     S
C267   H268    1.110   .     S
C267   C60     1.530   1_655 S
C270   H272    1.111   .     S
C270   H273    1.111   .     S
C270   H271    1.111   .     S
O274   C275    1.412   .     S
C275   H277    1.114   .     S
C275   H276    1.116   .     S
C275   C74     1.529   1_655 S
C278   H280    1.110   .     S
C278   C281    1.525   .     S
C278   H279    1.112   .     S
C281   H283    1.111   .     S
C281   H282    1.110   .     S
C281   H284    1.111   .     S
O285   C286    1.419   .     S
C286   H287    1.111   .     S
C286   H288    1.117   .     S
C286   C289    1.532   .     S
C289   H290    1.111   .     S
C289   H903    1.110   1_545 S
C289   C88     1.527   1_655 S
H291   C595    1.110   .     S
C292   H295    1.111   .     S
C292   H293    1.111   .     S
C292   H906    1.110   1_545 S
H294   C598    1.110   .     S
O296   C297    1.417   .     S
C297   H298    1.111   .     S
C297   H299    1.116   .     S
C297   C300    1.532   .     S
C300   C303    1.526   .     S
C300   H301    1.112   .     S
C300   H608    1.111   .     S
H302   C912    1.111   1_545 S
C303   H304    1.111   .     S
C303   H305    1.110   .     S
C303   H306    1.111   .     S
C307   C318    1.408   .     S
C307   O357    1.280   .     A
C307   O355    1.279   .     A
C308   O356    1.277   .     A
C308   C317    1.413   .     S
C308   O358    1.285   .     A
C309   C311    1.396   .     A
C309   C338    1.419   .     A
C309   H345    1.077   .     S
C310   H346    1.077   .     S
C310   C312    1.396   .     A
C310   C337    1.419   .     A
C311   O365    1.386   .     S
C311   C1253   1.398   1_554 S
C312   O376    1.385   .     S
C312   C1254   1.397   .     S
C313   C318    1.392   .     A
C313   H347    1.084   .     S
C313   C621    1.372   .     S
C314   H348    1.085   .     S
C314   C317    1.396   .     A
C315   C317    1.407   .     A
C315   O387    1.386   .     S
C316   O398    1.385   .     S
C316   C318    1.403   .     A
C316   C620    1.374   .     S
C319   N354    1.366   .     A
C319   H349    1.081   .     S
C319   C423    1.416   .     S
C320   H350    1.081   .     S
C320   N353    1.366   .     A
C320   C526    1.416   1_455 S
C321   N353    1.367   .     A
C321   H351    1.082   .     S
C321   C523    1.416   1_455 S
C322   N354    1.367   .     A
C322   H352    1.082   .     S
C322   C422    1.416   .     S
C323   O361    1.292   .     A
C323   O359    1.292   .     A
C323   C325    1.454   .     S
C324   O362    1.291   .     A
C324   C326    1.453   .     S
C324   O360    1.292   .     A
C325   C329    1.396   .     A
C325   C331    1.388   .     A
C326   C330    1.396   .     A
C326   C332    1.388   .     A
C327   C335    1.410   .     A
C327   C329    1.394   .     A
C327   H343    1.083   .     S
C328   C330    1.393   .     A
C328   H344    1.083   .     S
C328   C336    1.409   .     A
C329   H342    1.083   .     S
C330   H341    1.083   .     S
C331   H340    1.077   .     S
C331   C333    1.394   .     A
C332   H339    1.077   .     S
C332   C334    1.393   .     A
C333   C335    1.421   .     A
C333   C337    1.420   .     A
C334   C338    1.419   .     A
C334   C336    1.420   .     A
C335   C1229   1.398   .     S
C336   C1230   1.397   1_554 S
C337   C1256   1.412   .     S
C338   C1255   1.412   1_554 S
N353   Zn363   2.009   .     S
N354   Zn364   2.009   .     S
O355   Zn363   1.990   .     S
O356   Zn364   1.990   .     S
O357   Zn364   1.987   .     S
O358   Zn363   1.987   .     S
O359   Zn363   1.966   .     S
O360   Zn364   1.966   .     S
O361   Zn364   1.902   .     S
O362   Zn363   1.902   .     S
O365   C366    1.413   .     S
C366   H368    1.116   .     S
C366   H367    1.114   .     S
C366   C573    1.530   1_455 S
C369   H371    1.112   .     S
C369   C372    1.526   .     S
C369   H370    1.110   .     S
C369   C468    1.530   .     S
C372   H374    1.111   .     S
C372   H375    1.111   .     S
C372   H373    1.111   .     S
O376   C377    1.412   .     S
C377   H379    1.114   .     S
C377   H378    1.116   .     S
C377   C482    1.529   .     S
C380   H382    1.110   .     S
C380   C383    1.525   .     S
C380   H381    1.112   .     S
C380   C581    1.529   1_455 S
C383   H385    1.111   .     S
C383   H384    1.110   .     S
C383   H386    1.111   .     S
O387   C388    1.419   .     S
C388   H389    1.111   .     S
C388   H390    1.117   .     S
C388   C391    1.532   .     S
C391   H392    1.111   .     S
C391   C496    1.527   .     S
H393   C697    1.110   .     S
C394   H397    1.111   .     S
C394   H395    1.111   .     S
C394   C595    1.527   1_455 S
H396   C700    1.110   .     S
O398   C399    1.417   .     S
C399   H400    1.111   .     S
C399   H401    1.116   .     S
C399   C402    1.532   .     S
C402   C405    1.526   .     S
C402   H403    1.112   .     S
C402   H710    1.111   .     S
C405   H406    1.111   .     S
C405   H407    1.110   .     S
C405   H408    1.111   .     S
C409   C420    1.408   .     S
C409   O459    1.280   .     A
C409   O457    1.279   .     A
C410   O458    1.277   .     A
C410   C419    1.413   .     S
C410   O460    1.285   .     A
C411   C413    1.396   .     A
C411   C440    1.419   .     A
C411   H447    1.077   .     S
C412   H448    1.077   .     S
C412   C414    1.396   .     A
C412   C439    1.419   .     A
C413   O467    1.386   .     S
C413   C1355   1.398   1_554 S
C414   O478    1.385   .     S
C414   C1356   1.397   .     S
C415   C420    1.392   .     A
C415   H449    1.084   .     S
C415   C723    1.372   .     S
C416   H450    1.085   .     S
C416   C419    1.396   .     A
C417   C419    1.407   .     A
C417   O489    1.386   .     S
C418   O500    1.385   .     S
C418   C420    1.403   .     A
C418   C722    1.374   .     S
C421   N456    1.366   .     A
C421   H451    1.081   .     S
C421   C525    1.416   .     S
C422   H452    1.081   .     S
C422   N455    1.366   .     A
C423   N455    1.367   .     A
C423   H453    1.082   .     S
C424   N456    1.367   .     A
C424   H454    1.082   .     S
C424   C524    1.416   .     S
C425   O463    1.292   .     A
C425   O461    1.292   .     A
C425   C427    1.454   .     S
C426   O464    1.291   .     A
C426   C428    1.453   .     S
C426   O462    1.292   .     A
C427   C431    1.396   .     A
C427   C433    1.388   .     A
C428   C432    1.396   .     A
C428   C434    1.388   .     A
C429   C437    1.410   .     A
C429   C431    1.394   .     A
C429   H445    1.083   .     S
C430   C432    1.393   .     A
C430   H446    1.083   .     S
C430   C438    1.409   .     A
C431   H444    1.083   .     S
C432   H443    1.083   .     S
C433   H442    1.077   .     S
C433   C435    1.394   .     A
C434   H441    1.077   .     S
C434   C436    1.393   .     A
C435   C437    1.421   .     A
C435   C439    1.420   .     A
C436   C440    1.419   .     A
C436   C438    1.420   .     A
C437   C1331   1.398   .     S
C438   C1332   1.397   1_554 S
C439   C1358   1.412   .     S
C440   C1357   1.412   1_554 S
N455   Zn465   2.009   .     S
N456   Zn466   2.009   .     S
O457   Zn465   1.990   .     S
O458   Zn466   1.990   .     S
O459   Zn466   1.987   .     S
O460   Zn465   1.987   .     S
O461   Zn465   1.966   .     S
O462   Zn466   1.966   .     S
O463   Zn466   1.902   .     S
O464   Zn465   1.902   .     S
O467   C468    1.413   .     S
C468   H470    1.116   .     S
C468   H469    1.114   .     S
C471   H473    1.112   .     S
C471   C474    1.526   .     S
C471   H472    1.110   .     S
C471   C570    1.530   .     S
C474   H476    1.111   .     S
C474   H477    1.111   .     S
C474   H475    1.111   .     S
O478   C479    1.412   .     S
C479   H481    1.114   .     S
C479   H480    1.116   .     S
C479   C584    1.529   .     S
C482   H484    1.110   .     S
C482   C485    1.525   .     S
C482   H483    1.112   .     S
C485   H487    1.111   .     S
C485   H486    1.110   .     S
C485   H488    1.111   .     S
O489   C490    1.419   .     S
C490   H491    1.111   .     S
C490   H492    1.117   .     S
C490   C493    1.532   .     S
C493   H494    1.111   .     S
C493   C598    1.527   .     S
H495   C799    1.110   .     S
C496   H499    1.111   .     S
C496   H497    1.111   .     S
H498   C802    1.110   .     S
O500   C501    1.417   .     S
C501   H502    1.111   .     S
C501   H503    1.116   .     S
C501   C504    1.532   .     S
C504   C507    1.526   .     S
C504   H505    1.112   .     S
C504   H812    1.111   .     S
C507   H508    1.111   .     S
C507   H509    1.110   .     S
C507   H510    1.111   .     S
C511   C522    1.408   .     S
C511   O561    1.280   .     A
C511   O559    1.279   .     A
C512   O560    1.277   .     A
C512   C521    1.413   .     S
C512   O562    1.285   .     A
C513   C515    1.396   .     A
C513   C542    1.419   .     A
C513   H549    1.077   .     S
C514   H550    1.077   .     S
C514   C516    1.396   .     A
C514   C541    1.419   .     A
C515   O569    1.386   .     S
C515   C1457   1.398   1_554 S
C516   O580    1.385   .     S
C516   C1458   1.397   .     S
C517   C522    1.392   .     A
C517   H551    1.084   .     S
C517   C825    1.372   .     S
C518   H552    1.085   .     S
C518   C521    1.396   .     A
C519   C521    1.407   .     A
C519   O591    1.386   .     S
C520   O602    1.385   .     S
C520   C522    1.403   .     A
C520   C824    1.374   .     S
C523   N558    1.366   .     A
C523   H553    1.081   .     S
C523   C321    1.416   1_655 S
C524   H554    1.081   .     S
C524   N557    1.366   .     A
C525   N557    1.367   .     A
C525   H555    1.082   .     S
C526   N558    1.367   .     A
C526   H556    1.082   .     S
C526   C320    1.416   1_655 S
C527   O565    1.292   .     A
C527   O563    1.292   .     A
C527   C529    1.454   .     S
C528   O566    1.291   .     A
C528   C530    1.453   .     S
C528   O564    1.292   .     A
C529   C533    1.396   .     A
C529   C535    1.388   .     A
C530   C534    1.396   .     A
C530   C536    1.388   .     A
C531   C539    1.410   .     A
C531   C533    1.394   .     A
C531   H547    1.083   .     S
C532   C534    1.393   .     A
C532   H548    1.083   .     S
C532   C540    1.409   .     A
C533   H546    1.083   .     S
C534   H545    1.083   .     S
C535   H544    1.077   .     S
C535   C537    1.394   .     A
C536   H543    1.077   .     S
C536   C538    1.393   .     A
C537   C539    1.421   .     A
C537   C541    1.420   .     A
C538   C542    1.419   .     A
C538   C540    1.420   .     A
C539   C1433   1.398   .     S
C540   C1434   1.397   1_554 S
C541   C1460   1.412   .     S
C542   C1459   1.412   1_554 S
N557   Zn567   2.009   .     S
N558   Zn568   2.009   .     S
O559   Zn567   1.990   .     S
O560   Zn568   1.990   .     S
O561   Zn568   1.987   .     S
O562   Zn567   1.987   .     S
O563   Zn567   1.966   .     S
O564   Zn568   1.966   .     S
O565   Zn568   1.902   .     S
O566   Zn567   1.902   .     S
O569   C570    1.413   .     S
C570   H572    1.116   .     S
C570   H571    1.114   .     S
C573   H575    1.112   .     S
C573   C576    1.526   .     S
C573   H574    1.110   .     S
C573   C366    1.530   1_655 S
C576   H578    1.111   .     S
C576   H579    1.111   .     S
C576   H577    1.111   .     S
O580   C581    1.412   .     S
C581   H583    1.114   .     S
C581   H582    1.116   .     S
C581   C380    1.529   1_655 S
C584   H586    1.110   .     S
C584   C587    1.525   .     S
C584   H585    1.112   .     S
C587   H589    1.111   .     S
C587   H588    1.110   .     S
C587   H590    1.111   .     S
O591   C592    1.419   .     S
C592   H593    1.111   .     S
C592   H594    1.117   .     S
C592   C595    1.532   .     S
C595   H596    1.111   .     S
C595   C394    1.527   1_655 S
H597   C901    1.110   .     S
C598   H601    1.111   .     S
C598   H599    1.111   .     S
H600   C904    1.110   .     S
O602   C603    1.417   .     S
C603   H604    1.111   .     S
C603   H605    1.116   .     S
C603   C606    1.532   .     S
C606   C609    1.526   .     S
C606   H607    1.112   .     S
C606   H914    1.111   .     S
C609   H610    1.111   .     S
C609   H611    1.110   .     S
C609   H612    1.111   .     S
C613   C624    1.408   .     S
C613   O663    1.280   .     A
C613   O661    1.279   .     A
C614   O662    1.277   .     A
C614   C623    1.413   .     S
C614   O664    1.285   .     A
C615   C617    1.396   .     A
C615   C644    1.419   .     A
C615   H651    1.077   .     S
C616   H652    1.077   .     S
C616   C618    1.396   .     A
C616   C643    1.419   .     A
C617   O671    1.386   .     S
C617   C1559   1.398   1_554 S
C618   O682    1.385   .     S
C618   C1560   1.397   .     S
C619   C624    1.392   .     A
C619   H653    1.084   .     S
C619   C9      1.372   1_565 S
C620   H654    1.085   .     S
C620   C623    1.396   .     A
C621   C623    1.407   .     A
C621   O693    1.386   .     S
C622   O704    1.385   .     S
C622   C624    1.403   .     A
C622   C8      1.374   1_565 S
C625   N660    1.366   .     A
C625   H655    1.081   .     S
C625   C729    1.416   .     S
C626   H656    1.081   .     S
C626   N659    1.366   .     A
C626   C832    1.416   1_455 S
C627   N659    1.367   .     A
C627   H657    1.082   .     S
C627   C829    1.416   1_455 S
C628   N660    1.367   .     A
C628   H658    1.082   .     S
C628   C728    1.416   .     S
C629   O667    1.292   .     A
C629   O665    1.292   .     A
C629   C631    1.454   .     S
C630   O668    1.291   .     A
C630   C632    1.453   .     S
C630   O666    1.292   .     A
C631   C635    1.396   .     A
C631   C637    1.388   .     A
C632   C636    1.396   .     A
C632   C638    1.388   .     A
C633   C641    1.410   .     A
C633   C635    1.394   .     A
C633   H649    1.083   .     S
C634   C636    1.393   .     A
C634   H650    1.083   .     S
C634   C642    1.409   .     A
C635   H648    1.083   .     S
C636   H647    1.083   .     S
C637   H646    1.077   .     S
C637   C639    1.394   .     A
C638   H645    1.077   .     S
C638   C640    1.393   .     A
C639   C641    1.421   .     A
C639   C643    1.420   .     A
C640   C644    1.419   .     A
C640   C642    1.420   .     A
C641   C1535   1.398   .     S
C642   C1536   1.397   1_554 S
C643   C1562   1.412   .     S
C644   C1561   1.412   1_554 S
N659   Zn669   2.009   .     S
N660   Zn670   2.009   .     S
O661   Zn669   1.990   .     S
O662   Zn670   1.990   .     S
O663   Zn670   1.987   .     S
O664   Zn669   1.987   .     S
O665   Zn669   1.966   .     S
O666   Zn670   1.966   .     S
O667   Zn670   1.902   .     S
O668   Zn669   1.902   .     S
O671   C672    1.413   .     S
C672   H674    1.116   .     S
C672   H673    1.114   .     S
C672   C879    1.530   1_455 S
C675   H677    1.112   .     S
C675   C678    1.526   .     S
C675   H676    1.110   .     S
C675   C774    1.530   .     S
C678   H680    1.111   .     S
C678   H681    1.111   .     S
C678   H679    1.111   .     S
O682   C683    1.412   .     S
C683   H685    1.114   .     S
C683   H684    1.116   .     S
C683   C788    1.529   .     S
C686   H688    1.110   .     S
C686   C689    1.525   .     S
C686   H687    1.112   .     S
C686   C887    1.529   1_455 S
C689   H691    1.111   .     S
C689   H690    1.110   .     S
C689   H692    1.111   .     S
O693   C694    1.419   .     S
C694   H695    1.111   .     S
C694   H696    1.117   .     S
C694   C697    1.532   .     S
C697   H698    1.111   .     S
C697   C802    1.527   .     S
H699   C85     1.110   1_565 S
C700   H703    1.111   .     S
C700   H701    1.111   .     S
C700   C901    1.527   1_455 S
H702   C88     1.110   1_565 S
O704   C705    1.417   .     S
C705   H706    1.111   .     S
C705   H707    1.116   .     S
C705   C708    1.532   .     S
C708   C711    1.526   .     S
C708   H709    1.112   .     S
C708   H98     1.111   1_565 S
C711   H712    1.111   .     S
C711   H713    1.110   .     S
C711   H714    1.111   .     S
C715   C726    1.408   .     S
C715   O765    1.280   .     A
C715   O763    1.279   .     A
C716   O764    1.277   .     A
C716   C725    1.413   .     S
C716   O766    1.285   .     A
C717   C719    1.396   .     A
C717   C746    1.419   .     A
C717   H753    1.077   .     S
C718   H754    1.077   .     S
C718   C720    1.396   .     A
C718   C745    1.419   .     A
C719   O773    1.386   .     S
C719   C1661   1.398   1_554 S
C720   O784    1.385   .     S
C720   C1662   1.397   .     S
C721   C726    1.392   .     A
C721   H755    1.084   .     S
C721   C111    1.372   1_565 S
C722   H756    1.085   .     S
C722   C725    1.396   .     A
C723   C725    1.407   .     A
C723   O795    1.386   .     S
C724   O806    1.385   .     S
C724   C726    1.403   .     A
C724   C110    1.374   1_565 S
C727   N762    1.366   .     A
C727   H757    1.081   .     S
C727   C831    1.416   .     S
C728   H758    1.081   .     S
C728   N761    1.366   .     A
C729   N761    1.367   .     A
C729   H759    1.082   .     S
C730   N762    1.367   .     A
C730   H760    1.082   .     S
C730   C830    1.416   .     S
C731   O769    1.292   .     A
C731   O767    1.292   .     A
C731   C733    1.454   .     S
C732   O770    1.291   .     A
C732   C734    1.453   .     S
C732   O768    1.292   .     A
C733   C737    1.396   .     A
C733   C739    1.388   .     A
C734   C738    1.396   .     A
C734   C740    1.388   .     A
C735   C743    1.410   .     A
C735   C737    1.394   .     A
C735   H751    1.083   .     S
C736   C738    1.393   .     A
C736   H752    1.083   .     S
C736   C744    1.409   .     A
C737   H750    1.083   .     S
C738   H749    1.083   .     S
C739   H748    1.077   .     S
C739   C741    1.394   .     A
C740   H747    1.077   .     S
C740   C742    1.393   .     A
C741   C743    1.421   .     A
C741   C745    1.420   .     A
C742   C746    1.419   .     A
C742   C744    1.420   .     A
C743   C1637   1.398   .     S
C744   C1638   1.397   1_554 S
C745   C1664   1.412   .     S
C746   C1663   1.412   1_554 S
N761   Zn771   2.009   .     S
N762   Zn772   2.009   .     S
O763   Zn771   1.990   .     S
O764   Zn772   1.990   .     S
O765   Zn772   1.987   .     S
O766   Zn771   1.987   .     S
O767   Zn771   1.966   .     S
O768   Zn772   1.966   .     S
O769   Zn772   1.902   .     S
O770   Zn771   1.902   .     S
O773   C774    1.413   .     S
C774   H776    1.116   .     S
C774   H775    1.114   .     S
C777   H779    1.112   .     S
C777   C780    1.526   .     S
C777   H778    1.110   .     S
C777   C876    1.530   .     S
C780   H782    1.111   .     S
C780   H783    1.111   .     S
C780   H781    1.111   .     S
O784   C785    1.412   .     S
C785   H787    1.114   .     S
C785   H786    1.116   .     S
C785   C890    1.529   .     S
C788   H790    1.110   .     S
C788   C791    1.525   .     S
C788   H789    1.112   .     S
C791   H793    1.111   .     S
C791   H792    1.110   .     S
C791   H794    1.111   .     S
O795   C796    1.419   .     S
C796   H797    1.111   .     S
C796   H798    1.117   .     S
C796   C799    1.532   .     S
C799   H800    1.111   .     S
C799   C904    1.527   .     S
H801   C187    1.110   1_565 S
C802   H805    1.111   .     S
C802   H803    1.111   .     S
H804   C190    1.110   1_565 S
O806   C807    1.417   .     S
C807   H808    1.111   .     S
C807   H809    1.116   .     S
C807   C810    1.532   .     S
C810   C813    1.526   .     S
C810   H811    1.112   .     S
C810   H200    1.111   1_565 S
C813   H814    1.111   .     S
C813   H815    1.110   .     S
C813   H816    1.111   .     S
C817   C828    1.408   .     S
C817   O867    1.280   .     A
C817   O865    1.279   .     A
C818   O866    1.277   .     A
C818   C827    1.413   .     S
C818   O868    1.285   .     A
C819   C821    1.396   .     A
C819   C848    1.419   .     A
C819   H855    1.077   .     S
C820   H856    1.077   .     S
C820   C822    1.396   .     A
C820   C847    1.419   .     A
C821   O875    1.386   .     S
C821   C1763   1.398   1_554 S
C822   O886    1.385   .     S
C822   C1764   1.397   .     S
C823   C828    1.392   .     A
C823   H857    1.084   .     S
C823   C213    1.372   1_565 S
C824   H858    1.085   .     S
C824   C827    1.396   .     A
C825   C827    1.407   .     A
C825   O897    1.386   .     S
C826   O908    1.385   .     S
C826   C828    1.403   .     A
C826   C212    1.374   1_565 S
C829   N864    1.366   .     A
C829   H859    1.081   .     S
C829   C627    1.416   1_655 S
C830   H860    1.081   .     S
C830   N863    1.366   .     A
C831   N863    1.367   .     A
C831   H861    1.082   .     S
C832   N864    1.367   .     A
C832   H862    1.082   .     S
C832   C626    1.416   1_655 S
C833   O871    1.292   .     A
C833   O869    1.292   .     A
C833   C835    1.454   .     S
C834   O872    1.291   .     A
C834   C836    1.453   .     S
C834   O870    1.292   .     A
C835   C839    1.396   .     A
C835   C841    1.388   .     A
C836   C840    1.396   .     A
C836   C842    1.388   .     A
C837   C845    1.410   .     A
C837   C839    1.394   .     A
C837   H853    1.083   .     S
C838   C840    1.393   .     A
C838   H854    1.083   .     S
C838   C846    1.409   .     A
C839   H852    1.083   .     S
C840   H851    1.083   .     S
C841   H850    1.077   .     S
C841   C843    1.394   .     A
C842   H849    1.077   .     S
C842   C844    1.393   .     A
C843   C845    1.421   .     A
C843   C847    1.420   .     A
C844   C848    1.419   .     A
C844   C846    1.420   .     A
C845   C1739   1.398   .     S
C846   C1740   1.397   1_554 S
C847   C1766   1.412   .     S
C848   C1765   1.412   1_554 S
N863   Zn873   2.009   .     S
N864   Zn874   2.009   .     S
O865   Zn873   1.990   .     S
O866   Zn874   1.990   .     S
O867   Zn874   1.987   .     S
O868   Zn873   1.987   .     S
O869   Zn873   1.966   .     S
O870   Zn874   1.966   .     S
O871   Zn874   1.902   .     S
O872   Zn873   1.902   .     S
O875   C876    1.413   .     S
C876   H878    1.116   .     S
C876   H877    1.114   .     S
C879   H881    1.112   .     S
C879   C882    1.526   .     S
C879   H880    1.110   .     S
C879   C672    1.530   1_655 S
C882   H884    1.111   .     S
C882   H885    1.111   .     S
C882   H883    1.111   .     S
O886   C887    1.412   .     S
C887   H889    1.114   .     S
C887   H888    1.116   .     S
C887   C686    1.529   1_655 S
C890   H892    1.110   .     S
C890   C893    1.525   .     S
C890   H891    1.112   .     S
C893   H895    1.111   .     S
C893   H894    1.110   .     S
C893   H896    1.111   .     S
O897   C898    1.419   .     S
C898   H899    1.111   .     S
C898   H900    1.117   .     S
C898   C901    1.532   .     S
C901   H902    1.111   .     S
C901   C700    1.527   1_655 S
H903   C289    1.110   1_565 S
C904   H907    1.111   .     S
C904   H905    1.111   .     S
H906   C292    1.110   1_565 S
O908   C909    1.417   .     S
C909   H910    1.111   .     S
C909   H911    1.116   .     S
C909   C912    1.532   .     S
C912   C915    1.526   .     S
C912   H913    1.112   .     S
C912   H302    1.111   1_565 S
C915   H916    1.111   .     S
C915   H917    1.110   .     S
C915   H918    1.111   .     S
C919   C930    1.408   .     S
C919   O969    1.280   .     A
C919   O967    1.279   .     A
C920   O968    1.277   .     A
C920   C929    1.413   .     S
C920   O970    1.285   .     A
C921   C923    1.396   .     A
C921   C950    1.419   .     A
C921   H957    1.077   .     S
C922   H958    1.077   .     S
C922   C924    1.396   .     A
C922   C949    1.419   .     A
C923   O977    1.386   .     S
C924   O988    1.385   .     S
C924   C30     1.397   1_556 S
C925   C930    1.392   .     A
C925   H959    1.084   .     S
C925   C1233   1.372   .     S
C926   H960    1.085   .     S
C926   C929    1.396   .     A
C926   C1540   1.374   1_545 S
C927   C929    1.407   .     A
C927   O999    1.386   .     S
C927   C1537   1.372   1_545 S
C928   O1010   1.385   .     S
C928   C930    1.403   .     A
C928   C1232   1.374   .     S
C931   N966    1.366   .     A
C931   H961    1.081   .     S
C931   C1035   1.416   .     S
C932   H962    1.081   .     S
C932   N965    1.366   .     A
C932   C1138   1.416   1_455 S
C933   N965    1.367   .     A
C933   H963    1.082   .     S
C933   C1135   1.416   1_455 S
C934   N966    1.367   .     A
C934   H964    1.082   .     S
C934   C1034   1.416   .     S
C935   O973    1.292   .     A
C935   O971    1.292   .     A
C935   C937    1.454   .     S
C936   O974    1.291   .     A
C936   C938    1.453   .     S
C936   O972    1.292   .     A
C937   C941    1.396   .     A
C937   C943    1.388   .     A
C938   C942    1.396   .     A
C938   C944    1.388   .     A
C939   C947    1.410   .     A
C939   C941    1.394   .     A
C939   H955    1.083   .     S
C940   C942    1.393   .     A
C940   H956    1.083   .     S
C940   C948    1.409   .     A
C941   H954    1.083   .     S
C942   H953    1.083   .     S
C943   H952    1.077   .     S
C943   C945    1.394   .     A
C944   H951    1.077   .     S
C944   C946    1.393   .     A
C945   C947    1.421   .     A
C945   C949    1.420   .     A
C946   C950    1.419   .     A
C946   C948    1.420   .     A
C947   C5      1.398   1_556 S
C949   C32     1.412   1_556 S
N965   Zn975   2.009   .     S
N966   Zn976   2.009   .     S
O967   Zn975   1.990   .     S
O968   Zn976   1.990   .     S
O969   Zn976   1.987   .     S
O970   Zn975   1.987   .     S
O971   Zn975   1.966   .     S
O972   Zn976   1.966   .     S
O973   Zn976   1.902   .     S
O974   Zn975   1.902   .     S
O977   C978    1.413   .     S
C978   H980    1.116   .     S
C978   H979    1.114   .     S
C978   C1185   1.530   1_455 S
C981   H983    1.112   .     S
C981   C984    1.526   .     S
C981   H982    1.110   .     S
C981   C1080   1.530   .     S
C984   H986    1.111   .     S
C984   H987    1.111   .     S
C984   H985    1.111   .     S
O988   C989    1.412   .     S
C989   H991    1.114   .     S
C989   H990    1.116   .     S
C989   C1094   1.529   .     S
C992   H994    1.110   .     S
C992   C995    1.525   .     S
C992   H993    1.112   .     S
C992   C1193   1.529   1_455 S
C995   H997    1.111   .     S
C995   H996    1.110   .     S
C995   H998    1.111   .     S
O999   C1000   1.419   .     S
C1000  H1001   1.111   .     S
C1000  H1002   1.117   .     S
C1000  C1003   1.532   .     S
C1003  H1004   1.111   .     S
C1003  H1617   1.110   1_545 S
C1003  C1108   1.527   .     S
H1005  C1309   1.110   .     S
C1006  H1009   1.111   .     S
C1006  H1007   1.111   .     S
C1006  C1207   1.527   1_455 S
C1006  H1620   1.110   1_545 S
H1008  C1312   1.110   .     S
O1010  C1011   1.417   .     S
C1011  H1012   1.111   .     S
C1011  H1013   1.116   .     S
C1011  C1014   1.532   .     S
C1014  C1017   1.526   .     S
C1014  H1015   1.112   .     S
C1014  H1322   1.111   .     S
H1016  C1626   1.111   1_545 S
C1017  H1018   1.111   .     S
C1017  H1019   1.110   .     S
C1017  H1020   1.111   .     S
C1021  C1032   1.408   .     S
C1021  O1071   1.280   .     A
C1021  O1069   1.279   .     A
C1022  O1070   1.277   .     A
C1022  C1031   1.413   .     S
C1022  O1072   1.285   .     A
C1023  C1025   1.396   .     A
C1023  C1052   1.419   .     A
C1023  H1059   1.077   .     S
C1024  H1060   1.077   .     S
C1024  C1026   1.396   .     A
C1024  C1051   1.419   .     A
C1025  O1079   1.386   .     S
C1026  O1090   1.385   .     S
C1026  C132    1.397   1_556 S
C1027  C1032   1.392   .     A
C1027  H1061   1.084   .     S
C1027  C1335   1.372   .     S
C1028  H1062   1.085   .     S
C1028  C1031   1.396   .     A
C1028  C1642   1.374   1_545 S
C1029  C1031   1.407   .     A
C1029  O1101   1.386   .     S
C1029  C1639   1.372   1_545 S
C1030  O1112   1.385   .     S
C1030  C1032   1.403   .     A
C1030  C1334   1.374   .     S
C1033  N1068   1.366   .     A
C1033  H1063   1.081   .     S
C1033  C1137   1.416   .     S
C1034  H1064   1.081   .     S
C1034  N1067   1.366   .     A
C1035  N1067   1.367   .     A
C1035  H1065   1.082   .     S
C1036  N1068   1.367   .     A
C1036  H1066   1.082   .     S
C1036  C1136   1.416   .     S
C1037  O1075   1.292   .     A
C1037  O1073   1.292   .     A
C1037  C1039   1.454   .     S
C1038  O1076   1.291   .     A
C1038  C1040   1.453   .     S
C1038  O1074   1.292   .     A
C1039  C1043   1.396   .     A
C1039  C1045   1.388   .     A
C1040  C1044   1.396   .     A
C1040  C1046   1.388   .     A
C1041  C1049   1.410   .     A
C1041  C1043   1.394   .     A
C1041  H1057   1.083   .     S
C1042  C1044   1.393   .     A
C1042  H1058   1.083   .     S
C1042  C1050   1.409   .     A
C1043  H1056   1.083   .     S
C1044  H1055   1.083   .     S
C1045  H1054   1.077   .     S
C1045  C1047   1.394   .     A
C1046  H1053   1.077   .     S
C1046  C1048   1.393   .     A
C1047  C1049   1.421   .     A
C1047  C1051   1.420   .     A
C1048  C1052   1.419   .     A
C1048  C1050   1.420   .     A
C1049  C107    1.398   1_556 S
C1051  C134    1.412   1_556 S
N1067  Zn1077  2.009   .     S
N1068  Zn1078  2.009   .     S
O1069  Zn1077  1.990   .     S
O1070  Zn1078  1.990   .     S
O1071  Zn1078  1.987   .     S
O1072  Zn1077  1.987   .     S
O1073  Zn1077  1.966   .     S
O1074  Zn1078  1.966   .     S
O1075  Zn1078  1.902   .     S
O1076  Zn1077  1.902   .     S
O1079  C1080   1.413   .     S
C1080  H1082   1.116   .     S
C1080  H1081   1.114   .     S
C1083  H1085   1.112   .     S
C1083  C1086   1.526   .     S
C1083  H1084   1.110   .     S
C1083  C1182   1.530   .     S
C1086  H1088   1.111   .     S
C1086  H1089   1.111   .     S
C1086  H1087   1.111   .     S
O1090  C1091   1.412   .     S
C1091  H1093   1.114   .     S
C1091  H1092   1.116   .     S
C1091  C1196   1.529   .     S
C1094  H1096   1.110   .     S
C1094  C1097   1.525   .     S
C1094  H1095   1.112   .     S
C1097  H1099   1.111   .     S
C1097  H1098   1.110   .     S
C1097  H1100   1.111   .     S
O1101  C1102   1.419   .     S
C1102  H1103   1.111   .     S
C1102  H1104   1.117   .     S
C1102  C1105   1.532   .     S
C1105  H1106   1.111   .     S
C1105  H1719   1.110   1_545 S
C1105  C1210   1.527   .     S
H1107  C1411   1.110   .     S
C1108  H1111   1.111   .     S
C1108  H1109   1.111   .     S
C1108  H1722   1.110   1_545 S
H1110  C1414   1.110   .     S
O1112  C1113   1.417   .     S
C1113  H1114   1.111   .     S
C1113  H1115   1.116   .     S
C1113  C1116   1.532   .     S
C1116  C1119   1.526   .     S
C1116  H1117   1.112   .     S
C1116  H1424   1.111   .     S
H1118  C1728   1.111   1_545 S
C1119  H1120   1.111   .     S
C1119  H1121   1.110   .     S
C1119  H1122   1.111   .     S
C1123  C1134   1.408   .     S
C1123  O1173   1.280   .     A
C1123  O1171   1.279   .     A
C1124  O1172   1.277   .     A
C1124  C1133   1.413   .     S
C1124  O1174   1.285   .     A
C1125  C1127   1.396   .     A
C1125  C1154   1.419   .     A
C1125  H1161   1.077   .     S
C1126  H1162   1.077   .     S
C1126  C1128   1.396   .     A
C1126  C1153   1.419   .     A
C1127  O1181   1.386   .     S
C1128  O1192   1.385   .     S
C1128  C234    1.397   1_556 S
C1129  C1134   1.392   .     A
C1129  H1163   1.084   .     S
C1129  C1437   1.372   .     S
C1130  H1164   1.085   .     S
C1130  C1133   1.396   .     A
C1130  C1744   1.374   1_545 S
C1131  C1133   1.407   .     A
C1131  O1203   1.386   .     S
C1131  C1741   1.372   1_545 S
C1132  O1214   1.385   .     S
C1132  C1134   1.403   .     A
C1132  C1436   1.374   .     S
C1135  N1170   1.366   .     A
C1135  H1165   1.081   .     S
C1135  C933    1.416   1_655 S
C1136  H1166   1.081   .     S
C1136  N1169   1.366   .     A
C1137  N1169   1.367   .     A
C1137  H1167   1.082   .     S
C1138  N1170   1.367   .     A
C1138  H1168   1.082   .     S
C1138  C932    1.416   1_655 S
C1139  O1177   1.292   .     A
C1139  O1175   1.292   .     A
C1139  C1141   1.454   .     S
C1140  O1178   1.291   .     A
C1140  C1142   1.453   .     S
C1140  O1176   1.292   .     A
C1141  C1145   1.396   .     A
C1141  C1147   1.388   .     A
C1142  C1146   1.396   .     A
C1142  C1148   1.388   .     A
C1143  C1151   1.410   .     A
C1143  C1145   1.394   .     A
C1143  H1159   1.083   .     S
C1144  C1146   1.393   .     A
C1144  H1160   1.083   .     S
C1144  C1152   1.409   .     A
C1145  H1158   1.083   .     S
C1146  H1157   1.083   .     S
C1147  H1156   1.077   .     S
C1147  C1149   1.394   .     A
C1148  H1155   1.077   .     S
C1148  C1150   1.393   .     A
C1149  C1151   1.421   .     A
C1149  C1153   1.420   .     A
C1150  C1154   1.419   .     A
C1150  C1152   1.420   .     A
C1151  C209    1.398   1_556 S
C1153  C236    1.412   1_556 S
N1169  Zn1179  2.009   .     S
N1170  Zn1180  2.009   .     S
O1171  Zn1179  1.990   .     S
O1172  Zn1180  1.990   .     S
O1173  Zn1180  1.987   .     S
O1174  Zn1179  1.987   .     S
O1175  Zn1179  1.966   .     S
O1176  Zn1180  1.966   .     S
O1177  Zn1180  1.902   .     S
O1178  Zn1179  1.902   .     S
O1181  C1182   1.413   .     S
C1182  H1184   1.116   .     S
C1182  H1183   1.114   .     S
C1185  H1187   1.112   .     S
C1185  C1188   1.526   .     S
C1185  H1186   1.110   .     S
C1185  C978    1.530   1_655 S
C1188  H1190   1.111   .     S
C1188  H1191   1.111   .     S
C1188  H1189   1.111   .     S
O1192  C1193   1.412   .     S
C1193  H1195   1.114   .     S
C1193  H1194   1.116   .     S
C1193  C992    1.529   1_655 S
C1196  H1198   1.110   .     S
C1196  C1199   1.525   .     S
C1196  H1197   1.112   .     S
C1199  H1201   1.111   .     S
C1199  H1200   1.110   .     S
C1199  H1202   1.111   .     S
O1203  C1204   1.419   .     S
C1204  H1205   1.111   .     S
C1204  H1206   1.117   .     S
C1204  C1207   1.532   .     S
C1207  H1208   1.111   .     S
C1207  H1821   1.110   1_545 S
C1207  C1006   1.527   1_655 S
H1209  C1513   1.110   .     S
C1210  H1213   1.111   .     S
C1210  H1211   1.111   .     S
C1210  H1824   1.110   1_545 S
H1212  C1516   1.110   .     S
O1214  C1215   1.417   .     S
C1215  H1216   1.111   .     S
C1215  H1217   1.116   .     S
C1215  C1218   1.532   .     S
C1218  C1221   1.526   .     S
C1218  H1219   1.112   .     S
C1218  H1526   1.111   .     S
H1220  C1830   1.111   1_545 S
C1221  H1222   1.111   .     S
C1221  H1223   1.110   .     S
C1221  H1224   1.111   .     S
C1225  C1236   1.408   .     S
C1225  O1275   1.280   .     A
C1225  O1273   1.279   .     A
C1226  O1274   1.277   .     A
C1226  C1235   1.413   .     S
C1226  O1276   1.285   .     A
C1227  C1229   1.396   .     A
C1227  C1256   1.419   .     A
C1227  H1263   1.077   .     S
C1228  H1264   1.077   .     S
C1228  C1230   1.396   .     A
C1228  C1255   1.419   .     A
C1229  O1283   1.386   .     S
C1230  O1294   1.385   .     S
C1230  C336    1.397   1_556 S
C1231  C1236   1.392   .     A
C1231  H1265   1.084   .     S
C1231  C1539   1.372   .     S
C1232  H1266   1.085   .     S
C1232  C1235   1.396   .     A
C1233  C1235   1.407   .     A
C1233  O1305   1.386   .     S
C1234  O1316   1.385   .     S
C1234  C1236   1.403   .     A
C1234  C1538   1.374   .     S
C1237  N1272   1.366   .     A
C1237  H1267   1.081   .     S
C1237  C1341   1.416   .     S
C1238  H1268   1.081   .     S
C1238  N1271   1.366   .     A
C1238  C1444   1.416   1_455 S
C1239  N1271   1.367   .     A
C1239  H1269   1.082   .     S
C1239  C1441   1.416   1_455 S
C1240  N1272   1.367   .     A
C1240  H1270   1.082   .     S
C1240  C1340   1.416   .     S
C1241  O1279   1.292   .     A
C1241  O1277   1.292   .     A
C1241  C1243   1.454   .     S
C1242  O1280   1.291   .     A
C1242  C1244   1.453   .     S
C1242  O1278   1.292   .     A
C1243  C1247   1.396   .     A
C1243  C1249   1.388   .     A
C1244  C1248   1.396   .     A
C1244  C1250   1.388   .     A
C1245  C1253   1.410   .     A
C1245  C1247   1.394   .     A
C1245  H1261   1.083   .     S
C1246  C1248   1.393   .     A
C1246  H1262   1.083   .     S
C1246  C1254   1.409   .     A
C1247  H1260   1.083   .     S
C1248  H1259   1.083   .     S
C1249  H1258   1.077   .     S
C1249  C1251   1.394   .     A
C1250  H1257   1.077   .     S
C1250  C1252   1.393   .     A
C1251  C1253   1.421   .     A
C1251  C1255   1.420   .     A
C1252  C1256   1.419   .     A
C1252  C1254   1.420   .     A
C1253  C311    1.398   1_556 S
C1255  C338    1.412   1_556 S
N1271  Zn1281  2.009   .     S
N1272  Zn1282  2.009   .     S
O1273  Zn1281  1.990   .     S
O1274  Zn1282  1.990   .     S
O1275  Zn1282  1.987   .     S
O1276  Zn1281  1.987   .     S
O1277  Zn1281  1.966   .     S
O1278  Zn1282  1.966   .     S
O1279  Zn1282  1.902   .     S
O1280  Zn1281  1.902   .     S
O1283  C1284   1.413   .     S
C1284  H1286   1.116   .     S
C1284  H1285   1.114   .     S
C1284  C1491   1.530   1_455 S
C1287  H1289   1.112   .     S
C1287  C1290   1.526   .     S
C1287  H1288   1.110   .     S
C1287  C1386   1.530   .     S
C1290  H1292   1.111   .     S
C1290  H1293   1.111   .     S
C1290  H1291   1.111   .     S
O1294  C1295   1.412   .     S
C1295  H1297   1.114   .     S
C1295  H1296   1.116   .     S
C1295  C1400   1.529   .     S
C1298  H1300   1.110   .     S
C1298  C1301   1.525   .     S
C1298  H1299   1.112   .     S
C1298  C1499   1.529   1_455 S
C1301  H1303   1.111   .     S
C1301  H1302   1.110   .     S
C1301  H1304   1.111   .     S
O1305  C1306   1.419   .     S
C1306  H1307   1.111   .     S
C1306  H1308   1.117   .     S
C1306  C1309   1.532   .     S
C1309  H1310   1.111   .     S
C1309  C1414   1.527   .     S
H1311  C1615   1.110   .     S
C1312  H1315   1.111   .     S
C1312  H1313   1.111   .     S
C1312  C1513   1.527   1_455 S
H1314  C1618   1.110   .     S
O1316  C1317   1.417   .     S
C1317  H1318   1.111   .     S
C1317  H1319   1.116   .     S
C1317  C1320   1.532   .     S
C1320  C1323   1.526   .     S
C1320  H1321   1.112   .     S
C1320  H1628   1.111   .     S
C1323  H1324   1.111   .     S
C1323  H1325   1.110   .     S
C1323  H1326   1.111   .     S
C1327  C1338   1.408   .     S
C1327  O1377   1.280   .     A
C1327  O1375   1.279   .     A
C1328  O1376   1.277   .     A
C1328  C1337   1.413   .     S
C1328  O1378   1.285   .     A
C1329  C1331   1.396   .     A
C1329  C1358   1.419   .     A
C1329  H1365   1.077   .     S
C1330  H1366   1.077   .     S
C1330  C1332   1.396   .     A
C1330  C1357   1.419   .     A
C1331  O1385   1.386   .     S
C1332  O1396   1.385   .     S
C1332  C438    1.397   1_556 S
C1333  C1338   1.392   .     A
C1333  H1367   1.084   .     S
C1333  C1641   1.372   .     S
C1334  H1368   1.085   .     S
C1334  C1337   1.396   .     A
C1335  C1337   1.407   .     A
C1335  O1407   1.386   .     S
C1336  O1418   1.385   .     S
C1336  C1338   1.403   .     A
C1336  C1640   1.374   .     S
C1339  N1374   1.366   .     A
C1339  H1369   1.081   .     S
C1339  C1443   1.416   .     S
C1340  H1370   1.081   .     S
C1340  N1373   1.366   .     A
C1341  N1373   1.367   .     A
C1341  H1371   1.082   .     S
C1342  N1374   1.367   .     A
C1342  H1372   1.082   .     S
C1342  C1442   1.416   .     S
C1343  O1381   1.292   .     A
C1343  O1379   1.292   .     A
C1343  C1345   1.454   .     S
C1344  O1382   1.291   .     A
C1344  C1346   1.453   .     S
C1344  O1380   1.292   .     A
C1345  C1349   1.396   .     A
C1345  C1351   1.388   .     A
C1346  C1350   1.396   .     A
C1346  C1352   1.388   .     A
C1347  C1355   1.410   .     A
C1347  C1349   1.394   .     A
C1347  H1363   1.083   .     S
C1348  C1350   1.393   .     A
C1348  H1364   1.083   .     S
C1348  C1356   1.409   .     A
C1349  H1362   1.083   .     S
C1350  H1361   1.083   .     S
C1351  H1360   1.077   .     S
C1351  C1353   1.394   .     A
C1352  H1359   1.077   .     S
C1352  C1354   1.393   .     A
C1353  C1355   1.421   .     A
C1353  C1357   1.420   .     A
C1354  C1358   1.419   .     A
C1354  C1356   1.420   .     A
C1355  C413    1.398   1_556 S
C1357  C440    1.412   1_556 S
N1373  Zn1383  2.009   .     S
N1374  Zn1384  2.009   .     S
O1375  Zn1383  1.990   .     S
O1376  Zn1384  1.990   .     S
O1377  Zn1384  1.987   .     S
O1378  Zn1383  1.987   .     S
O1379  Zn1383  1.966   .     S
O1380  Zn1384  1.966   .     S
O1381  Zn1384  1.902   .     S
O1382  Zn1383  1.902   .     S
O1385  C1386   1.413   .     S
C1386  H1388   1.116   .     S
C1386  H1387   1.114   .     S
C1389  H1391   1.112   .     S
C1389  C1392   1.526   .     S
C1389  H1390   1.110   .     S
C1389  C1488   1.530   .     S
C1392  H1394   1.111   .     S
C1392  H1395   1.111   .     S
C1392  H1393   1.111   .     S
O1396  C1397   1.412   .     S
C1397  H1399   1.114   .     S
C1397  H1398   1.116   .     S
C1397  C1502   1.529   .     S
C1400  H1402   1.110   .     S
C1400  C1403   1.525   .     S
C1400  H1401   1.112   .     S
C1403  H1405   1.111   .     S
C1403  H1404   1.110   .     S
C1403  H1406   1.111   .     S
O1407  C1408   1.419   .     S
C1408  H1409   1.111   .     S
C1408  H1410   1.117   .     S
C1408  C1411   1.532   .     S
C1411  H1412   1.111   .     S
C1411  C1516   1.527   .     S
H1413  C1717   1.110   .     S
C1414  H1417   1.111   .     S
C1414  H1415   1.111   .     S
H1416  C1720   1.110   .     S
O1418  C1419   1.417   .     S
C1419  H1420   1.111   .     S
C1419  H1421   1.116   .     S
C1419  C1422   1.532   .     S
C1422  C1425   1.526   .     S
C1422  H1423   1.112   .     S
C1422  H1730   1.111   .     S
C1425  H1426   1.111   .     S
C1425  H1427   1.110   .     S
C1425  H1428   1.111   .     S
C1429  C1440   1.408   .     S
C1429  O1479   1.280   .     A
C1429  O1477   1.279   .     A
C1430  O1478   1.277   .     A
C1430  C1439   1.413   .     S
C1430  O1480   1.285   .     A
C1431  C1433   1.396   .     A
C1431  C1460   1.419   .     A
C1431  H1467   1.077   .     S
C1432  H1468   1.077   .     S
C1432  C1434   1.396   .     A
C1432  C1459   1.419   .     A
C1433  O1487   1.386   .     S
C1434  O1498   1.385   .     S
C1434  C540    1.397   1_556 S
C1435  C1440   1.392   .     A
C1435  H1469   1.084   .     S
C1435  C1743   1.372   .     S
C1436  H1470   1.085   .     S
C1436  C1439   1.396   .     A
C1437  C1439   1.407   .     A
C1437  O1509   1.386   .     S
C1438  O1520   1.385   .     S
C1438  C1440   1.403   .     A
C1438  C1742   1.374   .     S
C1441  N1476   1.366   .     A
C1441  H1471   1.081   .     S
C1441  C1239   1.416   1_655 S
C1442  H1472   1.081   .     S
C1442  N1475   1.366   .     A
C1443  N1475   1.367   .     A
C1443  H1473   1.082   .     S
C1444  N1476   1.367   .     A
C1444  H1474   1.082   .     S
C1444  C1238   1.416   1_655 S
C1445  O1483   1.292   .     A
C1445  O1481   1.292   .     A
C1445  C1447   1.454   .     S
C1446  O1484   1.291   .     A
C1446  C1448   1.453   .     S
C1446  O1482   1.292   .     A
C1447  C1451   1.396   .     A
C1447  C1453   1.388   .     A
C1448  C1452   1.396   .     A
C1448  C1454   1.388   .     A
C1449  C1457   1.410   .     A
C1449  C1451   1.394   .     A
C1449  H1465   1.083   .     S
C1450  C1452   1.393   .     A
C1450  H1466   1.083   .     S
C1450  C1458   1.409   .     A
C1451  H1464   1.083   .     S
C1452  H1463   1.083   .     S
C1453  H1462   1.077   .     S
C1453  C1455   1.394   .     A
C1454  H1461   1.077   .     S
C1454  C1456   1.393   .     A
C1455  C1457   1.421   .     A
C1455  C1459   1.420   .     A
C1456  C1460   1.419   .     A
C1456  C1458   1.420   .     A
C1457  C515    1.398   1_556 S
C1459  C542    1.412   1_556 S
N1475  Zn1485  2.009   .     S
N1476  Zn1486  2.009   .     S
O1477  Zn1485  1.990   .     S
O1478  Zn1486  1.990   .     S
O1479  Zn1486  1.987   .     S
O1480  Zn1485  1.987   .     S
O1481  Zn1485  1.966   .     S
O1482  Zn1486  1.966   .     S
O1483  Zn1486  1.902   .     S
O1484  Zn1485  1.902   .     S
O1487  C1488   1.413   .     S
C1488  H1490   1.116   .     S
C1488  H1489   1.114   .     S
C1491  H1493   1.112   .     S
C1491  C1494   1.526   .     S
C1491  H1492   1.110   .     S
C1491  C1284   1.530   1_655 S
C1494  H1496   1.111   .     S
C1494  H1497   1.111   .     S
C1494  H1495   1.111   .     S
O1498  C1499   1.412   .     S
C1499  H1501   1.114   .     S
C1499  H1500   1.116   .     S
C1499  C1298   1.529   1_655 S
C1502  H1504   1.110   .     S
C1502  C1505   1.525   .     S
C1502  H1503   1.112   .     S
C1505  H1507   1.111   .     S
C1505  H1506   1.110   .     S
C1505  H1508   1.111   .     S
O1509  C1510   1.419   .     S
C1510  H1511   1.111   .     S
C1510  H1512   1.117   .     S
C1510  C1513   1.532   .     S
C1513  H1514   1.111   .     S
C1513  C1312   1.527   1_655 S
H1515  C1819   1.110   .     S
C1516  H1519   1.111   .     S
C1516  H1517   1.111   .     S
H1518  C1822   1.110   .     S
O1520  C1521   1.417   .     S
C1521  H1522   1.111   .     S
C1521  H1523   1.116   .     S
C1521  C1524   1.532   .     S
C1524  C1527   1.526   .     S
C1524  H1525   1.112   .     S
C1524  H1832   1.111   .     S
C1527  H1528   1.111   .     S
C1527  H1529   1.110   .     S
C1527  H1530   1.111   .     S
C1531  C1542   1.408   .     S
C1531  O1581   1.280   .     A
C1531  O1579   1.279   .     A
C1532  O1580   1.277   .     A
C1532  C1541   1.413   .     S
C1532  O1582   1.285   .     A
C1533  C1535   1.396   .     A
C1533  C1562   1.419   .     A
C1533  H1569   1.077   .     S
C1534  H1570   1.077   .     S
C1534  C1536   1.396   .     A
C1534  C1561   1.419   .     A
C1535  O1589   1.386   .     S
C1536  O1600   1.385   .     S
C1536  C642    1.397   1_556 S
C1537  C1542   1.392   .     A
C1537  H1571   1.084   .     S
C1537  C927    1.372   1_565 S
C1538  H1572   1.085   .     S
C1538  C1541   1.396   .     A
C1539  C1541   1.407   .     A
C1539  O1611   1.386   .     S
C1540  O1622   1.385   .     S
C1540  C1542   1.403   .     A
C1540  C926    1.374   1_565 S
C1543  N1578   1.366   .     A
C1543  H1573   1.081   .     S
C1543  C1647   1.416   .     S
C1544  H1574   1.081   .     S
C1544  N1577   1.366   .     A
C1544  C1750   1.416   1_455 S
C1545  N1577   1.367   .     A
C1545  H1575   1.082   .     S
C1545  C1747   1.416   1_455 S
C1546  N1578   1.367   .     A
C1546  H1576   1.082   .     S
C1546  C1646   1.416   .     S
C1547  O1585   1.292   .     A
C1547  O1583   1.292   .     A
C1547  C1549   1.454   .     S
C1548  O1586   1.291   .     A
C1548  C1550   1.453   .     S
C1548  O1584   1.292   .     A
C1549  C1553   1.396   .     A
C1549  C1555   1.388   .     A
C1550  C1554   1.396   .     A
C1550  C1556   1.388   .     A
C1551  C1559   1.410   .     A
C1551  C1553   1.394   .     A
C1551  H1567   1.083   .     S
C1552  C1554   1.393   .     A
C1552  H1568   1.083   .     S
C1552  C1560   1.409   .     A
C1553  H1566   1.083   .     S
C1554  H1565   1.083   .     S
C1555  H1564   1.077   .     S
C1555  C1557   1.394   .     A
C1556  H1563   1.077   .     S
C1556  C1558   1.393   .     A
C1557  C1559   1.421   .     A
C1557  C1561   1.420   .     A
C1558  C1562   1.419   .     A
C1558  C1560   1.420   .     A
C1559  C617    1.398   1_556 S
C1561  C644    1.412   1_556 S
N1577  Zn1587  2.009   .     S
N1578  Zn1588  2.009   .     S
O1579  Zn1587  1.990   .     S
O1580  Zn1588  1.990   .     S
O1581  Zn1588  1.987   .     S
O1582  Zn1587  1.987   .     S
O1583  Zn1587  1.966   .     S
O1584  Zn1588  1.966   .     S
O1585  Zn1588  1.902   .     S
O1586  Zn1587  1.902   .     S
O1589  C1590   1.413   .     S
C1590  H1592   1.116   .     S
C1590  H1591   1.114   .     S
C1590  C1797   1.530   1_455 S
C1593  H1595   1.112   .     S
C1593  C1596   1.526   .     S
C1593  H1594   1.110   .     S
C1593  C1692   1.530   .     S
C1596  H1598   1.111   .     S
C1596  H1599   1.111   .     S
C1596  H1597   1.111   .     S
O1600  C1601   1.412   .     S
C1601  H1603   1.114   .     S
C1601  H1602   1.116   .     S
C1601  C1706   1.529   .     S
C1604  H1606   1.110   .     S
C1604  C1607   1.525   .     S
C1604  H1605   1.112   .     S
C1604  C1805   1.529   1_455 S
C1607  H1609   1.111   .     S
C1607  H1608   1.110   .     S
C1607  H1610   1.111   .     S
O1611  C1612   1.419   .     S
C1612  H1613   1.111   .     S
C1612  H1614   1.117   .     S
C1612  C1615   1.532   .     S
C1615  H1616   1.111   .     S
C1615  C1720   1.527   .     S
H1617  C1003   1.110   1_565 S
C1618  H1621   1.111   .     S
C1618  H1619   1.111   .     S
C1618  C1819   1.527   1_455 S
H1620  C1006   1.110   1_565 S
O1622  C1623   1.417   .     S
C1623  H1624   1.111   .     S
C1623  H1625   1.116   .     S
C1623  C1626   1.532   .     S
C1626  C1629   1.526   .     S
C1626  H1627   1.112   .     S
C1626  H1016   1.111   1_565 S
C1629  H1630   1.111   .     S
C1629  H1631   1.110   .     S
C1629  H1632   1.111   .     S
C1633  C1644   1.408   .     S
C1633  O1683   1.280   .     A
C1633  O1681   1.279   .     A
C1634  O1682   1.277   .     A
C1634  C1643   1.413   .     S
C1634  O1684   1.285   .     A
C1635  C1637   1.396   .     A
C1635  C1664   1.419   .     A
C1635  H1671   1.077   .     S
C1636  H1672   1.077   .     S
C1636  C1638   1.396   .     A
C1636  C1663   1.419   .     A
C1637  O1691   1.386   .     S
C1638  O1702   1.385   .     S
C1638  C744    1.397   1_556 S
C1639  C1644   1.392   .     A
C1639  H1673   1.084   .     S
C1639  C1029   1.372   1_565 S
C1640  H1674   1.085   .     S
C1640  C1643   1.396   .     A
C1641  C1643   1.407   .     A
C1641  O1713   1.386   .     S
C1642  O1724   1.385   .     S
C1642  C1644   1.403   .     A
C1642  C1028   1.374   1_565 S
C1645  N1680   1.366   .     A
C1645  H1675   1.081   .     S
C1645  C1749   1.416   .     S
C1646  H1676   1.081   .     S
C1646  N1679   1.366   .     A
C1647  N1679   1.367   .     A
C1647  H1677   1.082   .     S
C1648  N1680   1.367   .     A
C1648  H1678   1.082   .     S
C1648  C1748   1.416   .     S
C1649  O1687   1.292   .     A
C1649  O1685   1.292   .     A
C1649  C1651   1.454   .     S
C1650  O1688   1.291   .     A
C1650  C1652   1.453   .     S
C1650  O1686   1.292   .     A
C1651  C1655   1.396   .     A
C1651  C1657   1.388   .     A
C1652  C1656   1.396   .     A
C1652  C1658   1.388   .     A
C1653  C1661   1.410   .     A
C1653  C1655   1.394   .     A
C1653  H1669   1.083   .     S
C1654  C1656   1.393   .     A
C1654  H1670   1.083   .     S
C1654  C1662   1.409   .     A
C1655  H1668   1.083   .     S
C1656  H1667   1.083   .     S
C1657  H1666   1.077   .     S
C1657  C1659   1.394   .     A
C1658  H1665   1.077   .     S
C1658  C1660   1.393   .     A
C1659  C1661   1.421   .     A
C1659  C1663   1.420   .     A
C1660  C1664   1.419   .     A
C1660  C1662   1.420   .     A
C1661  C719    1.398   1_556 S
C1663  C746    1.412   1_556 S
N1679  Zn1689  2.009   .     S
N1680  Zn1690  2.009   .     S
O1681  Zn1689  1.990   .     S
O1682  Zn1690  1.990   .     S
O1683  Zn1690  1.987   .     S
O1684  Zn1689  1.987   .     S
O1685  Zn1689  1.966   .     S
O1686  Zn1690  1.966   .     S
O1687  Zn1690  1.902   .     S
O1688  Zn1689  1.902   .     S
O1691  C1692   1.413   .     S
C1692  H1694   1.116   .     S
C1692  H1693   1.114   .     S
C1695  H1697   1.112   .     S
C1695  C1698   1.526   .     S
C1695  H1696   1.110   .     S
C1695  C1794   1.530   .     S
C1698  H1700   1.111   .     S
C1698  H1701   1.111   .     S
C1698  H1699   1.111   .     S
O1702  C1703   1.412   .     S
C1703  H1705   1.114   .     S
C1703  H1704   1.116   .     S
C1703  C1808   1.529   .     S
C1706  H1708   1.110   .     S
C1706  C1709   1.525   .     S
C1706  H1707   1.112   .     S
C1709  H1711   1.111   .     S
C1709  H1710   1.110   .     S
C1709  H1712   1.111   .     S
O1713  C1714   1.419   .     S
C1714  H1715   1.111   .     S
C1714  H1716   1.117   .     S
C1714  C1717   1.532   .     S
C1717  H1718   1.111   .     S
C1717  C1822   1.527   .     S
H1719  C1105   1.110   1_565 S
C1720  H1723   1.111   .     S
C1720  H1721   1.111   .     S
H1722  C1108   1.110   1_565 S
O1724  C1725   1.417   .     S
C1725  H1726   1.111   .     S
C1725  H1727   1.116   .     S
C1725  C1728   1.532   .     S
C1728  C1731   1.526   .     S
C1728  H1729   1.112   .     S
C1728  H1118   1.111   1_565 S
C1731  H1732   1.111   .     S
C1731  H1733   1.110   .     S
C1731  H1734   1.111   .     S
C1735  C1746   1.408   .     S
C1735  O1785   1.280   .     A
C1735  O1783   1.279   .     A
C1736  O1784   1.277   .     A
C1736  C1745   1.413   .     S
C1736  O1786   1.285   .     A
C1737  C1739   1.396   .     A
C1737  C1766   1.419   .     A
C1737  H1773   1.077   .     S
C1738  H1774   1.077   .     S
C1738  C1740   1.396   .     A
C1738  C1765   1.419   .     A
C1739  O1793   1.386   .     S
C1740  O1804   1.385   .     S
C1740  C846    1.397   1_556 S
C1741  C1746   1.392   .     A
C1741  H1775   1.084   .     S
C1741  C1131   1.372   1_565 S
C1742  H1776   1.085   .     S
C1742  C1745   1.396   .     A
C1743  C1745   1.407   .     A
C1743  O1815   1.386   .     S
C1744  O1826   1.385   .     S
C1744  C1746   1.403   .     A
C1744  C1130   1.374   1_565 S
C1747  N1782   1.366   .     A
C1747  H1777   1.081   .     S
C1747  C1545   1.416   1_655 S
C1748  H1778   1.081   .     S
C1748  N1781   1.366   .     A
C1749  N1781   1.367   .     A
C1749  H1779   1.082   .     S
C1750  N1782   1.367   .     A
C1750  H1780   1.082   .     S
C1750  C1544   1.416   1_655 S
C1751  O1789   1.292   .     A
C1751  O1787   1.292   .     A
C1751  C1753   1.454   .     S
C1752  O1790   1.291   .     A
C1752  C1754   1.453   .     S
C1752  O1788   1.292   .     A
C1753  C1757   1.396   .     A
C1753  C1759   1.388   .     A
C1754  C1758   1.396   .     A
C1754  C1760   1.388   .     A
C1755  C1763   1.410   .     A
C1755  C1757   1.394   .     A
C1755  H1771   1.083   .     S
C1756  C1758   1.393   .     A
C1756  H1772   1.083   .     S
C1756  C1764   1.409   .     A
C1757  H1770   1.083   .     S
C1758  H1769   1.083   .     S
C1759  H1768   1.077   .     S
C1759  C1761   1.394   .     A
C1760  H1767   1.077   .     S
C1760  C1762   1.393   .     A
C1761  C1763   1.421   .     A
C1761  C1765   1.420   .     A
C1762  C1766   1.419   .     A
C1762  C1764   1.420   .     A
C1763  C821    1.398   1_556 S
C1765  C848    1.412   1_556 S
N1781  Zn1791  2.009   .     S
N1782  Zn1792  2.009   .     S
O1783  Zn1791  1.990   .     S
O1784  Zn1792  1.990   .     S
O1785  Zn1792  1.987   .     S
O1786  Zn1791  1.987   .     S
O1787  Zn1791  1.966   .     S
O1788  Zn1792  1.966   .     S
O1789  Zn1792  1.902   .     S
O1790  Zn1791  1.902   .     S
O1793  C1794   1.413   .     S
C1794  H1796   1.116   .     S
C1794  H1795   1.114   .     S
C1797  H1799   1.112   .     S
C1797  C1800   1.526   .     S
C1797  H1798   1.110   .     S
C1797  C1590   1.530   1_655 S
C1800  H1802   1.111   .     S
C1800  H1803   1.111   .     S
C1800  H1801   1.111   .     S
O1804  C1805   1.412   .     S
C1805  H1807   1.114   .     S
C1805  H1806   1.116   .     S
C1805  C1604   1.529   1_655 S
C1808  H1810   1.110   .     S
C1808  C1811   1.525   .     S
C1808  H1809   1.112   .     S
C1811  H1813   1.111   .     S
C1811  H1812   1.110   .     S
C1811  H1814   1.111   .     S
O1815  C1816   1.419   .     S
C1816  H1817   1.111   .     S
C1816  H1818   1.117   .     S
C1816  C1819   1.532   .     S
C1819  H1820   1.111   .     S
C1819  C1618   1.527   1_655 S
H1821  C1207   1.110   1_565 S
C1822  H1825   1.111   .     S
C1822  H1823   1.111   .     S
H1824  C1210   1.110   1_565 S
O1826  C1827   1.417   .     S
C1827  H1828   1.111   .     S
C1827  H1829   1.116   .     S
C1827  C1830   1.532   .     S
C1830  C1833   1.526   .     S
C1830  H1831   1.112   .     S
C1830  H1220   1.111   1_565 S
C1833  H1834   1.111   .     S
C1833  H1835   1.110   .     S
C1833  H1836   1.111   .     S
