data_str_m2_o1_o2_pcu_sym.137
_audit_creation_date              2020-01-03
_audit_creation_method            'Materials Studio'
_symmetry_space_group_name_H-M    'P1'
_symmetry_Int_Tables_number       1
_symmetry_cell_setting            triclinic
loop_
_symmetry_equiv_pos_as_xyz
  x,y,z
_cell_length_a                    32.6088
_cell_length_b                    28.5508
_cell_length_c                    30.3030
_cell_angle_alpha                 90.6185
_cell_angle_beta                  90.6212
_cell_angle_gamma                 90.4055
loop_
_atom_site_label
_atom_site_type_symbol
_atom_site_fract_x
_atom_site_fract_y
_atom_site_fract_z
_atom_site_U_iso_or_equiv
_atom_site_adp_type
_atom_site_occupancy
C1     C     0.08747   0.16669   0.24940   0.00000  Uiso   1.00
C2     C     0.24585   0.16688   0.25027   0.00000  Uiso   1.00
C3     C     0.16765   0.16648   0.16468   0.00000  Uiso   1.00
C4     C     0.16675   0.16674   0.33483   0.00000  Uiso   1.00
C5     C     0.13747   0.02426   0.22706   0.00000  Uiso   1.00
C6     C     0.19540   0.30910   0.27354   0.00000  Uiso   1.00
C7     C     0.19554   0.02533   0.27345   0.00000  Uiso   1.00
C8     C     0.13764   0.30801   0.22673   0.00000  Uiso   1.00
C9     C     0.02070   0.13718   0.21993   0.00000  Uiso   1.00
C10    C     0.31259   0.19912   0.27701   0.00000  Uiso   1.00
C11    C     0.31114   0.13718   0.22030   0.00000  Uiso   1.00
C12    C     0.02205   0.19968   0.27605   0.00000  Uiso   1.00
C13    C     0.18301   0.20760   0.04701   0.00000  Uiso   1.00
C14    C     0.13117   0.16785   0.45236   0.00000  Uiso   1.00
C15    C     0.20552   0.16765   0.45204   0.00000  Uiso   1.00
C16    C     0.15717   0.12810   0.04447   0.00000  Uiso   1.00
C17    C     0.18322   0.20709   0.09302   0.00000  Uiso   1.00
C18    C     0.13023   0.16615   0.40640   0.00000  Uiso   1.00
C19    C     0.20506   0.16501   0.40609   0.00000  Uiso   1.00
C20    C     0.15784   0.12618   0.09036   0.00000  Uiso   1.00
C21    C     0.16963   0.16643   0.11571   0.00000  Uiso   1.00
C22    C     0.16735   0.16667   0.38295   0.00000  Uiso   1.00
C23    C     0.16934   0.16862   0.02300   0.00000  Uiso   1.00
C24    C     0.16868   0.16948   0.47501   0.00000  Uiso   1.00
C25    C     0.29049   0.16747   0.24950   0.00000  Uiso   1.00
C26    C     0.04279   0.16740   0.24876   0.00000  Uiso   1.00
Cu27   Cu    0.16667   0.21355   0.25000   0.00000  Uiso   1.00
Cu28   Cu    0.16667   0.11978   0.25000   0.00000  Uiso   1.00
H29    H     0.11395   0.04247   0.20899   0.00000  Uiso   1.00
H30    H     0.21817   0.29093   0.29255   0.00000  Uiso   1.00
H31    H     0.21865   0.04439   0.29236   0.00000  Uiso   1.00
H32    H     0.11444   0.28896   0.20796   0.00000  Uiso   1.00
H33    H     0.19326   0.23856   0.02971   0.00000  Uiso   1.00
H34    H     0.10276   0.16704   0.47066   0.00000  Uiso   1.00
H35    H     0.23439   0.16628   0.47008   0.00000  Uiso   1.00
H36    H     0.14765   0.09761   0.02514   0.00000  Uiso   1.00
N37    N     0.16667   0.28402   0.25000   0.00000  Uiso   1.00
N38    N     0.16667   0.04931   0.25000   0.00000  Uiso   1.00
O39    O     0.10655   0.20625   0.24999   0.00000  Uiso   1.00
O40    O     0.22679   0.12709   0.25001   0.00000  Uiso   1.00
O41    O     0.22679   0.20625   0.25001   0.00000  Uiso   1.00
O42    O     0.10655   0.12709   0.25000   0.00000  Uiso   1.00
O43    O     0.16666   0.20626   0.18573   0.00000  Uiso   1.00
O44    O     0.16667   0.12707   0.31427   0.00000  Uiso   1.00
O45    O     0.16667   0.20626   0.31427   0.00000  Uiso   1.00
O46    O     0.16666   0.12707   0.18573   0.00000  Uiso   1.00
C47    C     0.19892   0.24855   0.11545   0.00000  Uiso   1.00
N48    N     0.21151   0.28178   0.13331   0.00000  Uiso   1.00
C49    C     0.09111   0.15953   0.38442   0.00000  Uiso   1.00
N50    N     0.05964   0.15345   0.36724   0.00000  Uiso   1.00
C51    C     0.24312   0.15561   0.38393   0.00000  Uiso   1.00
N52    N     0.27366   0.14713   0.36660   0.00000  Uiso   1.00
C53    C     0.14689   0.08177   0.10944   0.00000  Uiso   1.00
N54    N     0.13837   0.04575   0.12401   0.00000  Uiso   1.00
C55    C     0.04168   0.10868   0.18744   0.00000  Uiso   1.00
N56    N     0.05796   0.08608   0.16111   0.00000  Uiso   1.00
C57    C     0.29197   0.22959   0.30826   0.00000  Uiso   1.00
N58    N     0.27625   0.25373   0.33380   0.00000  Uiso   1.00
C59    C     0.28840   0.10744   0.18924   0.00000  Uiso   1.00
N60    N     0.27027   0.08381   0.16451   0.00000  Uiso   1.00
C61    C     0.04444   0.23336   0.30370   0.00000  Uiso   1.00
N62    N     0.06220   0.26023   0.32564   0.00000  Uiso   1.00
C63    C     0.42080   0.16669   0.24940   0.00000  Uiso   1.00
C64    C     0.57918   0.16688   0.25027   0.00000  Uiso   1.00
C65    C     0.50098   0.16648   0.16468   0.00000  Uiso   1.00
C66    C     0.50008   0.16674   0.33483   0.00000  Uiso   1.00
C67    C     0.47081   0.02426   0.22706   0.00000  Uiso   1.00
C68    C     0.52873   0.30910   0.27354   0.00000  Uiso   1.00
C69    C     0.52888   0.02533   0.27345   0.00000  Uiso   1.00
C70    C     0.47098   0.30801   0.22673   0.00000  Uiso   1.00
C71    C     0.35404   0.13718   0.21993   0.00000  Uiso   1.00
C72    C     0.64592   0.19912   0.27701   0.00000  Uiso   1.00
C73    C     0.64448   0.13718   0.22030   0.00000  Uiso   1.00
C74    C     0.35538   0.19968   0.27605   0.00000  Uiso   1.00
C75    C     0.51634   0.20760   0.04701   0.00000  Uiso   1.00
C76    C     0.46450   0.16785   0.45236   0.00000  Uiso   1.00
C77    C     0.53885   0.16765   0.45204   0.00000  Uiso   1.00
C78    C     0.49050   0.12810   0.04447   0.00000  Uiso   1.00
C79    C     0.51655   0.20709   0.09302   0.00000  Uiso   1.00
C80    C     0.46357   0.16615   0.40640   0.00000  Uiso   1.00
C81    C     0.53839   0.16501   0.40609   0.00000  Uiso   1.00
C82    C     0.49117   0.12618   0.09036   0.00000  Uiso   1.00
C83    C     0.50296   0.16643   0.11571   0.00000  Uiso   1.00
C84    C     0.50068   0.16667   0.38295   0.00000  Uiso   1.00
C85    C     0.50268   0.16862   0.02300   0.00000  Uiso   1.00
C86    C     0.50202   0.16948   0.47501   0.00000  Uiso   1.00
C87    C     0.62382   0.16747   0.24950   0.00000  Uiso   1.00
C88    C     0.37612   0.16740   0.24876   0.00000  Uiso   1.00
Cu89   Cu    0.50000   0.21355   0.25000   0.00000  Uiso   1.00
Cu90   Cu    0.50000   0.11978   0.25000   0.00000  Uiso   1.00
H91    H     0.44728   0.04247   0.20899   0.00000  Uiso   1.00
H92    H     0.55150   0.29093   0.29255   0.00000  Uiso   1.00
H93    H     0.55198   0.04439   0.29236   0.00000  Uiso   1.00
H94    H     0.44778   0.28896   0.20796   0.00000  Uiso   1.00
H95    H     0.52659   0.23856   0.02971   0.00000  Uiso   1.00
H96    H     0.43609   0.16704   0.47066   0.00000  Uiso   1.00
H97    H     0.56773   0.16628   0.47008   0.00000  Uiso   1.00
H98    H     0.48099   0.09761   0.02514   0.00000  Uiso   1.00
N99    N     0.50000   0.28402   0.25000   0.00000  Uiso   1.00
N100   N     0.50000   0.04931   0.25000   0.00000  Uiso   1.00
O101   O     0.43988   0.20625   0.24999   0.00000  Uiso   1.00
O102   O     0.56012   0.12709   0.25001   0.00000  Uiso   1.00
O103   O     0.56012   0.20625   0.25001   0.00000  Uiso   1.00
O104   O     0.43988   0.12709   0.25000   0.00000  Uiso   1.00
O105   O     0.50000   0.20626   0.18573   0.00000  Uiso   1.00
O106   O     0.50000   0.12707   0.31427   0.00000  Uiso   1.00
O107   O     0.50000   0.20626   0.31427   0.00000  Uiso   1.00
O108   O     0.50000   0.12707   0.18573   0.00000  Uiso   1.00
C109   C     0.53225   0.24855   0.11545   0.00000  Uiso   1.00
N110   N     0.54484   0.28178   0.13331   0.00000  Uiso   1.00
C111   C     0.42444   0.15953   0.38442   0.00000  Uiso   1.00
N112   N     0.39297   0.15345   0.36724   0.00000  Uiso   1.00
C113   C     0.57646   0.15561   0.38393   0.00000  Uiso   1.00
N114   N     0.60700   0.14713   0.36660   0.00000  Uiso   1.00
C115   C     0.48022   0.08177   0.10944   0.00000  Uiso   1.00
N116   N     0.47170   0.04575   0.12401   0.00000  Uiso   1.00
C117   C     0.37502   0.10868   0.18744   0.00000  Uiso   1.00
N118   N     0.39129   0.08608   0.16111   0.00000  Uiso   1.00
C119   C     0.62531   0.22959   0.30826   0.00000  Uiso   1.00
N120   N     0.60959   0.25373   0.33380   0.00000  Uiso   1.00
C121   C     0.62173   0.10744   0.18924   0.00000  Uiso   1.00
N122   N     0.60360   0.08381   0.16451   0.00000  Uiso   1.00
C123   C     0.37778   0.23336   0.30370   0.00000  Uiso   1.00
N124   N     0.39553   0.26023   0.32564   0.00000  Uiso   1.00
C125   C     0.75414   0.16669   0.24940   0.00000  Uiso   1.00
C126   C     0.91252   0.16688   0.25027   0.00000  Uiso   1.00
C127   C     0.83431   0.16648   0.16468   0.00000  Uiso   1.00
C128   C     0.83342   0.16674   0.33483   0.00000  Uiso   1.00
C129   C     0.80414   0.02426   0.22706   0.00000  Uiso   1.00
C130   C     0.86207   0.30910   0.27354   0.00000  Uiso   1.00
C131   C     0.86221   0.02533   0.27345   0.00000  Uiso   1.00
C132   C     0.80431   0.30801   0.22673   0.00000  Uiso   1.00
C133   C     0.68737   0.13718   0.21993   0.00000  Uiso   1.00
C134   C     0.97925   0.19912   0.27701   0.00000  Uiso   1.00
C135   C     0.97781   0.13718   0.22030   0.00000  Uiso   1.00
C136   C     0.68871   0.19968   0.27605   0.00000  Uiso   1.00
C137   C     0.84967   0.20760   0.04701   0.00000  Uiso   1.00
C138   C     0.79783   0.16785   0.45236   0.00000  Uiso   1.00
C139   C     0.87218   0.16765   0.45204   0.00000  Uiso   1.00
C140   C     0.82384   0.12810   0.04447   0.00000  Uiso   1.00
C141   C     0.84988   0.20709   0.09302   0.00000  Uiso   1.00
C142   C     0.79690   0.16615   0.40640   0.00000  Uiso   1.00
C143   C     0.87173   0.16501   0.40609   0.00000  Uiso   1.00
C144   C     0.82451   0.12618   0.09036   0.00000  Uiso   1.00
C145   C     0.83629   0.16643   0.11571   0.00000  Uiso   1.00
C146   C     0.83401   0.16667   0.38295   0.00000  Uiso   1.00
C147   C     0.83601   0.16862   0.02300   0.00000  Uiso   1.00
C148   C     0.83535   0.16948   0.47501   0.00000  Uiso   1.00
C149   C     0.95715   0.16747   0.24950   0.00000  Uiso   1.00
C150   C     0.70945   0.16740   0.24876   0.00000  Uiso   1.00
Cu151  Cu    0.83333   0.21355   0.25000   0.00000  Uiso   1.00
Cu152  Cu    0.83333   0.11978   0.25000   0.00000  Uiso   1.00
H153   H     0.78061   0.04247   0.20899   0.00000  Uiso   1.00
H154   H     0.88483   0.29093   0.29255   0.00000  Uiso   1.00
H155   H     0.88531   0.04439   0.29236   0.00000  Uiso   1.00
H156   H     0.78111   0.28896   0.20796   0.00000  Uiso   1.00
H157   H     0.85992   0.23856   0.02971   0.00000  Uiso   1.00
H158   H     0.76942   0.16704   0.47066   0.00000  Uiso   1.00
H159   H     0.90106   0.16628   0.47008   0.00000  Uiso   1.00
H160   H     0.81432   0.09761   0.02514   0.00000  Uiso   1.00
N161   N     0.83333   0.28402   0.25000   0.00000  Uiso   1.00
N162   N     0.83333   0.04931   0.25000   0.00000  Uiso   1.00
O163   O     0.77321   0.20625   0.24999   0.00000  Uiso   1.00
O164   O     0.89345   0.12709   0.25001   0.00000  Uiso   1.00
O165   O     0.89345   0.20625   0.25001   0.00000  Uiso   1.00
O166   O     0.77321   0.12709   0.25000   0.00000  Uiso   1.00
O167   O     0.83333   0.20626   0.18573   0.00000  Uiso   1.00
O168   O     0.83334   0.12707   0.31427   0.00000  Uiso   1.00
O169   O     0.83334   0.20626   0.31427   0.00000  Uiso   1.00
O170   O     0.83333   0.12707   0.18573   0.00000  Uiso   1.00
C171   C     0.86559   0.24855   0.11545   0.00000  Uiso   1.00
N172   N     0.87818   0.28178   0.13331   0.00000  Uiso   1.00
C173   C     0.75777   0.15953   0.38442   0.00000  Uiso   1.00
N174   N     0.72630   0.15345   0.36724   0.00000  Uiso   1.00
C175   C     0.90979   0.15561   0.38393   0.00000  Uiso   1.00
N176   N     0.94033   0.14713   0.36660   0.00000  Uiso   1.00
C177   C     0.81356   0.08177   0.10944   0.00000  Uiso   1.00
N178   N     0.80503   0.04575   0.12401   0.00000  Uiso   1.00
C179   C     0.70835   0.10868   0.18744   0.00000  Uiso   1.00
N180   N     0.72463   0.08608   0.16111   0.00000  Uiso   1.00
C181   C     0.95864   0.22959   0.30826   0.00000  Uiso   1.00
N182   N     0.94292   0.25373   0.33380   0.00000  Uiso   1.00
C183   C     0.95506   0.10744   0.18924   0.00000  Uiso   1.00
N184   N     0.93694   0.08381   0.16451   0.00000  Uiso   1.00
C185   C     0.71111   0.23336   0.30370   0.00000  Uiso   1.00
N186   N     0.72886   0.26023   0.32564   0.00000  Uiso   1.00
C187   C     0.08747   0.50002   0.24940   0.00000  Uiso   1.00
C188   C     0.24585   0.50021   0.25027   0.00000  Uiso   1.00
C189   C     0.16765   0.49981   0.16468   0.00000  Uiso   1.00
C190   C     0.16675   0.50008   0.33483   0.00000  Uiso   1.00
C191   C     0.13747   0.35759   0.22706   0.00000  Uiso   1.00
C192   C     0.19540   0.64244   0.27354   0.00000  Uiso   1.00
C193   C     0.19554   0.35867   0.27345   0.00000  Uiso   1.00
C194   C     0.13764   0.64134   0.22673   0.00000  Uiso   1.00
C195   C     0.02070   0.47051   0.21993   0.00000  Uiso   1.00
C196   C     0.31259   0.53245   0.27701   0.00000  Uiso   1.00
C197   C     0.31114   0.47051   0.22030   0.00000  Uiso   1.00
C198   C     0.02205   0.53301   0.27605   0.00000  Uiso   1.00
C199   C     0.18301   0.54093   0.04701   0.00000  Uiso   1.00
C200   C     0.13117   0.50118   0.45236   0.00000  Uiso   1.00
C201   C     0.20552   0.50098   0.45204   0.00000  Uiso   1.00
C202   C     0.15717   0.46143   0.04447   0.00000  Uiso   1.00
C203   C     0.18322   0.54042   0.09302   0.00000  Uiso   1.00
C204   C     0.13023   0.49948   0.40640   0.00000  Uiso   1.00
C205   C     0.20506   0.49835   0.40609   0.00000  Uiso   1.00
C206   C     0.15784   0.45952   0.09036   0.00000  Uiso   1.00
C207   C     0.16963   0.49976   0.11571   0.00000  Uiso   1.00
C208   C     0.16735   0.50000   0.38295   0.00000  Uiso   1.00
C209   C     0.16934   0.50195   0.02300   0.00000  Uiso   1.00
C210   C     0.16868   0.50281   0.47501   0.00000  Uiso   1.00
C211   C     0.29049   0.50080   0.24950   0.00000  Uiso   1.00
C212   C     0.04279   0.50073   0.24876   0.00000  Uiso   1.00
Cu213  Cu    0.16667   0.54689   0.25000   0.00000  Uiso   1.00
Cu214  Cu    0.16667   0.45311   0.25000   0.00000  Uiso   1.00
H215   H     0.11395   0.37581   0.20899   0.00000  Uiso   1.00
H216   H     0.21817   0.62426   0.29255   0.00000  Uiso   1.00
H217   H     0.21865   0.37772   0.29236   0.00000  Uiso   1.00
H218   H     0.11444   0.62229   0.20796   0.00000  Uiso   1.00
H219   H     0.19326   0.57189   0.02971   0.00000  Uiso   1.00
H220   H     0.10276   0.50037   0.47066   0.00000  Uiso   1.00
H221   H     0.23439   0.49961   0.47008   0.00000  Uiso   1.00
H222   H     0.14765   0.43094   0.02514   0.00000  Uiso   1.00
N223   N     0.16667   0.61736   0.25000   0.00000  Uiso   1.00
N224   N     0.16667   0.38264   0.25000   0.00000  Uiso   1.00
O225   O     0.10655   0.53958   0.24999   0.00000  Uiso   1.00
O226   O     0.22679   0.46042   0.25001   0.00000  Uiso   1.00
O227   O     0.22679   0.53958   0.25001   0.00000  Uiso   1.00
O228   O     0.10655   0.46042   0.25000   0.00000  Uiso   1.00
O229   O     0.16666   0.53959   0.18573   0.00000  Uiso   1.00
O230   O     0.16667   0.46041   0.31427   0.00000  Uiso   1.00
O231   O     0.16667   0.53959   0.31427   0.00000  Uiso   1.00
O232   O     0.16666   0.46041   0.18573   0.00000  Uiso   1.00
C233   C     0.19892   0.58188   0.11545   0.00000  Uiso   1.00
N234   N     0.21151   0.61511   0.13331   0.00000  Uiso   1.00
C235   C     0.09111   0.49286   0.38442   0.00000  Uiso   1.00
N236   N     0.05964   0.48679   0.36724   0.00000  Uiso   1.00
C237   C     0.24312   0.48894   0.38393   0.00000  Uiso   1.00
N238   N     0.27366   0.48046   0.36660   0.00000  Uiso   1.00
C239   C     0.14689   0.41510   0.10944   0.00000  Uiso   1.00
N240   N     0.13837   0.37908   0.12401   0.00000  Uiso   1.00
C241   C     0.04168   0.44202   0.18744   0.00000  Uiso   1.00
N242   N     0.05796   0.41942   0.16111   0.00000  Uiso   1.00
C243   C     0.29197   0.56292   0.30826   0.00000  Uiso   1.00
N244   N     0.27625   0.58706   0.33380   0.00000  Uiso   1.00
C245   C     0.28840   0.44078   0.18924   0.00000  Uiso   1.00
N246   N     0.27027   0.41714   0.16451   0.00000  Uiso   1.00
C247   C     0.04444   0.56669   0.30370   0.00000  Uiso   1.00
N248   N     0.06220   0.59357   0.32564   0.00000  Uiso   1.00
C249   C     0.42080   0.50002   0.24940   0.00000  Uiso   1.00
C250   C     0.57918   0.50021   0.25027   0.00000  Uiso   1.00
C251   C     0.50098   0.49981   0.16468   0.00000  Uiso   1.00
C252   C     0.50008   0.50008   0.33483   0.00000  Uiso   1.00
C253   C     0.47081   0.35759   0.22706   0.00000  Uiso   1.00
C254   C     0.52873   0.64244   0.27354   0.00000  Uiso   1.00
C255   C     0.52888   0.35867   0.27345   0.00000  Uiso   1.00
C256   C     0.47098   0.64134   0.22673   0.00000  Uiso   1.00
C257   C     0.35404   0.47051   0.21993   0.00000  Uiso   1.00
C258   C     0.64592   0.53245   0.27701   0.00000  Uiso   1.00
C259   C     0.64448   0.47051   0.22030   0.00000  Uiso   1.00
C260   C     0.35538   0.53301   0.27605   0.00000  Uiso   1.00
C261   C     0.51634   0.54093   0.04701   0.00000  Uiso   1.00
C262   C     0.46450   0.50118   0.45236   0.00000  Uiso   1.00
C263   C     0.53885   0.50098   0.45204   0.00000  Uiso   1.00
C264   C     0.49050   0.46143   0.04447   0.00000  Uiso   1.00
C265   C     0.51655   0.54042   0.09302   0.00000  Uiso   1.00
C266   C     0.46357   0.49948   0.40640   0.00000  Uiso   1.00
C267   C     0.53839   0.49835   0.40609   0.00000  Uiso   1.00
C268   C     0.49117   0.45952   0.09036   0.00000  Uiso   1.00
C269   C     0.50296   0.49976   0.11571   0.00000  Uiso   1.00
C270   C     0.50068   0.50000   0.38295   0.00000  Uiso   1.00
C271   C     0.50268   0.50195   0.02300   0.00000  Uiso   1.00
C272   C     0.50202   0.50281   0.47501   0.00000  Uiso   1.00
C273   C     0.62382   0.50080   0.24950   0.00000  Uiso   1.00
C274   C     0.37612   0.50073   0.24876   0.00000  Uiso   1.00
Cu275  Cu    0.50000   0.54689   0.25000   0.00000  Uiso   1.00
Cu276  Cu    0.50000   0.45311   0.25000   0.00000  Uiso   1.00
H277   H     0.44728   0.37581   0.20899   0.00000  Uiso   1.00
H278   H     0.55150   0.62426   0.29255   0.00000  Uiso   1.00
H279   H     0.55198   0.37772   0.29236   0.00000  Uiso   1.00
H280   H     0.44778   0.62229   0.20796   0.00000  Uiso   1.00
H281   H     0.52659   0.57189   0.02971   0.00000  Uiso   1.00
H282   H     0.43609   0.50037   0.47066   0.00000  Uiso   1.00
H283   H     0.56773   0.49961   0.47008   0.00000  Uiso   1.00
H284   H     0.48099   0.43094   0.02514   0.00000  Uiso   1.00
N285   N     0.50000   0.61736   0.25000   0.00000  Uiso   1.00
N286   N     0.50000   0.38264   0.25000   0.00000  Uiso   1.00
O287   O     0.43988   0.53958   0.24999   0.00000  Uiso   1.00
O288   O     0.56012   0.46042   0.25001   0.00000  Uiso   1.00
O289   O     0.56012   0.53958   0.25001   0.00000  Uiso   1.00
O290   O     0.43988   0.46042   0.25000   0.00000  Uiso   1.00
O291   O     0.50000   0.53959   0.18573   0.00000  Uiso   1.00
O292   O     0.50000   0.46041   0.31427   0.00000  Uiso   1.00
O293   O     0.50000   0.53959   0.31427   0.00000  Uiso   1.00
O294   O     0.50000   0.46041   0.18573   0.00000  Uiso   1.00
C295   C     0.53225   0.58188   0.11545   0.00000  Uiso   1.00
N296   N     0.54484   0.61511   0.13331   0.00000  Uiso   1.00
C297   C     0.42444   0.49286   0.38442   0.00000  Uiso   1.00
N298   N     0.39297   0.48679   0.36724   0.00000  Uiso   1.00
C299   C     0.57646   0.48894   0.38393   0.00000  Uiso   1.00
N300   N     0.60700   0.48046   0.36660   0.00000  Uiso   1.00
C301   C     0.48022   0.41510   0.10944   0.00000  Uiso   1.00
N302   N     0.47170   0.37908   0.12401   0.00000  Uiso   1.00
C303   C     0.37502   0.44202   0.18744   0.00000  Uiso   1.00
N304   N     0.39129   0.41942   0.16111   0.00000  Uiso   1.00
C305   C     0.62531   0.56292   0.30826   0.00000  Uiso   1.00
N306   N     0.60959   0.58706   0.33380   0.00000  Uiso   1.00
C307   C     0.62173   0.44078   0.18924   0.00000  Uiso   1.00
N308   N     0.60360   0.41714   0.16451   0.00000  Uiso   1.00
C309   C     0.37778   0.56669   0.30370   0.00000  Uiso   1.00
N310   N     0.39553   0.59357   0.32564   0.00000  Uiso   1.00
C311   C     0.75414   0.50002   0.24940   0.00000  Uiso   1.00
C312   C     0.91252   0.50021   0.25027   0.00000  Uiso   1.00
C313   C     0.83431   0.49981   0.16468   0.00000  Uiso   1.00
C314   C     0.83342   0.50008   0.33483   0.00000  Uiso   1.00
C315   C     0.80414   0.35759   0.22706   0.00000  Uiso   1.00
C316   C     0.86207   0.64244   0.27354   0.00000  Uiso   1.00
C317   C     0.86221   0.35867   0.27345   0.00000  Uiso   1.00
C318   C     0.80431   0.64134   0.22673   0.00000  Uiso   1.00
C319   C     0.68737   0.47051   0.21993   0.00000  Uiso   1.00
C320   C     0.97925   0.53245   0.27701   0.00000  Uiso   1.00
C321   C     0.97781   0.47051   0.22030   0.00000  Uiso   1.00
C322   C     0.68871   0.53301   0.27605   0.00000  Uiso   1.00
C323   C     0.84967   0.54093   0.04701   0.00000  Uiso   1.00
C324   C     0.79783   0.50118   0.45236   0.00000  Uiso   1.00
C325   C     0.87218   0.50098   0.45204   0.00000  Uiso   1.00
C326   C     0.82384   0.46143   0.04447   0.00000  Uiso   1.00
C327   C     0.84988   0.54042   0.09302   0.00000  Uiso   1.00
C328   C     0.79690   0.49948   0.40640   0.00000  Uiso   1.00
C329   C     0.87173   0.49835   0.40609   0.00000  Uiso   1.00
C330   C     0.82451   0.45952   0.09036   0.00000  Uiso   1.00
C331   C     0.83629   0.49976   0.11571   0.00000  Uiso   1.00
C332   C     0.83401   0.50000   0.38295   0.00000  Uiso   1.00
C333   C     0.83601   0.50195   0.02300   0.00000  Uiso   1.00
C334   C     0.83535   0.50281   0.47501   0.00000  Uiso   1.00
C335   C     0.95715   0.50080   0.24950   0.00000  Uiso   1.00
C336   C     0.70945   0.50073   0.24876   0.00000  Uiso   1.00
Cu337  Cu    0.83333   0.54689   0.25000   0.00000  Uiso   1.00
Cu338  Cu    0.83333   0.45311   0.25000   0.00000  Uiso   1.00
H339   H     0.78061   0.37581   0.20899   0.00000  Uiso   1.00
H340   H     0.88483   0.62426   0.29255   0.00000  Uiso   1.00
H341   H     0.88531   0.37772   0.29236   0.00000  Uiso   1.00
H342   H     0.78111   0.62229   0.20796   0.00000  Uiso   1.00
H343   H     0.85992   0.57189   0.02971   0.00000  Uiso   1.00
H344   H     0.76942   0.50037   0.47066   0.00000  Uiso   1.00
H345   H     0.90106   0.49961   0.47008   0.00000  Uiso   1.00
H346   H     0.81432   0.43094   0.02514   0.00000  Uiso   1.00
N347   N     0.83333   0.61736   0.25000   0.00000  Uiso   1.00
N348   N     0.83333   0.38264   0.25000   0.00000  Uiso   1.00
O349   O     0.77321   0.53958   0.24999   0.00000  Uiso   1.00
O350   O     0.89345   0.46042   0.25001   0.00000  Uiso   1.00
O351   O     0.89345   0.53958   0.25001   0.00000  Uiso   1.00
O352   O     0.77321   0.46042   0.25000   0.00000  Uiso   1.00
O353   O     0.83333   0.53959   0.18573   0.00000  Uiso   1.00
O354   O     0.83334   0.46041   0.31427   0.00000  Uiso   1.00
O355   O     0.83334   0.53959   0.31427   0.00000  Uiso   1.00
O356   O     0.83333   0.46041   0.18573   0.00000  Uiso   1.00
C357   C     0.86559   0.58188   0.11545   0.00000  Uiso   1.00
N358   N     0.87818   0.61511   0.13331   0.00000  Uiso   1.00
C359   C     0.75777   0.49286   0.38442   0.00000  Uiso   1.00
N360   N     0.72630   0.48679   0.36724   0.00000  Uiso   1.00
C361   C     0.90979   0.48894   0.38393   0.00000  Uiso   1.00
N362   N     0.94033   0.48046   0.36660   0.00000  Uiso   1.00
C363   C     0.81356   0.41510   0.10944   0.00000  Uiso   1.00
N364   N     0.80503   0.37908   0.12401   0.00000  Uiso   1.00
C365   C     0.70835   0.44202   0.18744   0.00000  Uiso   1.00
N366   N     0.72463   0.41942   0.16111   0.00000  Uiso   1.00
C367   C     0.95864   0.56292   0.30826   0.00000  Uiso   1.00
N368   N     0.94292   0.58706   0.33380   0.00000  Uiso   1.00
C369   C     0.95506   0.44078   0.18924   0.00000  Uiso   1.00
N370   N     0.93694   0.41714   0.16451   0.00000  Uiso   1.00
C371   C     0.71111   0.56669   0.30370   0.00000  Uiso   1.00
N372   N     0.72886   0.59357   0.32564   0.00000  Uiso   1.00
C373   C     0.08747   0.83336   0.24940   0.00000  Uiso   1.00
C374   C     0.24585   0.83354   0.25027   0.00000  Uiso   1.00
C375   C     0.16765   0.83314   0.16468   0.00000  Uiso   1.00
C376   C     0.16675   0.83341   0.33483   0.00000  Uiso   1.00
C377   C     0.13747   0.69092   0.22706   0.00000  Uiso   1.00
C378   C     0.19540   0.97577   0.27354   0.00000  Uiso   1.00
C379   C     0.19554   0.69200   0.27345   0.00000  Uiso   1.00
C380   C     0.13764   0.97468   0.22673   0.00000  Uiso   1.00
C381   C     0.02070   0.80385   0.21993   0.00000  Uiso   1.00
C382   C     0.31259   0.86578   0.27701   0.00000  Uiso   1.00
C383   C     0.31114   0.80385   0.22030   0.00000  Uiso   1.00
C384   C     0.02205   0.86635   0.27605   0.00000  Uiso   1.00
C385   C     0.18301   0.87426   0.04701   0.00000  Uiso   1.00
C386   C     0.13117   0.83451   0.45236   0.00000  Uiso   1.00
C387   C     0.20552   0.83432   0.45204   0.00000  Uiso   1.00
C388   C     0.15717   0.79477   0.04447   0.00000  Uiso   1.00
C389   C     0.18322   0.87375   0.09302   0.00000  Uiso   1.00
C390   C     0.13023   0.83281   0.40640   0.00000  Uiso   1.00
C391   C     0.20506   0.83168   0.40609   0.00000  Uiso   1.00
C392   C     0.15784   0.79285   0.09036   0.00000  Uiso   1.00
C393   C     0.16963   0.83309   0.11571   0.00000  Uiso   1.00
C394   C     0.16735   0.83334   0.38295   0.00000  Uiso   1.00
C395   C     0.16934   0.83528   0.02300   0.00000  Uiso   1.00
C396   C     0.16868   0.83614   0.47501   0.00000  Uiso   1.00
C397   C     0.29049   0.83414   0.24950   0.00000  Uiso   1.00
C398   C     0.04279   0.83406   0.24876   0.00000  Uiso   1.00
Cu399  Cu    0.16667   0.88022   0.25000   0.00000  Uiso   1.00
Cu400  Cu    0.16667   0.78645   0.25000   0.00000  Uiso   1.00
H401   H     0.11395   0.70914   0.20899   0.00000  Uiso   1.00
H402   H     0.21817   0.95759   0.29255   0.00000  Uiso   1.00
H403   H     0.21865   0.71105   0.29236   0.00000  Uiso   1.00
H404   H     0.11444   0.95563   0.20796   0.00000  Uiso   1.00
H405   H     0.19326   0.90522   0.02971   0.00000  Uiso   1.00
H406   H     0.10276   0.83370   0.47066   0.00000  Uiso   1.00
H407   H     0.23439   0.83295   0.47008   0.00000  Uiso   1.00
H408   H     0.14765   0.76427   0.02514   0.00000  Uiso   1.00
N409   N     0.16667   0.95069   0.25000   0.00000  Uiso   1.00
N410   N     0.16667   0.71598   0.25000   0.00000  Uiso   1.00
O411   O     0.10655   0.87291   0.24999   0.00000  Uiso   1.00
O412   O     0.22679   0.79375   0.25001   0.00000  Uiso   1.00
O413   O     0.22679   0.87291   0.25001   0.00000  Uiso   1.00
O414   O     0.10655   0.79375   0.25000   0.00000  Uiso   1.00
O415   O     0.16666   0.87293   0.18573   0.00000  Uiso   1.00
O416   O     0.16667   0.79374   0.31427   0.00000  Uiso   1.00
O417   O     0.16667   0.87293   0.31427   0.00000  Uiso   1.00
O418   O     0.16666   0.79374   0.18573   0.00000  Uiso   1.00
C419   C     0.19892   0.91521   0.11545   0.00000  Uiso   1.00
N420   N     0.21151   0.94844   0.13331   0.00000  Uiso   1.00
C421   C     0.09111   0.82620   0.38442   0.00000  Uiso   1.00
N422   N     0.05964   0.82012   0.36724   0.00000  Uiso   1.00
C423   C     0.24312   0.82227   0.38393   0.00000  Uiso   1.00
N424   N     0.27366   0.81379   0.36660   0.00000  Uiso   1.00
C425   C     0.14689   0.74844   0.10944   0.00000  Uiso   1.00
N426   N     0.13837   0.71242   0.12401   0.00000  Uiso   1.00
C427   C     0.04168   0.77535   0.18744   0.00000  Uiso   1.00
N428   N     0.05796   0.75275   0.16111   0.00000  Uiso   1.00
C429   C     0.29197   0.89625   0.30826   0.00000  Uiso   1.00
N430   N     0.27625   0.92039   0.33380   0.00000  Uiso   1.00
C431   C     0.28840   0.77411   0.18924   0.00000  Uiso   1.00
N432   N     0.27027   0.75048   0.16451   0.00000  Uiso   1.00
C433   C     0.04444   0.90003   0.30370   0.00000  Uiso   1.00
N434   N     0.06220   0.92690   0.32564   0.00000  Uiso   1.00
C435   C     0.42080   0.83336   0.24940   0.00000  Uiso   1.00
C436   C     0.57918   0.83354   0.25027   0.00000  Uiso   1.00
C437   C     0.50098   0.83314   0.16468   0.00000  Uiso   1.00
C438   C     0.50008   0.83341   0.33483   0.00000  Uiso   1.00
C439   C     0.47081   0.69092   0.22706   0.00000  Uiso   1.00
C440   C     0.52873   0.97577   0.27354   0.00000  Uiso   1.00
C441   C     0.52888   0.69200   0.27345   0.00000  Uiso   1.00
C442   C     0.47098   0.97468   0.22673   0.00000  Uiso   1.00
C443   C     0.35404   0.80385   0.21993   0.00000  Uiso   1.00
C444   C     0.64592   0.86578   0.27701   0.00000  Uiso   1.00
C445   C     0.64448   0.80385   0.22030   0.00000  Uiso   1.00
C446   C     0.35538   0.86635   0.27605   0.00000  Uiso   1.00
C447   C     0.51634   0.87426   0.04701   0.00000  Uiso   1.00
C448   C     0.46450   0.83451   0.45236   0.00000  Uiso   1.00
C449   C     0.53885   0.83432   0.45204   0.00000  Uiso   1.00
C450   C     0.49050   0.79477   0.04447   0.00000  Uiso   1.00
C451   C     0.51655   0.87375   0.09302   0.00000  Uiso   1.00
C452   C     0.46357   0.83281   0.40640   0.00000  Uiso   1.00
C453   C     0.53839   0.83168   0.40609   0.00000  Uiso   1.00
C454   C     0.49117   0.79285   0.09036   0.00000  Uiso   1.00
C455   C     0.50296   0.83309   0.11571   0.00000  Uiso   1.00
C456   C     0.50068   0.83334   0.38295   0.00000  Uiso   1.00
C457   C     0.50268   0.83528   0.02300   0.00000  Uiso   1.00
C458   C     0.50202   0.83614   0.47501   0.00000  Uiso   1.00
C459   C     0.62382   0.83414   0.24950   0.00000  Uiso   1.00
C460   C     0.37612   0.83406   0.24876   0.00000  Uiso   1.00
Cu461  Cu    0.50000   0.88022   0.25000   0.00000  Uiso   1.00
Cu462  Cu    0.50000   0.78645   0.25000   0.00000  Uiso   1.00
H463   H     0.44728   0.70914   0.20899   0.00000  Uiso   1.00
H464   H     0.55150   0.95759   0.29255   0.00000  Uiso   1.00
H465   H     0.55198   0.71105   0.29236   0.00000  Uiso   1.00
H466   H     0.44778   0.95563   0.20796   0.00000  Uiso   1.00
H467   H     0.52659   0.90522   0.02971   0.00000  Uiso   1.00
H468   H     0.43609   0.83370   0.47066   0.00000  Uiso   1.00
H469   H     0.56773   0.83295   0.47008   0.00000  Uiso   1.00
H470   H     0.48099   0.76427   0.02514   0.00000  Uiso   1.00
N471   N     0.50000   0.95069   0.25000   0.00000  Uiso   1.00
N472   N     0.50000   0.71598   0.25000   0.00000  Uiso   1.00
O473   O     0.43988   0.87291   0.24999   0.00000  Uiso   1.00
O474   O     0.56012   0.79375   0.25001   0.00000  Uiso   1.00
O475   O     0.56012   0.87291   0.25001   0.00000  Uiso   1.00
O476   O     0.43988   0.79375   0.25000   0.00000  Uiso   1.00
O477   O     0.50000   0.87293   0.18573   0.00000  Uiso   1.00
O478   O     0.50000   0.79374   0.31427   0.00000  Uiso   1.00
O479   O     0.50000   0.87293   0.31427   0.00000  Uiso   1.00
O480   O     0.50000   0.79374   0.18573   0.00000  Uiso   1.00
C481   C     0.53225   0.91521   0.11545   0.00000  Uiso   1.00
N482   N     0.54484   0.94844   0.13331   0.00000  Uiso   1.00
C483   C     0.42444   0.82620   0.38442   0.00000  Uiso   1.00
N484   N     0.39297   0.82012   0.36724   0.00000  Uiso   1.00
C485   C     0.57646   0.82227   0.38393   0.00000  Uiso   1.00
N486   N     0.60700   0.81379   0.36660   0.00000  Uiso   1.00
C487   C     0.48022   0.74844   0.10944   0.00000  Uiso   1.00
N488   N     0.47170   0.71242   0.12401   0.00000  Uiso   1.00
C489   C     0.37502   0.77535   0.18744   0.00000  Uiso   1.00
N490   N     0.39129   0.75275   0.16111   0.00000  Uiso   1.00
C491   C     0.62531   0.89625   0.30826   0.00000  Uiso   1.00
N492   N     0.60959   0.92039   0.33380   0.00000  Uiso   1.00
C493   C     0.62173   0.77411   0.18924   0.00000  Uiso   1.00
N494   N     0.60360   0.75048   0.16451   0.00000  Uiso   1.00
C495   C     0.37778   0.90003   0.30370   0.00000  Uiso   1.00
N496   N     0.39553   0.92690   0.32564   0.00000  Uiso   1.00
C497   C     0.75414   0.83336   0.24940   0.00000  Uiso   1.00
C498   C     0.91252   0.83354   0.25027   0.00000  Uiso   1.00
C499   C     0.83431   0.83314   0.16468   0.00000  Uiso   1.00
C500   C     0.83342   0.83341   0.33483   0.00000  Uiso   1.00
C501   C     0.80414   0.69092   0.22706   0.00000  Uiso   1.00
C502   C     0.86207   0.97577   0.27354   0.00000  Uiso   1.00
C503   C     0.86221   0.69200   0.27345   0.00000  Uiso   1.00
C504   C     0.80431   0.97468   0.22673   0.00000  Uiso   1.00
C505   C     0.68737   0.80385   0.21993   0.00000  Uiso   1.00
C506   C     0.97925   0.86578   0.27701   0.00000  Uiso   1.00
C507   C     0.97781   0.80385   0.22030   0.00000  Uiso   1.00
C508   C     0.68871   0.86635   0.27605   0.00000  Uiso   1.00
C509   C     0.84967   0.87426   0.04701   0.00000  Uiso   1.00
C510   C     0.79783   0.83451   0.45236   0.00000  Uiso   1.00
C511   C     0.87218   0.83432   0.45204   0.00000  Uiso   1.00
C512   C     0.82384   0.79477   0.04447   0.00000  Uiso   1.00
C513   C     0.84988   0.87375   0.09302   0.00000  Uiso   1.00
C514   C     0.79690   0.83281   0.40640   0.00000  Uiso   1.00
C515   C     0.87173   0.83168   0.40609   0.00000  Uiso   1.00
C516   C     0.82451   0.79285   0.09036   0.00000  Uiso   1.00
C517   C     0.83629   0.83309   0.11571   0.00000  Uiso   1.00
C518   C     0.83401   0.83334   0.38295   0.00000  Uiso   1.00
C519   C     0.83601   0.83528   0.02300   0.00000  Uiso   1.00
C520   C     0.83535   0.83614   0.47501   0.00000  Uiso   1.00
C521   C     0.95715   0.83414   0.24950   0.00000  Uiso   1.00
C522   C     0.70945   0.83406   0.24876   0.00000  Uiso   1.00
Cu523  Cu    0.83333   0.88022   0.25000   0.00000  Uiso   1.00
Cu524  Cu    0.83333   0.78645   0.25000   0.00000  Uiso   1.00
H525   H     0.78061   0.70914   0.20899   0.00000  Uiso   1.00
H526   H     0.88483   0.95759   0.29255   0.00000  Uiso   1.00
H527   H     0.88531   0.71105   0.29236   0.00000  Uiso   1.00
H528   H     0.78111   0.95563   0.20796   0.00000  Uiso   1.00
H529   H     0.85992   0.90522   0.02971   0.00000  Uiso   1.00
H530   H     0.76942   0.83370   0.47066   0.00000  Uiso   1.00
H531   H     0.90106   0.83295   0.47008   0.00000  Uiso   1.00
H532   H     0.81432   0.76427   0.02514   0.00000  Uiso   1.00
N533   N     0.83333   0.95069   0.25000   0.00000  Uiso   1.00
N534   N     0.83333   0.71598   0.25000   0.00000  Uiso   1.00
O535   O     0.77321   0.87291   0.24999   0.00000  Uiso   1.00
O536   O     0.89345   0.79375   0.25001   0.00000  Uiso   1.00
O537   O     0.89345   0.87291   0.25001   0.00000  Uiso   1.00
O538   O     0.77321   0.79375   0.25000   0.00000  Uiso   1.00
O539   O     0.83333   0.87293   0.18573   0.00000  Uiso   1.00
O540   O     0.83334   0.79374   0.31427   0.00000  Uiso   1.00
O541   O     0.83334   0.87293   0.31427   0.00000  Uiso   1.00
O542   O     0.83333   0.79374   0.18573   0.00000  Uiso   1.00
C543   C     0.86559   0.91521   0.11545   0.00000  Uiso   1.00
N544   N     0.87818   0.94844   0.13331   0.00000  Uiso   1.00
C545   C     0.75777   0.82620   0.38442   0.00000  Uiso   1.00
N546   N     0.72630   0.82012   0.36724   0.00000  Uiso   1.00
C547   C     0.90979   0.82227   0.38393   0.00000  Uiso   1.00
N548   N     0.94033   0.81379   0.36660   0.00000  Uiso   1.00
C549   C     0.81356   0.74844   0.10944   0.00000  Uiso   1.00
N550   N     0.80503   0.71242   0.12401   0.00000  Uiso   1.00
C551   C     0.70835   0.77535   0.18744   0.00000  Uiso   1.00
N552   N     0.72463   0.75275   0.16111   0.00000  Uiso   1.00
C553   C     0.95864   0.89625   0.30826   0.00000  Uiso   1.00
N554   N     0.94292   0.92039   0.33380   0.00000  Uiso   1.00
C555   C     0.95506   0.77411   0.18924   0.00000  Uiso   1.00
N556   N     0.93694   0.75048   0.16451   0.00000  Uiso   1.00
C557   C     0.71111   0.90003   0.30370   0.00000  Uiso   1.00
N558   N     0.72886   0.92690   0.32564   0.00000  Uiso   1.00
C559   C     0.08747   0.16669   0.74940   0.00000  Uiso   1.00
C560   C     0.24585   0.16688   0.75027   0.00000  Uiso   1.00
C561   C     0.16765   0.16648   0.66468   0.00000  Uiso   1.00
C562   C     0.16675   0.16674   0.83483   0.00000  Uiso   1.00
C563   C     0.13747   0.02426   0.72706   0.00000  Uiso   1.00
C564   C     0.19540   0.30910   0.77354   0.00000  Uiso   1.00
C565   C     0.19554   0.02533   0.77345   0.00000  Uiso   1.00
C566   C     0.13764   0.30801   0.72673   0.00000  Uiso   1.00
C567   C     0.02070   0.13718   0.71993   0.00000  Uiso   1.00
C568   C     0.31259   0.19912   0.77701   0.00000  Uiso   1.00
C569   C     0.31114   0.13718   0.72030   0.00000  Uiso   1.00
C570   C     0.02205   0.19968   0.77605   0.00000  Uiso   1.00
C571   C     0.18301   0.20760   0.54701   0.00000  Uiso   1.00
C572   C     0.13117   0.16785   0.95236   0.00000  Uiso   1.00
C573   C     0.20552   0.16765   0.95204   0.00000  Uiso   1.00
C574   C     0.15717   0.12810   0.54447   0.00000  Uiso   1.00
C575   C     0.18322   0.20709   0.59302   0.00000  Uiso   1.00
C576   C     0.13023   0.16615   0.90640   0.00000  Uiso   1.00
C577   C     0.20506   0.16501   0.90609   0.00000  Uiso   1.00
C578   C     0.15784   0.12618   0.59036   0.00000  Uiso   1.00
C579   C     0.16963   0.16643   0.61571   0.00000  Uiso   1.00
C580   C     0.16735   0.16667   0.88295   0.00000  Uiso   1.00
C581   C     0.16934   0.16862   0.52300   0.00000  Uiso   1.00
C582   C     0.16868   0.16948   0.97501   0.00000  Uiso   1.00
C583   C     0.29049   0.16747   0.74950   0.00000  Uiso   1.00
C584   C     0.04279   0.16740   0.74876   0.00000  Uiso   1.00
Cu585  Cu    0.16667   0.21355   0.75000   0.00000  Uiso   1.00
Cu586  Cu    0.16667   0.11978   0.75000   0.00000  Uiso   1.00
H587   H     0.11395   0.04247   0.70899   0.00000  Uiso   1.00
H588   H     0.21817   0.29093   0.79255   0.00000  Uiso   1.00
H589   H     0.21865   0.04439   0.79236   0.00000  Uiso   1.00
H590   H     0.11444   0.28896   0.70796   0.00000  Uiso   1.00
H591   H     0.19326   0.23856   0.52971   0.00000  Uiso   1.00
H592   H     0.10276   0.16704   0.97066   0.00000  Uiso   1.00
H593   H     0.23439   0.16628   0.97008   0.00000  Uiso   1.00
H594   H     0.14765   0.09761   0.52514   0.00000  Uiso   1.00
N595   N     0.16667   0.28402   0.75000   0.00000  Uiso   1.00
N596   N     0.16667   0.04931   0.75000   0.00000  Uiso   1.00
O597   O     0.10655   0.20625   0.74999   0.00000  Uiso   1.00
O598   O     0.22679   0.12709   0.75001   0.00000  Uiso   1.00
O599   O     0.22679   0.20625   0.75001   0.00000  Uiso   1.00
O600   O     0.10655   0.12709   0.75000   0.00000  Uiso   1.00
O601   O     0.16666   0.20626   0.68573   0.00000  Uiso   1.00
O602   O     0.16667   0.12707   0.81427   0.00000  Uiso   1.00
O603   O     0.16667   0.20626   0.81427   0.00000  Uiso   1.00
O604   O     0.16666   0.12707   0.68573   0.00000  Uiso   1.00
C605   C     0.19892   0.24855   0.61545   0.00000  Uiso   1.00
N606   N     0.21151   0.28178   0.63331   0.00000  Uiso   1.00
C607   C     0.09111   0.15953   0.88442   0.00000  Uiso   1.00
N608   N     0.05964   0.15345   0.86724   0.00000  Uiso   1.00
C609   C     0.24312   0.15561   0.88393   0.00000  Uiso   1.00
N610   N     0.27366   0.14713   0.86660   0.00000  Uiso   1.00
C611   C     0.14689   0.08177   0.60944   0.00000  Uiso   1.00
N612   N     0.13837   0.04575   0.62401   0.00000  Uiso   1.00
C613   C     0.04168   0.10868   0.68744   0.00000  Uiso   1.00
N614   N     0.05796   0.08608   0.66111   0.00000  Uiso   1.00
C615   C     0.29197   0.22959   0.80826   0.00000  Uiso   1.00
N616   N     0.27625   0.25373   0.83380   0.00000  Uiso   1.00
C617   C     0.28840   0.10744   0.68924   0.00000  Uiso   1.00
N618   N     0.27027   0.08381   0.66451   0.00000  Uiso   1.00
C619   C     0.04444   0.23336   0.80370   0.00000  Uiso   1.00
N620   N     0.06220   0.26023   0.82564   0.00000  Uiso   1.00
C621   C     0.42080   0.16669   0.74940   0.00000  Uiso   1.00
C622   C     0.57918   0.16688   0.75027   0.00000  Uiso   1.00
C623   C     0.50098   0.16648   0.66468   0.00000  Uiso   1.00
C624   C     0.50008   0.16674   0.83483   0.00000  Uiso   1.00
C625   C     0.47081   0.02426   0.72706   0.00000  Uiso   1.00
C626   C     0.52873   0.30910   0.77354   0.00000  Uiso   1.00
C627   C     0.52888   0.02533   0.77345   0.00000  Uiso   1.00
C628   C     0.47098   0.30801   0.72673   0.00000  Uiso   1.00
C629   C     0.35404   0.13718   0.71993   0.00000  Uiso   1.00
C630   C     0.64592   0.19912   0.77701   0.00000  Uiso   1.00
C631   C     0.64448   0.13718   0.72030   0.00000  Uiso   1.00
C632   C     0.35538   0.19968   0.77605   0.00000  Uiso   1.00
C633   C     0.51634   0.20760   0.54701   0.00000  Uiso   1.00
C634   C     0.46450   0.16785   0.95236   0.00000  Uiso   1.00
C635   C     0.53885   0.16765   0.95204   0.00000  Uiso   1.00
C636   C     0.49050   0.12810   0.54447   0.00000  Uiso   1.00
C637   C     0.51655   0.20709   0.59302   0.00000  Uiso   1.00
C638   C     0.46357   0.16615   0.90640   0.00000  Uiso   1.00
C639   C     0.53839   0.16501   0.90609   0.00000  Uiso   1.00
C640   C     0.49117   0.12618   0.59036   0.00000  Uiso   1.00
C641   C     0.50296   0.16643   0.61571   0.00000  Uiso   1.00
C642   C     0.50068   0.16667   0.88295   0.00000  Uiso   1.00
C643   C     0.50268   0.16862   0.52300   0.00000  Uiso   1.00
C644   C     0.50202   0.16948   0.97501   0.00000  Uiso   1.00
C645   C     0.62382   0.16747   0.74950   0.00000  Uiso   1.00
C646   C     0.37612   0.16740   0.74876   0.00000  Uiso   1.00
Cu647  Cu    0.50000   0.21355   0.75000   0.00000  Uiso   1.00
Cu648  Cu    0.50000   0.11978   0.75000   0.00000  Uiso   1.00
H649   H     0.44728   0.04247   0.70899   0.00000  Uiso   1.00
H650   H     0.55150   0.29093   0.79255   0.00000  Uiso   1.00
H651   H     0.55198   0.04439   0.79236   0.00000  Uiso   1.00
H652   H     0.44778   0.28896   0.70796   0.00000  Uiso   1.00
H653   H     0.52659   0.23856   0.52971   0.00000  Uiso   1.00
H654   H     0.43609   0.16704   0.97066   0.00000  Uiso   1.00
H655   H     0.56773   0.16628   0.97008   0.00000  Uiso   1.00
H656   H     0.48099   0.09761   0.52514   0.00000  Uiso   1.00
N657   N     0.50000   0.28402   0.75000   0.00000  Uiso   1.00
N658   N     0.50000   0.04931   0.75000   0.00000  Uiso   1.00
O659   O     0.43988   0.20625   0.74999   0.00000  Uiso   1.00
O660   O     0.56012   0.12709   0.75001   0.00000  Uiso   1.00
O661   O     0.56012   0.20625   0.75001   0.00000  Uiso   1.00
O662   O     0.43988   0.12709   0.75000   0.00000  Uiso   1.00
O663   O     0.50000   0.20626   0.68573   0.00000  Uiso   1.00
O664   O     0.50000   0.12707   0.81427   0.00000  Uiso   1.00
O665   O     0.50000   0.20626   0.81427   0.00000  Uiso   1.00
O666   O     0.50000   0.12707   0.68573   0.00000  Uiso   1.00
C667   C     0.53225   0.24855   0.61545   0.00000  Uiso   1.00
N668   N     0.54484   0.28178   0.63331   0.00000  Uiso   1.00
C669   C     0.42444   0.15953   0.88442   0.00000  Uiso   1.00
N670   N     0.39297   0.15345   0.86724   0.00000  Uiso   1.00
C671   C     0.57646   0.15561   0.88393   0.00000  Uiso   1.00
N672   N     0.60700   0.14713   0.86660   0.00000  Uiso   1.00
C673   C     0.48022   0.08177   0.60944   0.00000  Uiso   1.00
N674   N     0.47170   0.04575   0.62401   0.00000  Uiso   1.00
C675   C     0.37502   0.10868   0.68744   0.00000  Uiso   1.00
N676   N     0.39129   0.08608   0.66111   0.00000  Uiso   1.00
C677   C     0.62531   0.22959   0.80826   0.00000  Uiso   1.00
N678   N     0.60959   0.25373   0.83380   0.00000  Uiso   1.00
C679   C     0.62173   0.10744   0.68924   0.00000  Uiso   1.00
N680   N     0.60360   0.08381   0.66451   0.00000  Uiso   1.00
C681   C     0.37778   0.23336   0.80370   0.00000  Uiso   1.00
N682   N     0.39553   0.26023   0.82564   0.00000  Uiso   1.00
C683   C     0.75414   0.16669   0.74940   0.00000  Uiso   1.00
C684   C     0.91252   0.16688   0.75027   0.00000  Uiso   1.00
C685   C     0.83431   0.16648   0.66468   0.00000  Uiso   1.00
C686   C     0.83342   0.16674   0.83483   0.00000  Uiso   1.00
C687   C     0.80414   0.02426   0.72706   0.00000  Uiso   1.00
C688   C     0.86207   0.30910   0.77354   0.00000  Uiso   1.00
C689   C     0.86221   0.02533   0.77345   0.00000  Uiso   1.00
C690   C     0.80431   0.30801   0.72673   0.00000  Uiso   1.00
C691   C     0.68737   0.13718   0.71993   0.00000  Uiso   1.00
C692   C     0.97925   0.19912   0.77701   0.00000  Uiso   1.00
C693   C     0.97781   0.13718   0.72030   0.00000  Uiso   1.00
C694   C     0.68871   0.19968   0.77605   0.00000  Uiso   1.00
C695   C     0.84967   0.20760   0.54701   0.00000  Uiso   1.00
C696   C     0.79783   0.16785   0.95236   0.00000  Uiso   1.00
C697   C     0.87218   0.16765   0.95204   0.00000  Uiso   1.00
C698   C     0.82384   0.12810   0.54447   0.00000  Uiso   1.00
C699   C     0.84988   0.20709   0.59302   0.00000  Uiso   1.00
C700   C     0.79690   0.16615   0.90640   0.00000  Uiso   1.00
C701   C     0.87173   0.16501   0.90609   0.00000  Uiso   1.00
C702   C     0.82451   0.12618   0.59036   0.00000  Uiso   1.00
C703   C     0.83629   0.16643   0.61571   0.00000  Uiso   1.00
C704   C     0.83401   0.16667   0.88295   0.00000  Uiso   1.00
C705   C     0.83601   0.16862   0.52300   0.00000  Uiso   1.00
C706   C     0.83535   0.16948   0.97501   0.00000  Uiso   1.00
C707   C     0.95715   0.16747   0.74950   0.00000  Uiso   1.00
C708   C     0.70945   0.16740   0.74876   0.00000  Uiso   1.00
Cu709  Cu    0.83333   0.21355   0.75000   0.00000  Uiso   1.00
Cu710  Cu    0.83333   0.11978   0.75000   0.00000  Uiso   1.00
H711   H     0.78061   0.04247   0.70899   0.00000  Uiso   1.00
H712   H     0.88483   0.29093   0.79255   0.00000  Uiso   1.00
H713   H     0.88531   0.04439   0.79236   0.00000  Uiso   1.00
H714   H     0.78111   0.28896   0.70796   0.00000  Uiso   1.00
H715   H     0.85992   0.23856   0.52971   0.00000  Uiso   1.00
H716   H     0.76942   0.16704   0.97066   0.00000  Uiso   1.00
H717   H     0.90106   0.16628   0.97008   0.00000  Uiso   1.00
H718   H     0.81432   0.09761   0.52514   0.00000  Uiso   1.00
N719   N     0.83333   0.28402   0.75000   0.00000  Uiso   1.00
N720   N     0.83333   0.04931   0.75000   0.00000  Uiso   1.00
O721   O     0.77321   0.20625   0.74999   0.00000  Uiso   1.00
O722   O     0.89345   0.12709   0.75001   0.00000  Uiso   1.00
O723   O     0.89345   0.20625   0.75001   0.00000  Uiso   1.00
O724   O     0.77321   0.12709   0.75000   0.00000  Uiso   1.00
O725   O     0.83333   0.20626   0.68573   0.00000  Uiso   1.00
O726   O     0.83334   0.12707   0.81427   0.00000  Uiso   1.00
O727   O     0.83334   0.20626   0.81427   0.00000  Uiso   1.00
O728   O     0.83333   0.12707   0.68573   0.00000  Uiso   1.00
C729   C     0.86559   0.24855   0.61545   0.00000  Uiso   1.00
N730   N     0.87818   0.28178   0.63331   0.00000  Uiso   1.00
C731   C     0.75777   0.15953   0.88442   0.00000  Uiso   1.00
N732   N     0.72630   0.15345   0.86724   0.00000  Uiso   1.00
C733   C     0.90979   0.15561   0.88393   0.00000  Uiso   1.00
N734   N     0.94033   0.14713   0.86660   0.00000  Uiso   1.00
C735   C     0.81356   0.08177   0.60944   0.00000  Uiso   1.00
N736   N     0.80503   0.04575   0.62401   0.00000  Uiso   1.00
C737   C     0.70835   0.10868   0.68744   0.00000  Uiso   1.00
N738   N     0.72463   0.08608   0.66111   0.00000  Uiso   1.00
C739   C     0.95864   0.22959   0.80826   0.00000  Uiso   1.00
N740   N     0.94292   0.25373   0.83380   0.00000  Uiso   1.00
C741   C     0.95506   0.10744   0.68924   0.00000  Uiso   1.00
N742   N     0.93694   0.08381   0.66451   0.00000  Uiso   1.00
C743   C     0.71111   0.23336   0.80370   0.00000  Uiso   1.00
N744   N     0.72886   0.26023   0.82564   0.00000  Uiso   1.00
C745   C     0.08747   0.50002   0.74940   0.00000  Uiso   1.00
C746   C     0.24585   0.50021   0.75027   0.00000  Uiso   1.00
C747   C     0.16765   0.49981   0.66468   0.00000  Uiso   1.00
C748   C     0.16675   0.50008   0.83483   0.00000  Uiso   1.00
C749   C     0.13747   0.35759   0.72706   0.00000  Uiso   1.00
C750   C     0.19540   0.64244   0.77354   0.00000  Uiso   1.00
C751   C     0.19554   0.35867   0.77345   0.00000  Uiso   1.00
C752   C     0.13764   0.64134   0.72673   0.00000  Uiso   1.00
C753   C     0.02070   0.47051   0.71993   0.00000  Uiso   1.00
C754   C     0.31259   0.53245   0.77701   0.00000  Uiso   1.00
C755   C     0.31114   0.47051   0.72030   0.00000  Uiso   1.00
C756   C     0.02205   0.53301   0.77605   0.00000  Uiso   1.00
C757   C     0.18301   0.54093   0.54701   0.00000  Uiso   1.00
C758   C     0.13117   0.50118   0.95236   0.00000  Uiso   1.00
C759   C     0.20552   0.50098   0.95204   0.00000  Uiso   1.00
C760   C     0.15717   0.46143   0.54447   0.00000  Uiso   1.00
C761   C     0.18322   0.54042   0.59302   0.00000  Uiso   1.00
C762   C     0.13023   0.49948   0.90640   0.00000  Uiso   1.00
C763   C     0.20506   0.49835   0.90609   0.00000  Uiso   1.00
C764   C     0.15784   0.45952   0.59036   0.00000  Uiso   1.00
C765   C     0.16963   0.49976   0.61571   0.00000  Uiso   1.00
C766   C     0.16735   0.50000   0.88295   0.00000  Uiso   1.00
C767   C     0.16934   0.50195   0.52300   0.00000  Uiso   1.00
C768   C     0.16868   0.50281   0.97501   0.00000  Uiso   1.00
C769   C     0.29049   0.50080   0.74950   0.00000  Uiso   1.00
C770   C     0.04279   0.50073   0.74876   0.00000  Uiso   1.00
Cu771  Cu    0.16667   0.54689   0.75000   0.00000  Uiso   1.00
Cu772  Cu    0.16667   0.45311   0.75000   0.00000  Uiso   1.00
H773   H     0.11395   0.37581   0.70899   0.00000  Uiso   1.00
H774   H     0.21817   0.62426   0.79255   0.00000  Uiso   1.00
H775   H     0.21865   0.37772   0.79236   0.00000  Uiso   1.00
H776   H     0.11444   0.62229   0.70796   0.00000  Uiso   1.00
H777   H     0.19326   0.57189   0.52971   0.00000  Uiso   1.00
H778   H     0.10276   0.50037   0.97066   0.00000  Uiso   1.00
H779   H     0.23439   0.49961   0.97008   0.00000  Uiso   1.00
H780   H     0.14765   0.43094   0.52514   0.00000  Uiso   1.00
N781   N     0.16667   0.61736   0.75000   0.00000  Uiso   1.00
N782   N     0.16667   0.38264   0.75000   0.00000  Uiso   1.00
O783   O     0.10655   0.53958   0.74999   0.00000  Uiso   1.00
O784   O     0.22679   0.46042   0.75001   0.00000  Uiso   1.00
O785   O     0.22679   0.53958   0.75001   0.00000  Uiso   1.00
O786   O     0.10655   0.46042   0.75000   0.00000  Uiso   1.00
O787   O     0.16666   0.53959   0.68573   0.00000  Uiso   1.00
O788   O     0.16667   0.46041   0.81427   0.00000  Uiso   1.00
O789   O     0.16667   0.53959   0.81427   0.00000  Uiso   1.00
O790   O     0.16666   0.46041   0.68573   0.00000  Uiso   1.00
C791   C     0.19892   0.58188   0.61545   0.00000  Uiso   1.00
N792   N     0.21151   0.61511   0.63331   0.00000  Uiso   1.00
C793   C     0.09111   0.49286   0.88442   0.00000  Uiso   1.00
N794   N     0.05964   0.48679   0.86724   0.00000  Uiso   1.00
C795   C     0.24312   0.48894   0.88393   0.00000  Uiso   1.00
N796   N     0.27366   0.48046   0.86660   0.00000  Uiso   1.00
C797   C     0.14689   0.41510   0.60944   0.00000  Uiso   1.00
N798   N     0.13837   0.37908   0.62401   0.00000  Uiso   1.00
C799   C     0.04168   0.44202   0.68744   0.00000  Uiso   1.00
N800   N     0.05796   0.41942   0.66111   0.00000  Uiso   1.00
C801   C     0.29197   0.56292   0.80826   0.00000  Uiso   1.00
N802   N     0.27625   0.58706   0.83380   0.00000  Uiso   1.00
C803   C     0.28840   0.44078   0.68924   0.00000  Uiso   1.00
N804   N     0.27027   0.41714   0.66451   0.00000  Uiso   1.00
C805   C     0.04444   0.56669   0.80370   0.00000  Uiso   1.00
N806   N     0.06220   0.59357   0.82564   0.00000  Uiso   1.00
C807   C     0.42080   0.50002   0.74940   0.00000  Uiso   1.00
C808   C     0.57918   0.50021   0.75027   0.00000  Uiso   1.00
C809   C     0.50098   0.49981   0.66468   0.00000  Uiso   1.00
C810   C     0.50008   0.50008   0.83483   0.00000  Uiso   1.00
C811   C     0.47081   0.35759   0.72706   0.00000  Uiso   1.00
C812   C     0.52873   0.64244   0.77354   0.00000  Uiso   1.00
C813   C     0.52888   0.35867   0.77345   0.00000  Uiso   1.00
C814   C     0.47098   0.64134   0.72673   0.00000  Uiso   1.00
C815   C     0.35404   0.47051   0.71993   0.00000  Uiso   1.00
C816   C     0.64592   0.53245   0.77701   0.00000  Uiso   1.00
C817   C     0.64448   0.47051   0.72030   0.00000  Uiso   1.00
C818   C     0.35538   0.53301   0.77605   0.00000  Uiso   1.00
C819   C     0.51634   0.54093   0.54701   0.00000  Uiso   1.00
C820   C     0.46450   0.50118   0.95236   0.00000  Uiso   1.00
C821   C     0.53885   0.50098   0.95204   0.00000  Uiso   1.00
C822   C     0.49050   0.46143   0.54447   0.00000  Uiso   1.00
C823   C     0.51655   0.54042   0.59302   0.00000  Uiso   1.00
C824   C     0.46357   0.49948   0.90640   0.00000  Uiso   1.00
C825   C     0.53839   0.49835   0.90609   0.00000  Uiso   1.00
C826   C     0.49117   0.45952   0.59036   0.00000  Uiso   1.00
C827   C     0.50296   0.49976   0.61571   0.00000  Uiso   1.00
C828   C     0.50068   0.50000   0.88295   0.00000  Uiso   1.00
C829   C     0.50268   0.50195   0.52300   0.00000  Uiso   1.00
C830   C     0.50202   0.50281   0.97501   0.00000  Uiso   1.00
C831   C     0.62382   0.50080   0.74950   0.00000  Uiso   1.00
C832   C     0.37612   0.50073   0.74876   0.00000  Uiso   1.00
Cu833  Cu    0.50000   0.54689   0.75000   0.00000  Uiso   1.00
Cu834  Cu    0.50000   0.45311   0.75000   0.00000  Uiso   1.00
H835   H     0.44728   0.37581   0.70899   0.00000  Uiso   1.00
H836   H     0.55150   0.62426   0.79255   0.00000  Uiso   1.00
H837   H     0.55198   0.37772   0.79236   0.00000  Uiso   1.00
H838   H     0.44778   0.62229   0.70796   0.00000  Uiso   1.00
H839   H     0.52659   0.57189   0.52971   0.00000  Uiso   1.00
H840   H     0.43609   0.50037   0.97066   0.00000  Uiso   1.00
H841   H     0.56773   0.49961   0.97008   0.00000  Uiso   1.00
H842   H     0.48099   0.43094   0.52514   0.00000  Uiso   1.00
N843   N     0.50000   0.61736   0.75000   0.00000  Uiso   1.00
N844   N     0.50000   0.38264   0.75000   0.00000  Uiso   1.00
O845   O     0.43988   0.53958   0.74999   0.00000  Uiso   1.00
O846   O     0.56012   0.46042   0.75001   0.00000  Uiso   1.00
O847   O     0.56012   0.53958   0.75001   0.00000  Uiso   1.00
O848   O     0.43988   0.46042   0.75000   0.00000  Uiso   1.00
O849   O     0.50000   0.53959   0.68573   0.00000  Uiso   1.00
O850   O     0.50000   0.46041   0.81427   0.00000  Uiso   1.00
O851   O     0.50000   0.53959   0.81427   0.00000  Uiso   1.00
O852   O     0.50000   0.46041   0.68573   0.00000  Uiso   1.00
C853   C     0.53225   0.58188   0.61545   0.00000  Uiso   1.00
N854   N     0.54484   0.61511   0.63331   0.00000  Uiso   1.00
C855   C     0.42444   0.49286   0.88442   0.00000  Uiso   1.00
N856   N     0.39297   0.48679   0.86724   0.00000  Uiso   1.00
C857   C     0.57646   0.48894   0.88393   0.00000  Uiso   1.00
N858   N     0.60700   0.48046   0.86660   0.00000  Uiso   1.00
C859   C     0.48022   0.41510   0.60944   0.00000  Uiso   1.00
N860   N     0.47170   0.37908   0.62401   0.00000  Uiso   1.00
C861   C     0.37502   0.44202   0.68744   0.00000  Uiso   1.00
N862   N     0.39129   0.41942   0.66111   0.00000  Uiso   1.00
C863   C     0.62531   0.56292   0.80826   0.00000  Uiso   1.00
N864   N     0.60959   0.58706   0.83380   0.00000  Uiso   1.00
C865   C     0.62173   0.44078   0.68924   0.00000  Uiso   1.00
N866   N     0.60360   0.41714   0.66451   0.00000  Uiso   1.00
C867   C     0.37778   0.56669   0.80370   0.00000  Uiso   1.00
N868   N     0.39553   0.59357   0.82564   0.00000  Uiso   1.00
C869   C     0.75414   0.50002   0.74940   0.00000  Uiso   1.00
C870   C     0.91252   0.50021   0.75027   0.00000  Uiso   1.00
C871   C     0.83431   0.49981   0.66468   0.00000  Uiso   1.00
C872   C     0.83342   0.50008   0.83483   0.00000  Uiso   1.00
C873   C     0.80414   0.35759   0.72706   0.00000  Uiso   1.00
C874   C     0.86207   0.64244   0.77354   0.00000  Uiso   1.00
C875   C     0.86221   0.35867   0.77345   0.00000  Uiso   1.00
C876   C     0.80431   0.64134   0.72673   0.00000  Uiso   1.00
C877   C     0.68737   0.47051   0.71993   0.00000  Uiso   1.00
C878   C     0.97925   0.53245   0.77701   0.00000  Uiso   1.00
C879   C     0.97781   0.47051   0.72030   0.00000  Uiso   1.00
C880   C     0.68871   0.53301   0.77605   0.00000  Uiso   1.00
C881   C     0.84967   0.54093   0.54701   0.00000  Uiso   1.00
C882   C     0.79783   0.50118   0.95236   0.00000  Uiso   1.00
C883   C     0.87218   0.50098   0.95204   0.00000  Uiso   1.00
C884   C     0.82384   0.46143   0.54447   0.00000  Uiso   1.00
C885   C     0.84988   0.54042   0.59302   0.00000  Uiso   1.00
C886   C     0.79690   0.49948   0.90640   0.00000  Uiso   1.00
C887   C     0.87173   0.49835   0.90609   0.00000  Uiso   1.00
C888   C     0.82451   0.45952   0.59036   0.00000  Uiso   1.00
C889   C     0.83629   0.49976   0.61571   0.00000  Uiso   1.00
C890   C     0.83401   0.50000   0.88295   0.00000  Uiso   1.00
C891   C     0.83601   0.50195   0.52300   0.00000  Uiso   1.00
C892   C     0.83535   0.50281   0.97501   0.00000  Uiso   1.00
C893   C     0.95715   0.50080   0.74950   0.00000  Uiso   1.00
C894   C     0.70945   0.50073   0.74876   0.00000  Uiso   1.00
Cu895  Cu    0.83333   0.54689   0.75000   0.00000  Uiso   1.00
Cu896  Cu    0.83333   0.45311   0.75000   0.00000  Uiso   1.00
H897   H     0.78061   0.37581   0.70899   0.00000  Uiso   1.00
H898   H     0.88483   0.62426   0.79255   0.00000  Uiso   1.00
H899   H     0.88531   0.37772   0.79236   0.00000  Uiso   1.00
H900   H     0.78111   0.62229   0.70796   0.00000  Uiso   1.00
H901   H     0.85992   0.57189   0.52971   0.00000  Uiso   1.00
H902   H     0.76942   0.50037   0.97066   0.00000  Uiso   1.00
H903   H     0.90106   0.49961   0.97008   0.00000  Uiso   1.00
H904   H     0.81432   0.43094   0.52514   0.00000  Uiso   1.00
N905   N     0.83333   0.61736   0.75000   0.00000  Uiso   1.00
N906   N     0.83333   0.38264   0.75000   0.00000  Uiso   1.00
O907   O     0.77321   0.53958   0.74999   0.00000  Uiso   1.00
O908   O     0.89345   0.46042   0.75001   0.00000  Uiso   1.00
O909   O     0.89345   0.53958   0.75001   0.00000  Uiso   1.00
O910   O     0.77321   0.46042   0.75000   0.00000  Uiso   1.00
O911   O     0.83333   0.53959   0.68573   0.00000  Uiso   1.00
O912   O     0.83334   0.46041   0.81427   0.00000  Uiso   1.00
O913   O     0.83334   0.53959   0.81427   0.00000  Uiso   1.00
O914   O     0.83333   0.46041   0.68573   0.00000  Uiso   1.00
C915   C     0.86559   0.58188   0.61545   0.00000  Uiso   1.00
N916   N     0.87818   0.61511   0.63331   0.00000  Uiso   1.00
C917   C     0.75777   0.49286   0.88442   0.00000  Uiso   1.00
N918   N     0.72630   0.48679   0.86724   0.00000  Uiso   1.00
C919   C     0.90979   0.48894   0.88393   0.00000  Uiso   1.00
N920   N     0.94033   0.48046   0.86660   0.00000  Uiso   1.00
C921   C     0.81356   0.41510   0.60944   0.00000  Uiso   1.00
N922   N     0.80503   0.37908   0.62401   0.00000  Uiso   1.00
C923   C     0.70835   0.44202   0.68744   0.00000  Uiso   1.00
N924   N     0.72463   0.41942   0.66111   0.00000  Uiso   1.00
C925   C     0.95864   0.56292   0.80826   0.00000  Uiso   1.00
N926   N     0.94292   0.58706   0.83380   0.00000  Uiso   1.00
C927   C     0.95506   0.44078   0.68924   0.00000  Uiso   1.00
N928   N     0.93694   0.41714   0.66451   0.00000  Uiso   1.00
C929   C     0.71111   0.56669   0.80370   0.00000  Uiso   1.00
N930   N     0.72886   0.59357   0.82564   0.00000  Uiso   1.00
C931   C     0.08747   0.83336   0.74940   0.00000  Uiso   1.00
C932   C     0.24585   0.83354   0.75027   0.00000  Uiso   1.00
C933   C     0.16765   0.83314   0.66468   0.00000  Uiso   1.00
C934   C     0.16675   0.83341   0.83483   0.00000  Uiso   1.00
C935   C     0.13747   0.69092   0.72706   0.00000  Uiso   1.00
C936   C     0.19540   0.97577   0.77354   0.00000  Uiso   1.00
C937   C     0.19554   0.69200   0.77345   0.00000  Uiso   1.00
C938   C     0.13764   0.97468   0.72673   0.00000  Uiso   1.00
C939   C     0.02070   0.80385   0.71993   0.00000  Uiso   1.00
C940   C     0.31259   0.86578   0.77701   0.00000  Uiso   1.00
C941   C     0.31114   0.80385   0.72030   0.00000  Uiso   1.00
C942   C     0.02205   0.86635   0.77605   0.00000  Uiso   1.00
C943   C     0.18301   0.87426   0.54701   0.00000  Uiso   1.00
C944   C     0.13117   0.83451   0.95236   0.00000  Uiso   1.00
C945   C     0.20552   0.83432   0.95204   0.00000  Uiso   1.00
C946   C     0.15717   0.79477   0.54447   0.00000  Uiso   1.00
C947   C     0.18322   0.87375   0.59302   0.00000  Uiso   1.00
C948   C     0.13023   0.83281   0.90640   0.00000  Uiso   1.00
C949   C     0.20506   0.83168   0.90609   0.00000  Uiso   1.00
C950   C     0.15784   0.79285   0.59036   0.00000  Uiso   1.00
C951   C     0.16963   0.83309   0.61571   0.00000  Uiso   1.00
C952   C     0.16735   0.83334   0.88295   0.00000  Uiso   1.00
C953   C     0.16934   0.83528   0.52300   0.00000  Uiso   1.00
C954   C     0.16868   0.83614   0.97501   0.00000  Uiso   1.00
C955   C     0.29049   0.83414   0.74950   0.00000  Uiso   1.00
C956   C     0.04279   0.83406   0.74876   0.00000  Uiso   1.00
Cu957  Cu    0.16667   0.88022   0.75000   0.00000  Uiso   1.00
Cu958  Cu    0.16667   0.78645   0.75000   0.00000  Uiso   1.00
H959   H     0.11395   0.70914   0.70899   0.00000  Uiso   1.00
H960   H     0.21817   0.95759   0.79255   0.00000  Uiso   1.00
H961   H     0.21865   0.71105   0.79236   0.00000  Uiso   1.00
H962   H     0.11444   0.95563   0.70796   0.00000  Uiso   1.00
H963   H     0.19326   0.90522   0.52971   0.00000  Uiso   1.00
H964   H     0.10276   0.83370   0.97066   0.00000  Uiso   1.00
H965   H     0.23439   0.83295   0.97008   0.00000  Uiso   1.00
H966   H     0.14765   0.76427   0.52514   0.00000  Uiso   1.00
N967   N     0.16667   0.95069   0.75000   0.00000  Uiso   1.00
N968   N     0.16667   0.71598   0.75000   0.00000  Uiso   1.00
O969   O     0.10655   0.87291   0.74999   0.00000  Uiso   1.00
O970   O     0.22679   0.79375   0.75001   0.00000  Uiso   1.00
O971   O     0.22679   0.87291   0.75001   0.00000  Uiso   1.00
O972   O     0.10655   0.79375   0.75000   0.00000  Uiso   1.00
O973   O     0.16666   0.87293   0.68573   0.00000  Uiso   1.00
O974   O     0.16667   0.79374   0.81427   0.00000  Uiso   1.00
O975   O     0.16667   0.87293   0.81427   0.00000  Uiso   1.00
O976   O     0.16666   0.79374   0.68573   0.00000  Uiso   1.00
C977   C     0.19892   0.91521   0.61545   0.00000  Uiso   1.00
N978   N     0.21151   0.94844   0.63331   0.00000  Uiso   1.00
C979   C     0.09111   0.82620   0.88442   0.00000  Uiso   1.00
N980   N     0.05964   0.82012   0.86724   0.00000  Uiso   1.00
C981   C     0.24312   0.82227   0.88393   0.00000  Uiso   1.00
N982   N     0.27366   0.81379   0.86660   0.00000  Uiso   1.00
C983   C     0.14689   0.74844   0.60944   0.00000  Uiso   1.00
N984   N     0.13837   0.71242   0.62401   0.00000  Uiso   1.00
C985   C     0.04168   0.77535   0.68744   0.00000  Uiso   1.00
N986   N     0.05796   0.75275   0.66111   0.00000  Uiso   1.00
C987   C     0.29197   0.89625   0.80826   0.00000  Uiso   1.00
N988   N     0.27625   0.92039   0.83380   0.00000  Uiso   1.00
C989   C     0.28840   0.77411   0.68924   0.00000  Uiso   1.00
N990   N     0.27027   0.75048   0.66451   0.00000  Uiso   1.00
C991   C     0.04444   0.90003   0.80370   0.00000  Uiso   1.00
N992   N     0.06220   0.92690   0.82564   0.00000  Uiso   1.00
C993   C     0.42080   0.83336   0.74940   0.00000  Uiso   1.00
C994   C     0.57918   0.83354   0.75027   0.00000  Uiso   1.00
C995   C     0.50098   0.83314   0.66468   0.00000  Uiso   1.00
C996   C     0.50008   0.83341   0.83483   0.00000  Uiso   1.00
C997   C     0.47081   0.69092   0.72706   0.00000  Uiso   1.00
C998   C     0.52873   0.97577   0.77354   0.00000  Uiso   1.00
C999   C     0.52888   0.69200   0.77345   0.00000  Uiso   1.00
C1000  C     0.47098   0.97468   0.72673   0.00000  Uiso   1.00
C1001  C     0.35404   0.80385   0.71993   0.00000  Uiso   1.00
C1002  C     0.64592   0.86578   0.77701   0.00000  Uiso   1.00
C1003  C     0.64448   0.80385   0.72030   0.00000  Uiso   1.00
C1004  C     0.35538   0.86635   0.77605   0.00000  Uiso   1.00
C1005  C     0.51634   0.87426   0.54701   0.00000  Uiso   1.00
C1006  C     0.46450   0.83451   0.95236   0.00000  Uiso   1.00
C1007  C     0.53885   0.83432   0.95204   0.00000  Uiso   1.00
C1008  C     0.49050   0.79477   0.54447   0.00000  Uiso   1.00
C1009  C     0.51655   0.87375   0.59302   0.00000  Uiso   1.00
C1010  C     0.46357   0.83281   0.90640   0.00000  Uiso   1.00
C1011  C     0.53839   0.83168   0.90609   0.00000  Uiso   1.00
C1012  C     0.49117   0.79285   0.59036   0.00000  Uiso   1.00
C1013  C     0.50296   0.83309   0.61571   0.00000  Uiso   1.00
C1014  C     0.50068   0.83334   0.88295   0.00000  Uiso   1.00
C1015  C     0.50268   0.83528   0.52300   0.00000  Uiso   1.00
C1016  C     0.50202   0.83614   0.97501   0.00000  Uiso   1.00
C1017  C     0.62382   0.83414   0.74950   0.00000  Uiso   1.00
C1018  C     0.37612   0.83406   0.74876   0.00000  Uiso   1.00
Cu1019 Cu    0.50000   0.88022   0.75000   0.00000  Uiso   1.00
Cu1020 Cu    0.50000   0.78645   0.75000   0.00000  Uiso   1.00
H1021  H     0.44728   0.70914   0.70899   0.00000  Uiso   1.00
H1022  H     0.55150   0.95759   0.79255   0.00000  Uiso   1.00
H1023  H     0.55198   0.71105   0.79236   0.00000  Uiso   1.00
H1024  H     0.44778   0.95563   0.70796   0.00000  Uiso   1.00
H1025  H     0.52659   0.90522   0.52971   0.00000  Uiso   1.00
H1026  H     0.43609   0.83370   0.97066   0.00000  Uiso   1.00
H1027  H     0.56773   0.83295   0.97008   0.00000  Uiso   1.00
H1028  H     0.48099   0.76427   0.52514   0.00000  Uiso   1.00
N1029  N     0.50000   0.95069   0.75000   0.00000  Uiso   1.00
N1030  N     0.50000   0.71598   0.75000   0.00000  Uiso   1.00
O1031  O     0.43988   0.87291   0.74999   0.00000  Uiso   1.00
O1032  O     0.56012   0.79375   0.75001   0.00000  Uiso   1.00
O1033  O     0.56012   0.87291   0.75001   0.00000  Uiso   1.00
O1034  O     0.43988   0.79375   0.75000   0.00000  Uiso   1.00
O1035  O     0.50000   0.87293   0.68573   0.00000  Uiso   1.00
O1036  O     0.50000   0.79374   0.81427   0.00000  Uiso   1.00
O1037  O     0.50000   0.87293   0.81427   0.00000  Uiso   1.00
O1038  O     0.50000   0.79374   0.68573   0.00000  Uiso   1.00
C1039  C     0.53225   0.91521   0.61545   0.00000  Uiso   1.00
N1040  N     0.54484   0.94844   0.63331   0.00000  Uiso   1.00
C1041  C     0.42444   0.82620   0.88442   0.00000  Uiso   1.00
N1042  N     0.39297   0.82012   0.86724   0.00000  Uiso   1.00
C1043  C     0.57646   0.82227   0.88393   0.00000  Uiso   1.00
N1044  N     0.60700   0.81379   0.86660   0.00000  Uiso   1.00
C1045  C     0.48022   0.74844   0.60944   0.00000  Uiso   1.00
N1046  N     0.47170   0.71242   0.62401   0.00000  Uiso   1.00
C1047  C     0.37502   0.77535   0.68744   0.00000  Uiso   1.00
N1048  N     0.39129   0.75275   0.66111   0.00000  Uiso   1.00
C1049  C     0.62531   0.89625   0.80826   0.00000  Uiso   1.00
N1050  N     0.60959   0.92039   0.83380   0.00000  Uiso   1.00
C1051  C     0.62173   0.77411   0.68924   0.00000  Uiso   1.00
N1052  N     0.60360   0.75048   0.66451   0.00000  Uiso   1.00
C1053  C     0.37778   0.90003   0.80370   0.00000  Uiso   1.00
N1054  N     0.39553   0.92690   0.82564   0.00000  Uiso   1.00
C1055  C     0.75414   0.83336   0.74940   0.00000  Uiso   1.00
C1056  C     0.91252   0.83354   0.75027   0.00000  Uiso   1.00
C1057  C     0.83431   0.83314   0.66468   0.00000  Uiso   1.00
C1058  C     0.83342   0.83341   0.83483   0.00000  Uiso   1.00
C1059  C     0.80414   0.69092   0.72706   0.00000  Uiso   1.00
C1060  C     0.86207   0.97577   0.77354   0.00000  Uiso   1.00
C1061  C     0.86221   0.69200   0.77345   0.00000  Uiso   1.00
C1062  C     0.80431   0.97468   0.72673   0.00000  Uiso   1.00
C1063  C     0.68737   0.80385   0.71993   0.00000  Uiso   1.00
C1064  C     0.97925   0.86578   0.77701   0.00000  Uiso   1.00
C1065  C     0.97781   0.80385   0.72030   0.00000  Uiso   1.00
C1066  C     0.68871   0.86635   0.77605   0.00000  Uiso   1.00
C1067  C     0.84967   0.87426   0.54701   0.00000  Uiso   1.00
C1068  C     0.79783   0.83451   0.95236   0.00000  Uiso   1.00
C1069  C     0.87218   0.83432   0.95204   0.00000  Uiso   1.00
C1070  C     0.82384   0.79477   0.54447   0.00000  Uiso   1.00
C1071  C     0.84988   0.87375   0.59302   0.00000  Uiso   1.00
C1072  C     0.79690   0.83281   0.90640   0.00000  Uiso   1.00
C1073  C     0.87173   0.83168   0.90609   0.00000  Uiso   1.00
C1074  C     0.82451   0.79285   0.59036   0.00000  Uiso   1.00
C1075  C     0.83629   0.83309   0.61571   0.00000  Uiso   1.00
C1076  C     0.83401   0.83334   0.88295   0.00000  Uiso   1.00
C1077  C     0.83601   0.83528   0.52300   0.00000  Uiso   1.00
C1078  C     0.83535   0.83614   0.97501   0.00000  Uiso   1.00
C1079  C     0.95715   0.83414   0.74950   0.00000  Uiso   1.00
C1080  C     0.70945   0.83406   0.74876   0.00000  Uiso   1.00
Cu1081 Cu    0.83333   0.88022   0.75000   0.00000  Uiso   1.00
Cu1082 Cu    0.83333   0.78645   0.75000   0.00000  Uiso   1.00
H1083  H     0.78061   0.70914   0.70899   0.00000  Uiso   1.00
H1084  H     0.88483   0.95759   0.79255   0.00000  Uiso   1.00
H1085  H     0.88531   0.71105   0.79236   0.00000  Uiso   1.00
H1086  H     0.78111   0.95563   0.70796   0.00000  Uiso   1.00
H1087  H     0.85992   0.90522   0.52971   0.00000  Uiso   1.00
H1088  H     0.76942   0.83370   0.97066   0.00000  Uiso   1.00
H1089  H     0.90106   0.83295   0.97008   0.00000  Uiso   1.00
H1090  H     0.81432   0.76427   0.52514   0.00000  Uiso   1.00
N1091  N     0.83333   0.95069   0.75000   0.00000  Uiso   1.00
N1092  N     0.83333   0.71598   0.75000   0.00000  Uiso   1.00
O1093  O     0.77321   0.87291   0.74999   0.00000  Uiso   1.00
O1094  O     0.89345   0.79375   0.75001   0.00000  Uiso   1.00
O1095  O     0.89345   0.87291   0.75001   0.00000  Uiso   1.00
O1096  O     0.77321   0.79375   0.75000   0.00000  Uiso   1.00
O1097  O     0.83333   0.87293   0.68573   0.00000  Uiso   1.00
O1098  O     0.83334   0.79374   0.81427   0.00000  Uiso   1.00
O1099  O     0.83334   0.87293   0.81427   0.00000  Uiso   1.00
O1100  O     0.83333   0.79374   0.68573   0.00000  Uiso   1.00
C1101  C     0.86559   0.91521   0.61545   0.00000  Uiso   1.00
N1102  N     0.87818   0.94844   0.63331   0.00000  Uiso   1.00
C1103  C     0.75777   0.82620   0.88442   0.00000  Uiso   1.00
N1104  N     0.72630   0.82012   0.86724   0.00000  Uiso   1.00
C1105  C     0.90979   0.82227   0.88393   0.00000  Uiso   1.00
N1106  N     0.94033   0.81379   0.86660   0.00000  Uiso   1.00
C1107  C     0.81356   0.74844   0.60944   0.00000  Uiso   1.00
N1108  N     0.80503   0.71242   0.62401   0.00000  Uiso   1.00
C1109  C     0.70835   0.77535   0.68744   0.00000  Uiso   1.00
N1110  N     0.72463   0.75275   0.66111   0.00000  Uiso   1.00
C1111  C     0.95864   0.89625   0.80826   0.00000  Uiso   1.00
N1112  N     0.94292   0.92039   0.83380   0.00000  Uiso   1.00
C1113  C     0.95506   0.77411   0.68924   0.00000  Uiso   1.00
N1114  N     0.93694   0.75048   0.66451   0.00000  Uiso   1.00
C1115  C     0.71111   0.90003   0.80370   0.00000  Uiso   1.00
N1116  N     0.72886   0.92690   0.82564   0.00000  Uiso   1.00
loop_
_geom_bond_atom_site_label_1
_geom_bond_atom_site_label_2
_geom_bond_distance
_geom_bond_site_symmetry_2
_ccdc_geom_bond_type
C1     C26     1.457   .     S
C1     O42     1.295   .     A
C1     O39     1.285   .     A
C2     C25     1.456   .     S
C2     O41     1.288   .     A
C2     O40     1.291   .     A
C3     O46     1.300   .     A
C3     O43     1.297   .     A
C3     C21     1.486   .     S
C4     C22     1.458   .     S
C4     O45     1.295   .     A
C4     O44     1.287   .     A
C5     H29     1.078   .     S
C5     N38     1.366   .     A
C5     C380    1.416   1_545 S
C6     N37     1.365   .     A
C6     H30     1.075   .     S
C6     C193    1.415   .     S
C7     N38     1.366   .     A
C7     H31     1.082   .     S
C7     C378    1.415   1_545 S
C8     N37     1.366   .     A
C8     H32     1.082   .     S
C8     C191    1.416   .     S
C9     C55     1.451   .     S
C9     C26     1.410   .     A
C9     C135    1.399   1_455 S
C10    C25     1.411   .     A
C10    C57     1.452   .     S
C10    C74     1.396   .     S
C11    C59     1.455   .     S
C11    C25     1.410   .     A
C11    C71     1.399   .     S
C12    C61     1.456   .     S
C12    C26     1.413   .     A
C12    C134    1.396   1_455 S
C13    H33     1.085   .     S
C13    C17     1.394   .     A
C13    C23     1.391   .     A
C14    H34     1.085   .     S
C14    C24     1.396   .     A
C14    C18     1.393   .     A
C15    C19     1.393   .     A
C15    C24     1.396   .     A
C15    H35     1.085   .     S
C16    C23     1.391   .     A
C16    C20     1.392   .     A
C16    H36     1.086   .     S
C17    C21     1.426   .     A
C17    C47     1.446   .     S
C18    C22     1.410   .     A
C18    C49     1.443   .     S
C19    C22     1.410   .     A
C19    C51     1.443   .     S
C20    C21     1.423   .     A
C20    C53     1.443   .     S
C23    C582    1.455   1_554 S
C24    C581    1.455   .     S
Cu27   O41     1.973   .     S
Cu27   O45     1.961   .     S
Cu27   N37     2.012   .     S
Cu27   O39     1.970   .     S
Cu27   Cu28    2.677   .     S
Cu27   O43     1.956   .     S
Cu28   O46     1.961   .     S
Cu28   O42     1.973   .     S
Cu28   O40     1.970   .     S
Cu28   N38     2.012   .     S
Cu28   O44     1.956   .     S
C47    N48     1.158   .     T
C49    N50     1.157   .     T
C51    N52     1.157   .     T
C53    N54     1.157   .     T
C55    N56     1.156   .     T
C57    N58     1.157   .     T
C59    N60     1.158   .     T
C61    N62     1.158   .     T
C63    C88     1.457   .     S
C63    O104    1.295   .     A
C63    O101    1.285   .     A
C64    C87     1.456   .     S
C64    O103    1.288   .     A
C64    O102    1.291   .     A
C65    O108    1.300   .     A
C65    O105    1.297   .     A
C65    C83     1.486   .     S
C66    C84     1.458   .     S
C66    O107    1.295   .     A
C66    O106    1.287   .     A
C67    H91     1.078   .     S
C67    N100    1.366   .     A
C67    C442    1.416   1_545 S
C68    N99     1.365   .     A
C68    H92     1.075   .     S
C68    C255    1.415   .     S
C69    N100    1.366   .     A
C69    H93     1.082   .     S
C69    C440    1.415   1_545 S
C70    N99     1.366   .     A
C70    H94     1.082   .     S
C70    C253    1.416   .     S
C71    C117    1.451   .     S
C71    C88     1.410   .     A
C72    C87     1.411   .     A
C72    C119    1.452   .     S
C72    C136    1.396   .     S
C73    C121    1.455   .     S
C73    C87     1.410   .     A
C73    C133    1.399   .     S
C74    C123    1.456   .     S
C74    C88     1.413   .     A
C75    H95     1.085   .     S
C75    C79     1.394   .     A
C75    C85     1.391   .     A
C76    H96     1.085   .     S
C76    C86     1.396   .     A
C76    C80     1.393   .     A
C77    C81     1.393   .     A
C77    C86     1.396   .     A
C77    H97     1.085   .     S
C78    C85     1.391   .     A
C78    C82     1.392   .     A
C78    H98     1.086   .     S
C79    C83     1.426   .     A
C79    C109    1.446   .     S
C80    C84     1.410   .     A
C80    C111    1.443   .     S
C81    C84     1.410   .     A
C81    C113    1.443   .     S
C82    C83     1.423   .     A
C82    C115    1.443   .     S
C85    C644    1.455   1_554 S
C86    C643    1.455   .     S
Cu89   O103    1.973   .     S
Cu89   O107    1.961   .     S
Cu89   N99     2.012   .     S
Cu89   O101    1.970   .     S
Cu89   Cu90    2.677   .     S
Cu89   O105    1.956   .     S
Cu90   O108    1.961   .     S
Cu90   O104    1.973   .     S
Cu90   O102    1.970   .     S
Cu90   N100    2.012   .     S
Cu90   O106    1.956   .     S
C109   N110    1.158   .     T
C111   N112    1.157   .     T
C113   N114    1.157   .     T
C115   N116    1.157   .     T
C117   N118    1.156   .     T
C119   N120    1.157   .     T
C121   N122    1.158   .     T
C123   N124    1.158   .     T
C125   C150    1.457   .     S
C125   O166    1.295   .     A
C125   O163    1.285   .     A
C126   C149    1.456   .     S
C126   O165    1.288   .     A
C126   O164    1.291   .     A
C127   O170    1.300   .     A
C127   O167    1.297   .     A
C127   C145    1.486   .     S
C128   C146    1.458   .     S
C128   O169    1.295   .     A
C128   O168    1.287   .     A
C129   H153    1.078   .     S
C129   N162    1.366   .     A
C129   C504    1.416   1_545 S
C130   N161    1.365   .     A
C130   H154    1.075   .     S
C130   C317    1.415   .     S
C131   N162    1.366   .     A
C131   H155    1.082   .     S
C131   C502    1.415   1_545 S
C132   N161    1.366   .     A
C132   H156    1.082   .     S
C132   C315    1.416   .     S
C133   C179    1.451   .     S
C133   C150    1.410   .     A
C134   C149    1.411   .     A
C134   C181    1.452   .     S
C134   C12     1.396   1_655 S
C135   C183    1.455   .     S
C135   C149    1.410   .     A
C135   C9      1.399   1_655 S
C136   C185    1.456   .     S
C136   C150    1.413   .     A
C137   H157    1.085   .     S
C137   C141    1.394   .     A
C137   C147    1.391   .     A
C138   H158    1.085   .     S
C138   C148    1.396   .     A
C138   C142    1.393   .     A
C139   C143    1.393   .     A
C139   C148    1.396   .     A
C139   H159    1.085   .     S
C140   C147    1.391   .     A
C140   C144    1.392   .     A
C140   H160    1.086   .     S
C141   C145    1.426   .     A
C141   C171    1.446   .     S
C142   C146    1.410   .     A
C142   C173    1.443   .     S
C143   C146    1.410   .     A
C143   C175    1.443   .     S
C144   C145    1.423   .     A
C144   C177    1.443   .     S
C147   C706    1.455   1_554 S
C148   C705    1.455   .     S
Cu151  O165    1.973   .     S
Cu151  O169    1.961   .     S
Cu151  N161    2.012   .     S
Cu151  O163    1.970   .     S
Cu151  Cu152   2.677   .     S
Cu151  O167    1.956   .     S
Cu152  O170    1.961   .     S
Cu152  O166    1.973   .     S
Cu152  O164    1.970   .     S
Cu152  N162    2.012   .     S
Cu152  O168    1.956   .     S
C171   N172    1.158   .     T
C173   N174    1.157   .     T
C175   N176    1.157   .     T
C177   N178    1.157   .     T
C179   N180    1.156   .     T
C181   N182    1.157   .     T
C183   N184    1.158   .     T
C185   N186    1.158   .     T
C187   C212    1.457   .     S
C187   O228    1.295   .     A
C187   O225    1.285   .     A
C188   C211    1.456   .     S
C188   O227    1.288   .     A
C188   O226    1.291   .     A
C189   O232    1.300   .     A
C189   O229    1.297   .     A
C189   C207    1.486   .     S
C190   C208    1.458   .     S
C190   O231    1.295   .     A
C190   O230    1.287   .     A
C191   H215    1.078   .     S
C191   N224    1.366   .     A
C192   N223    1.365   .     A
C192   H216    1.075   .     S
C192   C379    1.415   .     S
C193   N224    1.366   .     A
C193   H217    1.082   .     S
C194   N223    1.366   .     A
C194   H218    1.082   .     S
C194   C377    1.416   .     S
C195   C241    1.451   .     S
C195   C212    1.410   .     A
C195   C321    1.399   1_455 S
C196   C211    1.411   .     A
C196   C243    1.452   .     S
C196   C260    1.396   .     S
C197   C245    1.455   .     S
C197   C211    1.410   .     A
C197   C257    1.399   .     S
C198   C247    1.456   .     S
C198   C212    1.413   .     A
C198   C320    1.396   1_455 S
C199   H219    1.085   .     S
C199   C203    1.394   .     A
C199   C209    1.391   .     A
C200   H220    1.085   .     S
C200   C210    1.396   .     A
C200   C204    1.393   .     A
C201   C205    1.393   .     A
C201   C210    1.396   .     A
C201   H221    1.085   .     S
C202   C209    1.391   .     A
C202   C206    1.392   .     A
C202   H222    1.086   .     S
C203   C207    1.426   .     A
C203   C233    1.446   .     S
C204   C208    1.410   .     A
C204   C235    1.443   .     S
C205   C208    1.410   .     A
C205   C237    1.443   .     S
C206   C207    1.423   .     A
C206   C239    1.443   .     S
C209   C768    1.455   1_554 S
C210   C767    1.455   .     S
Cu213  O227    1.973   .     S
Cu213  O231    1.961   .     S
Cu213  N223    2.012   .     S
Cu213  O225    1.970   .     S
Cu213  Cu214   2.677   .     S
Cu213  O229    1.956   .     S
Cu214  O232    1.961   .     S
Cu214  O228    1.973   .     S
Cu214  O226    1.970   .     S
Cu214  N224    2.012   .     S
Cu214  O230    1.956   .     S
C233   N234    1.158   .     T
C235   N236    1.157   .     T
C237   N238    1.157   .     T
C239   N240    1.157   .     T
C241   N242    1.156   .     T
C243   N244    1.157   .     T
C245   N246    1.158   .     T
C247   N248    1.158   .     T
C249   C274    1.457   .     S
C249   O290    1.295   .     A
C249   O287    1.285   .     A
C250   C273    1.456   .     S
C250   O289    1.288   .     A
C250   O288    1.291   .     A
C251   O294    1.300   .     A
C251   O291    1.297   .     A
C251   C269    1.486   .     S
C252   C270    1.458   .     S
C252   O293    1.295   .     A
C252   O292    1.287   .     A
C253   H277    1.078   .     S
C253   N286    1.366   .     A
C254   N285    1.365   .     A
C254   H278    1.075   .     S
C254   C441    1.415   .     S
C255   N286    1.366   .     A
C255   H279    1.082   .     S
C256   N285    1.366   .     A
C256   H280    1.082   .     S
C256   C439    1.416   .     S
C257   C303    1.451   .     S
C257   C274    1.410   .     A
C258   C273    1.411   .     A
C258   C305    1.452   .     S
C258   C322    1.396   .     S
C259   C307    1.455   .     S
C259   C273    1.410   .     A
C259   C319    1.399   .     S
C260   C309    1.456   .     S
C260   C274    1.413   .     A
C261   H281    1.085   .     S
C261   C265    1.394   .     A
C261   C271    1.391   .     A
C262   H282    1.085   .     S
C262   C272    1.396   .     A
C262   C266    1.393   .     A
C263   C267    1.393   .     A
C263   C272    1.396   .     A
C263   H283    1.085   .     S
C264   C271    1.391   .     A
C264   C268    1.392   .     A
C264   H284    1.086   .     S
C265   C269    1.426   .     A
C265   C295    1.446   .     S
C266   C270    1.410   .     A
C266   C297    1.443   .     S
C267   C270    1.410   .     A
C267   C299    1.443   .     S
C268   C269    1.423   .     A
C268   C301    1.443   .     S
C271   C830    1.455   1_554 S
C272   C829    1.455   .     S
Cu275  O289    1.973   .     S
Cu275  O293    1.961   .     S
Cu275  N285    2.012   .     S
Cu275  O287    1.970   .     S
Cu275  Cu276   2.677   .     S
Cu275  O291    1.956   .     S
Cu276  O294    1.961   .     S
Cu276  O290    1.973   .     S
Cu276  O288    1.970   .     S
Cu276  N286    2.012   .     S
Cu276  O292    1.956   .     S
C295   N296    1.158   .     T
C297   N298    1.157   .     T
C299   N300    1.157   .     T
C301   N302    1.157   .     T
C303   N304    1.156   .     T
C305   N306    1.157   .     T
C307   N308    1.158   .     T
C309   N310    1.158   .     T
C311   C336    1.457   .     S
C311   O352    1.295   .     A
C311   O349    1.285   .     A
C312   C335    1.456   .     S
C312   O351    1.288   .     A
C312   O350    1.291   .     A
C313   O356    1.300   .     A
C313   O353    1.297   .     A
C313   C331    1.486   .     S
C314   C332    1.458   .     S
C314   O355    1.295   .     A
C314   O354    1.287   .     A
C315   H339    1.078   .     S
C315   N348    1.366   .     A
C316   N347    1.365   .     A
C316   H340    1.075   .     S
C316   C503    1.415   .     S
C317   N348    1.366   .     A
C317   H341    1.082   .     S
C318   N347    1.366   .     A
C318   H342    1.082   .     S
C318   C501    1.416   .     S
C319   C365    1.451   .     S
C319   C336    1.410   .     A
C320   C335    1.411   .     A
C320   C367    1.452   .     S
C320   C198    1.396   1_655 S
C321   C369    1.455   .     S
C321   C335    1.410   .     A
C321   C195    1.399   1_655 S
C322   C371    1.456   .     S
C322   C336    1.413   .     A
C323   H343    1.085   .     S
C323   C327    1.394   .     A
C323   C333    1.391   .     A
C324   H344    1.085   .     S
C324   C334    1.396   .     A
C324   C328    1.393   .     A
C325   C329    1.393   .     A
C325   C334    1.396   .     A
C325   H345    1.085   .     S
C326   C333    1.391   .     A
C326   C330    1.392   .     A
C326   H346    1.086   .     S
C327   C331    1.426   .     A
C327   C357    1.446   .     S
C328   C332    1.410   .     A
C328   C359    1.443   .     S
C329   C332    1.410   .     A
C329   C361    1.443   .     S
C330   C331    1.423   .     A
C330   C363    1.443   .     S
C333   C892    1.455   1_554 S
C334   C891    1.455   .     S
Cu337  O351    1.973   .     S
Cu337  O355    1.961   .     S
Cu337  N347    2.012   .     S
Cu337  O349    1.970   .     S
Cu337  Cu338   2.677   .     S
Cu337  O353    1.956   .     S
Cu338  O356    1.961   .     S
Cu338  O352    1.973   .     S
Cu338  O350    1.970   .     S
Cu338  N348    2.012   .     S
Cu338  O354    1.956   .     S
C357   N358    1.158   .     T
C359   N360    1.157   .     T
C361   N362    1.157   .     T
C363   N364    1.157   .     T
C365   N366    1.156   .     T
C367   N368    1.157   .     T
C369   N370    1.158   .     T
C371   N372    1.158   .     T
C373   C398    1.457   .     S
C373   O414    1.295   .     A
C373   O411    1.285   .     A
C374   C397    1.456   .     S
C374   O413    1.288   .     A
C374   O412    1.291   .     A
C375   O418    1.300   .     A
C375   O415    1.297   .     A
C375   C393    1.486   .     S
C376   C394    1.458   .     S
C376   O417    1.295   .     A
C376   O416    1.287   .     A
C377   H401    1.078   .     S
C377   N410    1.366   .     A
C378   N409    1.365   .     A
C378   H402    1.075   .     S
C378   C7      1.415   1_565 S
C379   N410    1.366   .     A
C379   H403    1.082   .     S
C380   N409    1.366   .     A
C380   H404    1.082   .     S
C380   C5      1.416   1_565 S
C381   C427    1.451   .     S
C381   C398    1.410   .     A
C381   C507    1.399   1_455 S
C382   C397    1.411   .     A
C382   C429    1.452   .     S
C382   C446    1.396   .     S
C383   C431    1.455   .     S
C383   C397    1.410   .     A
C383   C443    1.399   .     S
C384   C433    1.456   .     S
C384   C398    1.413   .     A
C384   C506    1.396   1_455 S
C385   H405    1.085   .     S
C385   C389    1.394   .     A
C385   C395    1.391   .     A
C386   H406    1.085   .     S
C386   C396    1.396   .     A
C386   C390    1.393   .     A
C387   C391    1.393   .     A
C387   C396    1.396   .     A
C387   H407    1.085   .     S
C388   C395    1.391   .     A
C388   C392    1.392   .     A
C388   H408    1.086   .     S
C389   C393    1.426   .     A
C389   C419    1.446   .     S
C390   C394    1.410   .     A
C390   C421    1.443   .     S
C391   C394    1.410   .     A
C391   C423    1.443   .     S
C392   C393    1.423   .     A
C392   C425    1.443   .     S
C395   C954    1.455   1_554 S
C396   C953    1.455   .     S
Cu399  O413    1.973   .     S
Cu399  O417    1.961   .     S
Cu399  N409    2.012   .     S
Cu399  O411    1.970   .     S
Cu399  Cu400   2.677   .     S
Cu399  O415    1.956   .     S
Cu400  O418    1.961   .     S
Cu400  O414    1.973   .     S
Cu400  O412    1.970   .     S
Cu400  N410    2.012   .     S
Cu400  O416    1.956   .     S
C419   N420    1.158   .     T
C421   N422    1.157   .     T
C423   N424    1.157   .     T
C425   N426    1.157   .     T
C427   N428    1.156   .     T
C429   N430    1.157   .     T
C431   N432    1.158   .     T
C433   N434    1.158   .     T
C435   C460    1.457   .     S
C435   O476    1.295   .     A
C435   O473    1.285   .     A
C436   C459    1.456   .     S
C436   O475    1.288   .     A
C436   O474    1.291   .     A
C437   O480    1.300   .     A
C437   O477    1.297   .     A
C437   C455    1.486   .     S
C438   C456    1.458   .     S
C438   O479    1.295   .     A
C438   O478    1.287   .     A
C439   H463    1.078   .     S
C439   N472    1.366   .     A
C440   N471    1.365   .     A
C440   H464    1.075   .     S
C440   C69     1.415   1_565 S
C441   N472    1.366   .     A
C441   H465    1.082   .     S
C442   N471    1.366   .     A
C442   H466    1.082   .     S
C442   C67     1.416   1_565 S
C443   C489    1.451   .     S
C443   C460    1.410   .     A
C444   C459    1.411   .     A
C444   C491    1.452   .     S
C444   C508    1.396   .     S
C445   C493    1.455   .     S
C445   C459    1.410   .     A
C445   C505    1.399   .     S
C446   C495    1.456   .     S
C446   C460    1.413   .     A
C447   H467    1.085   .     S
C447   C451    1.394   .     A
C447   C457    1.391   .     A
C448   H468    1.085   .     S
C448   C458    1.396   .     A
C448   C452    1.393   .     A
C449   C453    1.393   .     A
C449   C458    1.396   .     A
C449   H469    1.085   .     S
C450   C457    1.391   .     A
C450   C454    1.392   .     A
C450   H470    1.086   .     S
C451   C455    1.426   .     A
C451   C481    1.446   .     S
C452   C456    1.410   .     A
C452   C483    1.443   .     S
C453   C456    1.410   .     A
C453   C485    1.443   .     S
C454   C455    1.423   .     A
C454   C487    1.443   .     S
C457   C1016   1.455   1_554 S
C458   C1015   1.455   .     S
Cu461  O475    1.973   .     S
Cu461  O479    1.961   .     S
Cu461  N471    2.012   .     S
Cu461  O473    1.970   .     S
Cu461  Cu462   2.677   .     S
Cu461  O477    1.956   .     S
Cu462  O480    1.961   .     S
Cu462  O476    1.973   .     S
Cu462  O474    1.970   .     S
Cu462  N472    2.012   .     S
Cu462  O478    1.956   .     S
C481   N482    1.158   .     T
C483   N484    1.157   .     T
C485   N486    1.157   .     T
C487   N488    1.157   .     T
C489   N490    1.156   .     T
C491   N492    1.157   .     T
C493   N494    1.158   .     T
C495   N496    1.158   .     T
C497   C522    1.457   .     S
C497   O538    1.295   .     A
C497   O535    1.285   .     A
C498   C521    1.456   .     S
C498   O537    1.288   .     A
C498   O536    1.291   .     A
C499   O542    1.300   .     A
C499   O539    1.297   .     A
C499   C517    1.486   .     S
C500   C518    1.458   .     S
C500   O541    1.295   .     A
C500   O540    1.287   .     A
C501   H525    1.078   .     S
C501   N534    1.366   .     A
C502   N533    1.365   .     A
C502   H526    1.075   .     S
C502   C131    1.415   1_565 S
C503   N534    1.366   .     A
C503   H527    1.082   .     S
C504   N533    1.366   .     A
C504   H528    1.082   .     S
C504   C129    1.416   1_565 S
C505   C551    1.451   .     S
C505   C522    1.410   .     A
C506   C521    1.411   .     A
C506   C553    1.452   .     S
C506   C384    1.396   1_655 S
C507   C555    1.455   .     S
C507   C521    1.410   .     A
C507   C381    1.399   1_655 S
C508   C557    1.456   .     S
C508   C522    1.413   .     A
C509   H529    1.085   .     S
C509   C513    1.394   .     A
C509   C519    1.391   .     A
C510   H530    1.085   .     S
C510   C520    1.396   .     A
C510   C514    1.393   .     A
C511   C515    1.393   .     A
C511   C520    1.396   .     A
C511   H531    1.085   .     S
C512   C519    1.391   .     A
C512   C516    1.392   .     A
C512   H532    1.086   .     S
C513   C517    1.426   .     A
C513   C543    1.446   .     S
C514   C518    1.410   .     A
C514   C545    1.443   .     S
C515   C518    1.410   .     A
C515   C547    1.443   .     S
C516   C517    1.423   .     A
C516   C549    1.443   .     S
C519   C1078   1.455   1_554 S
C520   C1077   1.455   .     S
Cu523  O537    1.973   .     S
Cu523  O541    1.961   .     S
Cu523  N533    2.012   .     S
Cu523  O535    1.970   .     S
Cu523  Cu524   2.677   .     S
Cu523  O539    1.956   .     S
Cu524  O542    1.961   .     S
Cu524  O538    1.973   .     S
Cu524  O536    1.970   .     S
Cu524  N534    2.012   .     S
Cu524  O540    1.956   .     S
C543   N544    1.158   .     T
C545   N546    1.157   .     T
C547   N548    1.157   .     T
C549   N550    1.157   .     T
C551   N552    1.156   .     T
C553   N554    1.157   .     T
C555   N556    1.158   .     T
C557   N558    1.158   .     T
C559   C584    1.457   .     S
C559   O600    1.295   .     A
C559   O597    1.285   .     A
C560   C583    1.456   .     S
C560   O599    1.288   .     A
C560   O598    1.291   .     A
C561   O604    1.300   .     A
C561   O601    1.297   .     A
C561   C579    1.486   .     S
C562   C580    1.458   .     S
C562   O603    1.295   .     A
C562   O602    1.287   .     A
C563   H587    1.078   .     S
C563   N596    1.366   .     A
C563   C938    1.416   1_545 S
C564   N595    1.365   .     A
C564   H588    1.075   .     S
C564   C751    1.415   .     S
C565   N596    1.366   .     A
C565   H589    1.082   .     S
C565   C936    1.415   1_545 S
C566   N595    1.366   .     A
C566   H590    1.082   .     S
C566   C749    1.416   .     S
C567   C613    1.451   .     S
C567   C584    1.410   .     A
C567   C693    1.399   1_455 S
C568   C583    1.411   .     A
C568   C615    1.452   .     S
C568   C632    1.396   .     S
C569   C617    1.455   .     S
C569   C583    1.410   .     A
C569   C629    1.399   .     S
C570   C619    1.456   .     S
C570   C584    1.413   .     A
C570   C692    1.396   1_455 S
C571   H591    1.085   .     S
C571   C575    1.394   .     A
C571   C581    1.391   .     A
C572   H592    1.085   .     S
C572   C582    1.396   .     A
C572   C576    1.393   .     A
C573   C577    1.393   .     A
C573   C582    1.396   .     A
C573   H593    1.085   .     S
C574   C581    1.391   .     A
C574   C578    1.392   .     A
C574   H594    1.086   .     S
C575   C579    1.426   .     A
C575   C605    1.446   .     S
C576   C580    1.410   .     A
C576   C607    1.443   .     S
C577   C580    1.410   .     A
C577   C609    1.443   .     S
C578   C579    1.423   .     A
C578   C611    1.443   .     S
C582   C23     1.455   1_556 S
Cu585  O599    1.973   .     S
Cu585  O603    1.961   .     S
Cu585  N595    2.012   .     S
Cu585  O597    1.970   .     S
Cu585  Cu586   2.677   .     S
Cu585  O601    1.956   .     S
Cu586  O604    1.961   .     S
Cu586  O600    1.973   .     S
Cu586  O598    1.970   .     S
Cu586  N596    2.012   .     S
Cu586  O602    1.956   .     S
C605   N606    1.158   .     T
C607   N608    1.157   .     T
C609   N610    1.157   .     T
C611   N612    1.157   .     T
C613   N614    1.156   .     T
C615   N616    1.157   .     T
C617   N618    1.158   .     T
C619   N620    1.158   .     T
C621   C646    1.457   .     S
C621   O662    1.295   .     A
C621   O659    1.285   .     A
C622   C645    1.456   .     S
C622   O661    1.288   .     A
C622   O660    1.291   .     A
C623   O666    1.300   .     A
C623   O663    1.297   .     A
C623   C641    1.486   .     S
C624   C642    1.458   .     S
C624   O665    1.295   .     A
C624   O664    1.287   .     A
C625   H649    1.078   .     S
C625   N658    1.366   .     A
C625   C1000   1.416   1_545 S
C626   N657    1.365   .     A
C626   H650    1.075   .     S
C626   C813    1.415   .     S
C627   N658    1.366   .     A
C627   H651    1.082   .     S
C627   C998    1.415   1_545 S
C628   N657    1.366   .     A
C628   H652    1.082   .     S
C628   C811    1.416   .     S
C629   C675    1.451   .     S
C629   C646    1.410   .     A
C630   C645    1.411   .     A
C630   C677    1.452   .     S
C630   C694    1.396   .     S
C631   C679    1.455   .     S
C631   C645    1.410   .     A
C631   C691    1.399   .     S
C632   C681    1.456   .     S
C632   C646    1.413   .     A
C633   H653    1.085   .     S
C633   C637    1.394   .     A
C633   C643    1.391   .     A
C634   H654    1.085   .     S
C634   C644    1.396   .     A
C634   C638    1.393   .     A
C635   C639    1.393   .     A
C635   C644    1.396   .     A
C635   H655    1.085   .     S
C636   C643    1.391   .     A
C636   C640    1.392   .     A
C636   H656    1.086   .     S
C637   C641    1.426   .     A
C637   C667    1.446   .     S
C638   C642    1.410   .     A
C638   C669    1.443   .     S
C639   C642    1.410   .     A
C639   C671    1.443   .     S
C640   C641    1.423   .     A
C640   C673    1.443   .     S
C644   C85     1.455   1_556 S
Cu647  O661    1.973   .     S
Cu647  O665    1.961   .     S
Cu647  N657    2.012   .     S
Cu647  O659    1.970   .     S
Cu647  Cu648   2.677   .     S
Cu647  O663    1.956   .     S
Cu648  O666    1.961   .     S
Cu648  O662    1.973   .     S
Cu648  O660    1.970   .     S
Cu648  N658    2.012   .     S
Cu648  O664    1.956   .     S
C667   N668    1.158   .     T
C669   N670    1.157   .     T
C671   N672    1.157   .     T
C673   N674    1.157   .     T
C675   N676    1.156   .     T
C677   N678    1.157   .     T
C679   N680    1.158   .     T
C681   N682    1.158   .     T
C683   C708    1.457   .     S
C683   O724    1.295   .     A
C683   O721    1.285   .     A
C684   C707    1.456   .     S
C684   O723    1.288   .     A
C684   O722    1.291   .     A
C685   O728    1.300   .     A
C685   O725    1.297   .     A
C685   C703    1.486   .     S
C686   C704    1.458   .     S
C686   O727    1.295   .     A
C686   O726    1.287   .     A
C687   H711    1.078   .     S
C687   N720    1.366   .     A
C687   C1062   1.416   1_545 S
C688   N719    1.365   .     A
C688   H712    1.075   .     S
C688   C875    1.415   .     S
C689   N720    1.366   .     A
C689   H713    1.082   .     S
C689   C1060   1.415   1_545 S
C690   N719    1.366   .     A
C690   H714    1.082   .     S
C690   C873    1.416   .     S
C691   C737    1.451   .     S
C691   C708    1.410   .     A
C692   C707    1.411   .     A
C692   C739    1.452   .     S
C692   C570    1.396   1_655 S
C693   C741    1.455   .     S
C693   C707    1.410   .     A
C693   C567    1.399   1_655 S
C694   C743    1.456   .     S
C694   C708    1.413   .     A
C695   H715    1.085   .     S
C695   C699    1.394   .     A
C695   C705    1.391   .     A
C696   H716    1.085   .     S
C696   C706    1.396   .     A
C696   C700    1.393   .     A
C697   C701    1.393   .     A
C697   C706    1.396   .     A
C697   H717    1.085   .     S
C698   C705    1.391   .     A
C698   C702    1.392   .     A
C698   H718    1.086   .     S
C699   C703    1.426   .     A
C699   C729    1.446   .     S
C700   C704    1.410   .     A
C700   C731    1.443   .     S
C701   C704    1.410   .     A
C701   C733    1.443   .     S
C702   C703    1.423   .     A
C702   C735    1.443   .     S
C706   C147    1.455   1_556 S
Cu709  O723    1.973   .     S
Cu709  O727    1.961   .     S
Cu709  N719    2.012   .     S
Cu709  O721    1.970   .     S
Cu709  Cu710   2.677   .     S
Cu709  O725    1.956   .     S
Cu710  O728    1.961   .     S
Cu710  O724    1.973   .     S
Cu710  O722    1.970   .     S
Cu710  N720    2.012   .     S
Cu710  O726    1.956   .     S
C729   N730    1.158   .     T
C731   N732    1.157   .     T
C733   N734    1.157   .     T
C735   N736    1.157   .     T
C737   N738    1.156   .     T
C739   N740    1.157   .     T
C741   N742    1.158   .     T
C743   N744    1.158   .     T
C745   C770    1.457   .     S
C745   O786    1.295   .     A
C745   O783    1.285   .     A
C746   C769    1.456   .     S
C746   O785    1.288   .     A
C746   O784    1.291   .     A
C747   O790    1.300   .     A
C747   O787    1.297   .     A
C747   C765    1.486   .     S
C748   C766    1.458   .     S
C748   O789    1.295   .     A
C748   O788    1.287   .     A
C749   H773    1.078   .     S
C749   N782    1.366   .     A
C750   N781    1.365   .     A
C750   H774    1.075   .     S
C750   C937    1.415   .     S
C751   N782    1.366   .     A
C751   H775    1.082   .     S
C752   N781    1.366   .     A
C752   H776    1.082   .     S
C752   C935    1.416   .     S
C753   C799    1.451   .     S
C753   C770    1.410   .     A
C753   C879    1.399   1_455 S
C754   C769    1.411   .     A
C754   C801    1.452   .     S
C754   C818    1.396   .     S
C755   C803    1.455   .     S
C755   C769    1.410   .     A
C755   C815    1.399   .     S
C756   C805    1.456   .     S
C756   C770    1.413   .     A
C756   C878    1.396   1_455 S
C757   H777    1.085   .     S
C757   C761    1.394   .     A
C757   C767    1.391   .     A
C758   H778    1.085   .     S
C758   C768    1.396   .     A
C758   C762    1.393   .     A
C759   C763    1.393   .     A
C759   C768    1.396   .     A
C759   H779    1.085   .     S
C760   C767    1.391   .     A
C760   C764    1.392   .     A
C760   H780    1.086   .     S
C761   C765    1.426   .     A
C761   C791    1.446   .     S
C762   C766    1.410   .     A
C762   C793    1.443   .     S
C763   C766    1.410   .     A
C763   C795    1.443   .     S
C764   C765    1.423   .     A
C764   C797    1.443   .     S
C768   C209    1.455   1_556 S
Cu771  O785    1.973   .     S
Cu771  O789    1.961   .     S
Cu771  N781    2.012   .     S
Cu771  O783    1.970   .     S
Cu771  Cu772   2.677   .     S
Cu771  O787    1.956   .     S
Cu772  O790    1.961   .     S
Cu772  O786    1.973   .     S
Cu772  O784    1.970   .     S
Cu772  N782    2.012   .     S
Cu772  O788    1.956   .     S
C791   N792    1.158   .     T
C793   N794    1.157   .     T
C795   N796    1.157   .     T
C797   N798    1.157   .     T
C799   N800    1.156   .     T
C801   N802    1.157   .     T
C803   N804    1.158   .     T
C805   N806    1.158   .     T
C807   C832    1.457   .     S
C807   O848    1.295   .     A
C807   O845    1.285   .     A
C808   C831    1.456   .     S
C808   O847    1.288   .     A
C808   O846    1.291   .     A
C809   O852    1.300   .     A
C809   O849    1.297   .     A
C809   C827    1.486   .     S
C810   C828    1.458   .     S
C810   O851    1.295   .     A
C810   O850    1.287   .     A
C811   H835    1.078   .     S
C811   N844    1.366   .     A
C812   N843    1.365   .     A
C812   H836    1.075   .     S
C812   C999    1.415   .     S
C813   N844    1.366   .     A
C813   H837    1.082   .     S
C814   N843    1.366   .     A
C814   H838    1.082   .     S
C814   C997    1.416   .     S
C815   C861    1.451   .     S
C815   C832    1.410   .     A
C816   C831    1.411   .     A
C816   C863    1.452   .     S
C816   C880    1.396   .     S
C817   C865    1.455   .     S
C817   C831    1.410   .     A
C817   C877    1.399   .     S
C818   C867    1.456   .     S
C818   C832    1.413   .     A
C819   H839    1.085   .     S
C819   C823    1.394   .     A
C819   C829    1.391   .     A
C820   H840    1.085   .     S
C820   C830    1.396   .     A
C820   C824    1.393   .     A
C821   C825    1.393   .     A
C821   C830    1.396   .     A
C821   H841    1.085   .     S
C822   C829    1.391   .     A
C822   C826    1.392   .     A
C822   H842    1.086   .     S
C823   C827    1.426   .     A
C823   C853    1.446   .     S
C824   C828    1.410   .     A
C824   C855    1.443   .     S
C825   C828    1.410   .     A
C825   C857    1.443   .     S
C826   C827    1.423   .     A
C826   C859    1.443   .     S
C830   C271    1.455   1_556 S
Cu833  O847    1.973   .     S
Cu833  O851    1.961   .     S
Cu833  N843    2.012   .     S
Cu833  O845    1.970   .     S
Cu833  Cu834   2.677   .     S
Cu833  O849    1.956   .     S
Cu834  O852    1.961   .     S
Cu834  O848    1.973   .     S
Cu834  O846    1.970   .     S
Cu834  N844    2.012   .     S
Cu834  O850    1.956   .     S
C853   N854    1.158   .     T
C855   N856    1.157   .     T
C857   N858    1.157   .     T
C859   N860    1.157   .     T
C861   N862    1.156   .     T
C863   N864    1.157   .     T
C865   N866    1.158   .     T
C867   N868    1.158   .     T
C869   C894    1.457   .     S
C869   O910    1.295   .     A
C869   O907    1.285   .     A
C870   C893    1.456   .     S
C870   O909    1.288   .     A
C870   O908    1.291   .     A
C871   O914    1.300   .     A
C871   O911    1.297   .     A
C871   C889    1.486   .     S
C872   C890    1.458   .     S
C872   O913    1.295   .     A
C872   O912    1.287   .     A
C873   H897    1.078   .     S
C873   N906    1.366   .     A
C874   N905    1.365   .     A
C874   H898    1.075   .     S
C874   C1061   1.415   .     S
C875   N906    1.366   .     A
C875   H899    1.082   .     S
C876   N905    1.366   .     A
C876   H900    1.082   .     S
C876   C1059   1.416   .     S
C877   C923    1.451   .     S
C877   C894    1.410   .     A
C878   C893    1.411   .     A
C878   C925    1.452   .     S
C878   C756    1.396   1_655 S
C879   C927    1.455   .     S
C879   C893    1.410   .     A
C879   C753    1.399   1_655 S
C880   C929    1.456   .     S
C880   C894    1.413   .     A
C881   H901    1.085   .     S
C881   C885    1.394   .     A
C881   C891    1.391   .     A
C882   H902    1.085   .     S
C882   C892    1.396   .     A
C882   C886    1.393   .     A
C883   C887    1.393   .     A
C883   C892    1.396   .     A
C883   H903    1.085   .     S
C884   C891    1.391   .     A
C884   C888    1.392   .     A
C884   H904    1.086   .     S
C885   C889    1.426   .     A
C885   C915    1.446   .     S
C886   C890    1.410   .     A
C886   C917    1.443   .     S
C887   C890    1.410   .     A
C887   C919    1.443   .     S
C888   C889    1.423   .     A
C888   C921    1.443   .     S
C892   C333    1.455   1_556 S
Cu895  O909    1.973   .     S
Cu895  O913    1.961   .     S
Cu895  N905    2.012   .     S
Cu895  O907    1.970   .     S
Cu895  Cu896   2.677   .     S
Cu895  O911    1.956   .     S
Cu896  O914    1.961   .     S
Cu896  O910    1.973   .     S
Cu896  O908    1.970   .     S
Cu896  N906    2.012   .     S
Cu896  O912    1.956   .     S
C915   N916    1.158   .     T
C917   N918    1.157   .     T
C919   N920    1.157   .     T
C921   N922    1.157   .     T
C923   N924    1.156   .     T
C925   N926    1.157   .     T
C927   N928    1.158   .     T
C929   N930    1.158   .     T
C931   C956    1.457   .     S
C931   O972    1.295   .     A
C931   O969    1.285   .     A
C932   C955    1.456   .     S
C932   O971    1.288   .     A
C932   O970    1.291   .     A
C933   O976    1.300   .     A
C933   O973    1.297   .     A
C933   C951    1.486   .     S
C934   C952    1.458   .     S
C934   O975    1.295   .     A
C934   O974    1.287   .     A
C935   H959    1.078   .     S
C935   N968    1.366   .     A
C936   N967    1.365   .     A
C936   H960    1.075   .     S
C936   C565    1.415   1_565 S
C937   N968    1.366   .     A
C937   H961    1.082   .     S
C938   N967    1.366   .     A
C938   H962    1.082   .     S
C938   C563    1.416   1_565 S
C939   C985    1.451   .     S
C939   C956    1.410   .     A
C939   C1065   1.399   1_455 S
C940   C955    1.411   .     A
C940   C987    1.452   .     S
C940   C1004   1.396   .     S
C941   C989    1.455   .     S
C941   C955    1.410   .     A
C941   C1001   1.399   .     S
C942   C991    1.456   .     S
C942   C956    1.413   .     A
C942   C1064   1.396   1_455 S
C943   H963    1.085   .     S
C943   C947    1.394   .     A
C943   C953    1.391   .     A
C944   H964    1.085   .     S
C944   C954    1.396   .     A
C944   C948    1.393   .     A
C945   C949    1.393   .     A
C945   C954    1.396   .     A
C945   H965    1.085   .     S
C946   C953    1.391   .     A
C946   C950    1.392   .     A
C946   H966    1.086   .     S
C947   C951    1.426   .     A
C947   C977    1.446   .     S
C948   C952    1.410   .     A
C948   C979    1.443   .     S
C949   C952    1.410   .     A
C949   C981    1.443   .     S
C950   C951    1.423   .     A
C950   C983    1.443   .     S
C954   C395    1.455   1_556 S
Cu957  O971    1.973   .     S
Cu957  O975    1.961   .     S
Cu957  N967    2.012   .     S
Cu957  O969    1.970   .     S
Cu957  Cu958   2.677   .     S
Cu957  O973    1.956   .     S
Cu958  O976    1.961   .     S
Cu958  O972    1.973   .     S
Cu958  O970    1.970   .     S
Cu958  N968    2.012   .     S
Cu958  O974    1.956   .     S
C977   N978    1.158   .     T
C979   N980    1.157   .     T
C981   N982    1.157   .     T
C983   N984    1.157   .     T
C985   N986    1.156   .     T
C987   N988    1.157   .     T
C989   N990    1.158   .     T
C991   N992    1.158   .     T
C993   C1018   1.457   .     S
C993   O1034   1.295   .     A
C993   O1031   1.285   .     A
C994   C1017   1.456   .     S
C994   O1033   1.288   .     A
C994   O1032   1.291   .     A
C995   O1038   1.300   .     A
C995   O1035   1.297   .     A
C995   C1013   1.486   .     S
C996   C1014   1.458   .     S
C996   O1037   1.295   .     A
C996   O1036   1.287   .     A
C997   H1021   1.078   .     S
C997   N1030   1.366   .     A
C998   N1029   1.365   .     A
C998   H1022   1.075   .     S
C998   C627    1.415   1_565 S
C999   N1030   1.366   .     A
C999   H1023   1.082   .     S
C1000  N1029   1.366   .     A
C1000  H1024   1.082   .     S
C1000  C625    1.416   1_565 S
C1001  C1047   1.451   .     S
C1001  C1018   1.410   .     A
C1002  C1017   1.411   .     A
C1002  C1049   1.452   .     S
C1002  C1066   1.396   .     S
C1003  C1051   1.455   .     S
C1003  C1017   1.410   .     A
C1003  C1063   1.399   .     S
C1004  C1053   1.456   .     S
C1004  C1018   1.413   .     A
C1005  H1025   1.085   .     S
C1005  C1009   1.394   .     A
C1005  C1015   1.391   .     A
C1006  H1026   1.085   .     S
C1006  C1016   1.396   .     A
C1006  C1010   1.393   .     A
C1007  C1011   1.393   .     A
C1007  C1016   1.396   .     A
C1007  H1027   1.085   .     S
C1008  C1015   1.391   .     A
C1008  C1012   1.392   .     A
C1008  H1028   1.086   .     S
C1009  C1013   1.426   .     A
C1009  C1039   1.446   .     S
C1010  C1014   1.410   .     A
C1010  C1041   1.443   .     S
C1011  C1014   1.410   .     A
C1011  C1043   1.443   .     S
C1012  C1013   1.423   .     A
C1012  C1045   1.443   .     S
C1016  C457    1.455   1_556 S
Cu1019 O1033   1.973   .     S
Cu1019 O1037   1.961   .     S
Cu1019 N1029   2.012   .     S
Cu1019 O1031   1.970   .     S
Cu1019 Cu1020  2.677   .     S
Cu1019 O1035   1.956   .     S
Cu1020 O1038   1.961   .     S
Cu1020 O1034   1.973   .     S
Cu1020 O1032   1.970   .     S
Cu1020 N1030   2.012   .     S
Cu1020 O1036   1.956   .     S
C1039  N1040   1.158   .     T
C1041  N1042   1.157   .     T
C1043  N1044   1.157   .     T
C1045  N1046   1.157   .     T
C1047  N1048   1.156   .     T
C1049  N1050   1.157   .     T
C1051  N1052   1.158   .     T
C1053  N1054   1.158   .     T
C1055  C1080   1.457   .     S
C1055  O1096   1.295   .     A
C1055  O1093   1.285   .     A
C1056  C1079   1.456   .     S
C1056  O1095   1.288   .     A
C1056  O1094   1.291   .     A
C1057  O1100   1.300   .     A
C1057  O1097   1.297   .     A
C1057  C1075   1.486   .     S
C1058  C1076   1.458   .     S
C1058  O1099   1.295   .     A
C1058  O1098   1.287   .     A
C1059  H1083   1.078   .     S
C1059  N1092   1.366   .     A
C1060  N1091   1.365   .     A
C1060  H1084   1.075   .     S
C1060  C689    1.415   1_565 S
C1061  N1092   1.366   .     A
C1061  H1085   1.082   .     S
C1062  N1091   1.366   .     A
C1062  H1086   1.082   .     S
C1062  C687    1.416   1_565 S
C1063  C1109   1.451   .     S
C1063  C1080   1.410   .     A
C1064  C1079   1.411   .     A
C1064  C1111   1.452   .     S
C1064  C942    1.396   1_655 S
C1065  C1113   1.455   .     S
C1065  C1079   1.410   .     A
C1065  C939    1.399   1_655 S
C1066  C1115   1.456   .     S
C1066  C1080   1.413   .     A
C1067  H1087   1.085   .     S
C1067  C1071   1.394   .     A
C1067  C1077   1.391   .     A
C1068  H1088   1.085   .     S
C1068  C1078   1.396   .     A
C1068  C1072   1.393   .     A
C1069  C1073   1.393   .     A
C1069  C1078   1.396   .     A
C1069  H1089   1.085   .     S
C1070  C1077   1.391   .     A
C1070  C1074   1.392   .     A
C1070  H1090   1.086   .     S
C1071  C1075   1.426   .     A
C1071  C1101   1.446   .     S
C1072  C1076   1.410   .     A
C1072  C1103   1.443   .     S
C1073  C1076   1.410   .     A
C1073  C1105   1.443   .     S
C1074  C1075   1.423   .     A
C1074  C1107   1.443   .     S
C1078  C519    1.455   1_556 S
Cu1081 O1095   1.973   .     S
Cu1081 O1099   1.961   .     S
Cu1081 N1091   2.012   .     S
Cu1081 O1093   1.970   .     S
Cu1081 Cu1082  2.677   .     S
Cu1081 O1097   1.956   .     S
Cu1082 O1100   1.961   .     S
Cu1082 O1096   1.973   .     S
Cu1082 O1094   1.970   .     S
Cu1082 N1092   2.012   .     S
Cu1082 O1098   1.956   .     S
C1101  N1102   1.158   .     T
C1103  N1104   1.157   .     T
C1105  N1106   1.157   .     T
C1107  N1108   1.157   .     T
C1109  N1110   1.156   .     T
C1111  N1112   1.157   .     T
C1113  N1114   1.158   .     T
C1115  N1116   1.158   .     T
