data_str_m2_o1_o18_pcu_sym.174
_audit_creation_date              2020-01-03
_audit_creation_method            'Materials Studio'
_symmetry_space_group_name_H-M    'P1'
_symmetry_Int_Tables_number       1
_symmetry_cell_setting            triclinic
loop_
_symmetry_equiv_pos_as_xyz
  x,y,z
_cell_length_a                    28.8094
_cell_length_b                    32.1085
_cell_length_c                    31.1329
_cell_angle_alpha                 88.3361
_cell_angle_beta                  73.2055
_cell_angle_gamma                 90.1633
loop_
_atom_site_label
_atom_site_type_symbol
_atom_site_fract_x
_atom_site_fract_y
_atom_site_fract_z
_atom_site_U_iso_or_equiv
_atom_site_adp_type
_atom_site_occupancy
C1     C     0.33314   0.08756   0.25039   0.00000  Uiso   1.00
C2     C     0.00006   0.24578   0.25009   0.00000  Uiso   1.00
C3     C     0.19918   0.18031   0.04978   0.00000  Uiso   1.00
C4     C     0.14828   0.21023   0.45760   0.00000  Uiso   1.00
C5     C     0.24817   0.17740   0.02656   0.00000  Uiso   1.00
C6     C     0.10154   0.22122   0.48176   0.00000  Uiso   1.00
C7     C     0.00842   0.02279   0.20933   0.00000  Uiso   1.00
C8     C     0.32249   0.31059   0.29146   0.00000  Uiso   1.00
C9     C     0.01016   0.31277   0.20969   0.00000  Uiso   1.00
C10    C     0.32361   0.02061   0.29096   0.00000  Uiso   1.00
C11    C     0.00003   0.29038   0.25050   0.00000  Uiso   1.00
C12    C     0.33304   0.04297   0.25014   0.00000  Uiso   1.00
C13    C     0.18265   0.13919   0.27728   0.00000  Uiso   1.00
C14    C     0.15174   0.19043   0.21886   0.00000  Uiso   1.00
C15    C     0.13207   0.14075   0.27893   0.00000  Uiso   1.00
C16    C     0.20111   0.19140   0.21987   0.00000  Uiso   1.00
C17    C     0.30571   0.16729   0.33616   0.00000  Uiso   1.00
C18    C     0.02778   0.16831   0.16404   0.00000  Uiso   1.00
C19    C     0.29076   0.17073   0.38553   0.00000  Uiso   1.00
C20    C     0.04464   0.17820   0.11565   0.00000  Uiso   1.00
C21    C     0.31216   0.17205   0.45560   0.00000  Uiso   1.00
C22    C     0.03497   0.21841   0.05139   0.00000  Uiso   1.00
C23    C     0.32583   0.17281   0.40870   0.00000  Uiso   1.00
C24    C     0.01593   0.20215   0.09529   0.00000  Uiso   1.00
C25    C     0.24145   0.17202   0.41007   0.00000  Uiso   1.00
C26    C     0.09276   0.16942   0.09169   0.00000  Uiso   1.00
C27    C     0.22812   0.18152   0.45595   0.00000  Uiso   1.00
C28    C     0.11381   0.18857   0.04906   0.00000  Uiso   1.00
C29    C     0.26311   0.17720   0.47958   0.00000  Uiso   1.00
C30    C     0.08327   0.20966   0.02733   0.00000  Uiso   1.00
C31    C     0.17990   0.19168   0.47948   0.00000  Uiso   1.00
C32    C     0.16406   0.18592   0.02659   0.00000  Uiso   1.00
Cu33   Cu    0.04689   0.16667   0.25000   0.00000  Uiso   1.00
Cu34   Cu    0.28645   0.16666   0.25000   0.00000  Uiso   1.00
H35    H     0.27406   0.17415   0.04562   0.00000  Uiso   1.00
H36    H     0.07912   0.23724   0.46413   0.00000  Uiso   1.00
H37    H     0.31220   0.20883   0.11366   0.00000  Uiso   1.00
H38    H     0.03066   0.17321   0.39076   0.00000  Uiso   1.00
H39    H     0.18970   0.18083   0.08598   0.00000  Uiso   1.00
H40    H     0.16049   0.21899   0.42227   0.00000  Uiso   1.00
H41    H     0.01946   0.29662   0.17831   0.00000  Uiso   1.00
H42    H     0.31688   0.03678   0.32222   0.00000  Uiso   1.00
N43    N     0.11736   0.16668   0.24999   0.00000  Uiso   1.00
N44    N     0.21597   0.16666   0.25001   0.00000  Uiso   1.00
O45    O     0.03958   0.10655   0.25000   0.00000  Uiso   1.00
O46    O     0.29375   0.22678   0.25000   0.00000  Uiso   1.00
O47    O     0.29372   0.10654   0.25001   0.00000  Uiso   1.00
O48    O     0.03961   0.22679   0.24999   0.00000  Uiso   1.00
O49    O     0.01852   0.16668   0.31491   0.00000  Uiso   1.00
O50    O     0.31481   0.16666   0.18509   0.00000  Uiso   1.00
O51    O     0.27267   0.16667   0.31492   0.00000  Uiso   1.00
O52    O     0.06067   0.16667   0.18508   0.00000  Uiso   1.00
O53    O     0.11808   0.14047   0.10965   0.00000  Uiso   1.00
C54    C     0.11387   0.10140   0.09146   0.00000  Uiso   1.00
H55    H     0.13319   0.10146   0.05493   0.00000  Uiso   1.00
H56    H     0.07526   0.09200   0.09741   0.00000  Uiso   1.00
H57    H     0.13097   0.07759   0.10831   0.00000  Uiso   1.00
O58    O     0.20658   0.15775   0.39134   0.00000  Uiso   1.00
C59    C     0.19928   0.11482   0.40279   0.00000  Uiso   1.00
H60    H     0.18917   0.10858   0.43975   0.00000  Uiso   1.00
H61    H     0.23188   0.09666   0.38561   0.00000  Uiso   1.00
H62    H     0.16878   0.10337   0.39167   0.00000  Uiso   1.00
O63    O     0.01401   0.16911   0.47759   0.00000  Uiso   1.00
C64    C     0.02412   0.12668   0.48299   0.00000  Uiso   1.00
H65    H     0.32441   0.10895   0.00238   0.00000  Uiso   1.00
H66    H     0.04040   0.11236   0.45003   0.00000  Uiso   1.00
H67    H     0.05099   0.12432   0.00227   0.00000  Uiso   1.00
O68    O     0.00594   0.24117   0.03100   0.00000  Uiso   1.00
C69    C     0.32836   0.27974   0.05199   0.00000  Uiso   1.00
H70    H     0.02832   0.29631   0.05406   0.00000  Uiso   1.00
H71    H     0.30202   0.27572   0.08589   0.00000  Uiso   1.00
H72    H     0.31111   0.29985   0.03154   0.00000  Uiso   1.00
O73    O     0.01909   0.04581   0.16932   0.00000  Uiso   1.00
C74    C     0.31461   0.04046   0.14951   0.00000  Uiso   1.00
H75    H     0.32060   0.06266   0.12040   0.00000  Uiso   1.00
H76    H     0.27861   0.04749   0.17324   0.00000  Uiso   1.00
H77    H     0.31451   0.00851   0.13671   0.00000  Uiso   1.00
O78    O     0.31448   0.28797   0.33147   0.00000  Uiso   1.00
C79    C     0.26411   0.28572   0.35255   0.00000  Uiso   1.00
H80    H     0.25759   0.26677   0.38414   0.00000  Uiso   1.00
H81    H     0.24477   0.27006   0.33114   0.00000  Uiso   1.00
H82    H     0.24880   0.31715   0.36155   0.00000  Uiso   1.00
O83    O     0.19885   0.10889   0.30173   0.00000  Uiso   1.00
C84    C     0.19869   0.06994   0.28158   0.00000  Uiso   1.00
H85    H     0.21550   0.07180   0.24453   0.00000  Uiso   1.00
H86    H     0.16157   0.05662   0.28905   0.00000  Uiso   1.00
H87    H     0.22016   0.04772   0.29582   0.00000  Uiso   1.00
O88    O     0.14140   0.20533   0.18051   0.00000  Uiso   1.00
C89    C     0.12955   0.24798   0.18318   0.00000  Uiso   1.00
H90    H     0.15441   0.26525   0.15431   0.00000  Uiso   1.00
H91    H     0.13004   0.26271   0.21508   0.00000  Uiso   1.00
H92    H     0.09329   0.25186   0.17816   0.00000  Uiso   1.00
O93    O     0.09838   0.11180   0.30369   0.00000  Uiso   1.00
C94    C     0.09556   0.11128   0.34962   0.00000  Uiso   1.00
H95    H     0.05707   0.10635   0.36905   0.00000  Uiso   1.00
H96    H     0.10874   0.14055   0.36088   0.00000  Uiso   1.00
H97    H     0.11498   0.08386   0.35772   0.00000  Uiso   1.00
O98    O     0.23583   0.21104   0.18490   0.00000  Uiso   1.00
C99    C     0.23789   0.25419   0.19194   0.00000  Uiso   1.00
H100   H     0.27639   0.26360   0.18445   0.00000  Uiso   1.00
H101   H     0.21841   0.26397   0.22657   0.00000  Uiso   1.00
H102   H     0.22461   0.27196   0.16707   0.00000  Uiso   1.00
C103   C     0.66648   0.08756   0.25039   0.00000  Uiso   1.00
C104   C     0.33339   0.24578   0.25009   0.00000  Uiso   1.00
C105   C     0.53252   0.18031   0.04978   0.00000  Uiso   1.00
C106   C     0.48162   0.21023   0.45760   0.00000  Uiso   1.00
C107   C     0.58150   0.17740   0.02656   0.00000  Uiso   1.00
C108   C     0.43487   0.22122   0.48176   0.00000  Uiso   1.00
C109   C     0.34176   0.02279   0.20933   0.00000  Uiso   1.00
C110   C     0.65582   0.31059   0.29146   0.00000  Uiso   1.00
C111   C     0.34350   0.31277   0.20969   0.00000  Uiso   1.00
C112   C     0.65694   0.02061   0.29096   0.00000  Uiso   1.00
C113   C     0.33337   0.29038   0.25050   0.00000  Uiso   1.00
C114   C     0.66638   0.04297   0.25014   0.00000  Uiso   1.00
C115   C     0.51598   0.13919   0.27728   0.00000  Uiso   1.00
C116   C     0.48507   0.19043   0.21886   0.00000  Uiso   1.00
C117   C     0.46540   0.14075   0.27893   0.00000  Uiso   1.00
C118   C     0.53444   0.19140   0.21987   0.00000  Uiso   1.00
C119   C     0.63904   0.16729   0.33616   0.00000  Uiso   1.00
C120   C     0.36112   0.16831   0.16404   0.00000  Uiso   1.00
C121   C     0.62410   0.17073   0.38553   0.00000  Uiso   1.00
C122   C     0.37797   0.17820   0.11565   0.00000  Uiso   1.00
C123   C     0.64549   0.17205   0.45560   0.00000  Uiso   1.00
C124   C     0.36830   0.21841   0.05139   0.00000  Uiso   1.00
C125   C     0.65917   0.17281   0.40870   0.00000  Uiso   1.00
C126   C     0.34926   0.20215   0.09529   0.00000  Uiso   1.00
C127   C     0.57478   0.17202   0.41007   0.00000  Uiso   1.00
C128   C     0.42609   0.16942   0.09169   0.00000  Uiso   1.00
C129   C     0.56145   0.18152   0.45595   0.00000  Uiso   1.00
C130   C     0.44715   0.18857   0.04906   0.00000  Uiso   1.00
C131   C     0.59644   0.17720   0.47958   0.00000  Uiso   1.00
C132   C     0.41660   0.20966   0.02733   0.00000  Uiso   1.00
C133   C     0.51323   0.19168   0.47948   0.00000  Uiso   1.00
C134   C     0.49740   0.18592   0.02659   0.00000  Uiso   1.00
Cu135  Cu    0.38022   0.16667   0.25000   0.00000  Uiso   1.00
Cu136  Cu    0.61978   0.16666   0.25000   0.00000  Uiso   1.00
H137   H     0.60739   0.17415   0.04562   0.00000  Uiso   1.00
H138   H     0.41245   0.23724   0.46413   0.00000  Uiso   1.00
H139   H     0.64554   0.20883   0.11366   0.00000  Uiso   1.00
H140   H     0.36399   0.17321   0.39076   0.00000  Uiso   1.00
H141   H     0.52304   0.18083   0.08598   0.00000  Uiso   1.00
H142   H     0.49382   0.21899   0.42227   0.00000  Uiso   1.00
H143   H     0.35280   0.29662   0.17831   0.00000  Uiso   1.00
H144   H     0.65021   0.03678   0.32222   0.00000  Uiso   1.00
N145   N     0.45069   0.16668   0.24999   0.00000  Uiso   1.00
N146   N     0.54931   0.16666   0.25001   0.00000  Uiso   1.00
O147   O     0.37291   0.10655   0.25000   0.00000  Uiso   1.00
O148   O     0.62709   0.22678   0.25000   0.00000  Uiso   1.00
O149   O     0.62706   0.10654   0.25001   0.00000  Uiso   1.00
O150   O     0.37294   0.22679   0.24999   0.00000  Uiso   1.00
O151   O     0.35186   0.16668   0.31491   0.00000  Uiso   1.00
O152   O     0.64814   0.16666   0.18509   0.00000  Uiso   1.00
O153   O     0.60600   0.16667   0.31492   0.00000  Uiso   1.00
O154   O     0.39400   0.16667   0.18508   0.00000  Uiso   1.00
O155   O     0.45141   0.14047   0.10965   0.00000  Uiso   1.00
C156   C     0.44720   0.10140   0.09146   0.00000  Uiso   1.00
H157   H     0.46652   0.10146   0.05493   0.00000  Uiso   1.00
H158   H     0.40859   0.09200   0.09741   0.00000  Uiso   1.00
H159   H     0.46430   0.07759   0.10831   0.00000  Uiso   1.00
O160   O     0.53991   0.15775   0.39134   0.00000  Uiso   1.00
C161   C     0.53261   0.11482   0.40279   0.00000  Uiso   1.00
H162   H     0.52251   0.10858   0.43975   0.00000  Uiso   1.00
H163   H     0.56521   0.09666   0.38561   0.00000  Uiso   1.00
H164   H     0.50212   0.10337   0.39167   0.00000  Uiso   1.00
O165   O     0.34735   0.16911   0.47759   0.00000  Uiso   1.00
C166   C     0.35746   0.12668   0.48299   0.00000  Uiso   1.00
H167   H     0.65774   0.10895   0.00238   0.00000  Uiso   1.00
H168   H     0.37373   0.11236   0.45003   0.00000  Uiso   1.00
H169   H     0.38432   0.12432   0.00227   0.00000  Uiso   1.00
O170   O     0.33928   0.24117   0.03100   0.00000  Uiso   1.00
C171   C     0.66169   0.27974   0.05199   0.00000  Uiso   1.00
H172   H     0.36165   0.29631   0.05406   0.00000  Uiso   1.00
H173   H     0.63535   0.27572   0.08589   0.00000  Uiso   1.00
H174   H     0.64444   0.29985   0.03154   0.00000  Uiso   1.00
O175   O     0.35243   0.04581   0.16932   0.00000  Uiso   1.00
C176   C     0.64794   0.04046   0.14951   0.00000  Uiso   1.00
H177   H     0.65393   0.06266   0.12040   0.00000  Uiso   1.00
H178   H     0.61194   0.04749   0.17324   0.00000  Uiso   1.00
H179   H     0.64785   0.00851   0.13671   0.00000  Uiso   1.00
O180   O     0.64781   0.28797   0.33147   0.00000  Uiso   1.00
C181   C     0.59744   0.28572   0.35255   0.00000  Uiso   1.00
H182   H     0.59093   0.26677   0.38414   0.00000  Uiso   1.00
H183   H     0.57810   0.27006   0.33114   0.00000  Uiso   1.00
H184   H     0.58214   0.31715   0.36155   0.00000  Uiso   1.00
O185   O     0.53219   0.10889   0.30173   0.00000  Uiso   1.00
C186   C     0.53203   0.06994   0.28158   0.00000  Uiso   1.00
H187   H     0.54883   0.07180   0.24453   0.00000  Uiso   1.00
H188   H     0.49491   0.05662   0.28905   0.00000  Uiso   1.00
H189   H     0.55349   0.04772   0.29582   0.00000  Uiso   1.00
O190   O     0.47473   0.20533   0.18051   0.00000  Uiso   1.00
C191   C     0.46288   0.24798   0.18318   0.00000  Uiso   1.00
H192   H     0.48774   0.26525   0.15431   0.00000  Uiso   1.00
H193   H     0.46337   0.26271   0.21508   0.00000  Uiso   1.00
H194   H     0.42662   0.25186   0.17816   0.00000  Uiso   1.00
O195   O     0.43172   0.11180   0.30369   0.00000  Uiso   1.00
C196   C     0.42889   0.11128   0.34962   0.00000  Uiso   1.00
H197   H     0.39040   0.10635   0.36905   0.00000  Uiso   1.00
H198   H     0.44208   0.14055   0.36088   0.00000  Uiso   1.00
H199   H     0.44831   0.08386   0.35772   0.00000  Uiso   1.00
O200   O     0.56917   0.21104   0.18490   0.00000  Uiso   1.00
C201   C     0.57122   0.25419   0.19194   0.00000  Uiso   1.00
H202   H     0.60972   0.26360   0.18445   0.00000  Uiso   1.00
H203   H     0.55174   0.26397   0.22657   0.00000  Uiso   1.00
H204   H     0.55794   0.27196   0.16707   0.00000  Uiso   1.00
C205   C     0.99981   0.08756   0.25039   0.00000  Uiso   1.00
C206   C     0.66673   0.24578   0.25009   0.00000  Uiso   1.00
C207   C     0.86585   0.18031   0.04978   0.00000  Uiso   1.00
C208   C     0.81495   0.21023   0.45760   0.00000  Uiso   1.00
C209   C     0.91483   0.17740   0.02656   0.00000  Uiso   1.00
C210   C     0.76820   0.22122   0.48176   0.00000  Uiso   1.00
C211   C     0.67509   0.02279   0.20933   0.00000  Uiso   1.00
C212   C     0.98915   0.31059   0.29146   0.00000  Uiso   1.00
C213   C     0.67683   0.31277   0.20969   0.00000  Uiso   1.00
C214   C     0.99027   0.02061   0.29096   0.00000  Uiso   1.00
C215   C     0.66670   0.29038   0.25050   0.00000  Uiso   1.00
C216   C     0.99971   0.04297   0.25014   0.00000  Uiso   1.00
C217   C     0.84932   0.13919   0.27728   0.00000  Uiso   1.00
C218   C     0.81840   0.19043   0.21886   0.00000  Uiso   1.00
C219   C     0.79874   0.14075   0.27893   0.00000  Uiso   1.00
C220   C     0.86778   0.19140   0.21987   0.00000  Uiso   1.00
C221   C     0.97237   0.16729   0.33616   0.00000  Uiso   1.00
C222   C     0.69445   0.16831   0.16404   0.00000  Uiso   1.00
C223   C     0.95743   0.17073   0.38553   0.00000  Uiso   1.00
C224   C     0.71131   0.17820   0.11565   0.00000  Uiso   1.00
C225   C     0.97883   0.17205   0.45560   0.00000  Uiso   1.00
C226   C     0.70164   0.21841   0.05139   0.00000  Uiso   1.00
C227   C     0.99250   0.17281   0.40870   0.00000  Uiso   1.00
C228   C     0.68259   0.20215   0.09529   0.00000  Uiso   1.00
C229   C     0.90812   0.17202   0.41007   0.00000  Uiso   1.00
C230   C     0.75943   0.16942   0.09169   0.00000  Uiso   1.00
C231   C     0.89478   0.18152   0.45595   0.00000  Uiso   1.00
C232   C     0.78048   0.18857   0.04906   0.00000  Uiso   1.00
C233   C     0.92977   0.17720   0.47958   0.00000  Uiso   1.00
C234   C     0.74993   0.20966   0.02733   0.00000  Uiso   1.00
C235   C     0.84657   0.19168   0.47948   0.00000  Uiso   1.00
C236   C     0.83073   0.18592   0.02659   0.00000  Uiso   1.00
Cu237  Cu    0.71355   0.16667   0.25000   0.00000  Uiso   1.00
Cu238  Cu    0.95311   0.16666   0.25000   0.00000  Uiso   1.00
H239   H     0.94073   0.17415   0.04562   0.00000  Uiso   1.00
H240   H     0.74579   0.23724   0.46413   0.00000  Uiso   1.00
H241   H     0.97887   0.20883   0.11366   0.00000  Uiso   1.00
H242   H     0.69733   0.17321   0.39076   0.00000  Uiso   1.00
H243   H     0.85637   0.18083   0.08598   0.00000  Uiso   1.00
H244   H     0.82715   0.21899   0.42227   0.00000  Uiso   1.00
H245   H     0.68613   0.29662   0.17831   0.00000  Uiso   1.00
H246   H     0.98355   0.03678   0.32222   0.00000  Uiso   1.00
N247   N     0.78403   0.16668   0.24999   0.00000  Uiso   1.00
N248   N     0.88264   0.16666   0.25001   0.00000  Uiso   1.00
O249   O     0.70625   0.10655   0.25000   0.00000  Uiso   1.00
O250   O     0.96042   0.22678   0.25000   0.00000  Uiso   1.00
O251   O     0.96039   0.10654   0.25001   0.00000  Uiso   1.00
O252   O     0.70628   0.22679   0.24999   0.00000  Uiso   1.00
O253   O     0.68519   0.16668   0.31491   0.00000  Uiso   1.00
O254   O     0.98148   0.16666   0.18509   0.00000  Uiso   1.00
O255   O     0.93933   0.16667   0.31492   0.00000  Uiso   1.00
O256   O     0.72733   0.16667   0.18508   0.00000  Uiso   1.00
O257   O     0.78475   0.14047   0.10965   0.00000  Uiso   1.00
C258   C     0.78053   0.10140   0.09146   0.00000  Uiso   1.00
H259   H     0.79986   0.10146   0.05493   0.00000  Uiso   1.00
H260   H     0.74192   0.09200   0.09741   0.00000  Uiso   1.00
H261   H     0.79763   0.07759   0.10831   0.00000  Uiso   1.00
O262   O     0.87324   0.15775   0.39134   0.00000  Uiso   1.00
C263   C     0.86594   0.11482   0.40279   0.00000  Uiso   1.00
H264   H     0.85584   0.10858   0.43975   0.00000  Uiso   1.00
H265   H     0.89855   0.09666   0.38561   0.00000  Uiso   1.00
H266   H     0.83545   0.10337   0.39167   0.00000  Uiso   1.00
O267   O     0.68068   0.16911   0.47759   0.00000  Uiso   1.00
C268   C     0.69079   0.12668   0.48299   0.00000  Uiso   1.00
H269   H     0.99108   0.10895   0.00238   0.00000  Uiso   1.00
H270   H     0.70706   0.11236   0.45003   0.00000  Uiso   1.00
H271   H     0.71766   0.12432   0.00227   0.00000  Uiso   1.00
O272   O     0.67261   0.24117   0.03100   0.00000  Uiso   1.00
C273   C     0.99503   0.27974   0.05199   0.00000  Uiso   1.00
H274   H     0.69499   0.29631   0.05406   0.00000  Uiso   1.00
H275   H     0.96868   0.27572   0.08589   0.00000  Uiso   1.00
H276   H     0.97777   0.29985   0.03154   0.00000  Uiso   1.00
O277   O     0.68576   0.04581   0.16932   0.00000  Uiso   1.00
C278   C     0.98128   0.04046   0.14951   0.00000  Uiso   1.00
H279   H     0.98726   0.06266   0.12040   0.00000  Uiso   1.00
H280   H     0.94527   0.04749   0.17324   0.00000  Uiso   1.00
H281   H     0.98118   0.00851   0.13671   0.00000  Uiso   1.00
O282   O     0.98114   0.28797   0.33147   0.00000  Uiso   1.00
C283   C     0.93078   0.28572   0.35255   0.00000  Uiso   1.00
H284   H     0.92426   0.26677   0.38414   0.00000  Uiso   1.00
H285   H     0.91144   0.27006   0.33114   0.00000  Uiso   1.00
H286   H     0.91547   0.31715   0.36155   0.00000  Uiso   1.00
O287   O     0.86552   0.10889   0.30173   0.00000  Uiso   1.00
C288   C     0.86536   0.06994   0.28158   0.00000  Uiso   1.00
H289   H     0.88217   0.07180   0.24453   0.00000  Uiso   1.00
H290   H     0.82824   0.05662   0.28905   0.00000  Uiso   1.00
H291   H     0.88683   0.04772   0.29582   0.00000  Uiso   1.00
O292   O     0.80807   0.20533   0.18051   0.00000  Uiso   1.00
C293   C     0.79621   0.24798   0.18318   0.00000  Uiso   1.00
H294   H     0.82108   0.26525   0.15431   0.00000  Uiso   1.00
H295   H     0.79670   0.26271   0.21508   0.00000  Uiso   1.00
H296   H     0.75996   0.25186   0.17816   0.00000  Uiso   1.00
O297   O     0.76505   0.11180   0.30369   0.00000  Uiso   1.00
C298   C     0.76223   0.11128   0.34962   0.00000  Uiso   1.00
H299   H     0.72374   0.10635   0.36905   0.00000  Uiso   1.00
H300   H     0.77541   0.14055   0.36088   0.00000  Uiso   1.00
H301   H     0.78164   0.08386   0.35772   0.00000  Uiso   1.00
O302   O     0.90250   0.21104   0.18490   0.00000  Uiso   1.00
C303   C     0.90456   0.25419   0.19194   0.00000  Uiso   1.00
H304   H     0.94305   0.26360   0.18445   0.00000  Uiso   1.00
H305   H     0.88508   0.26397   0.22657   0.00000  Uiso   1.00
H306   H     0.89127   0.27196   0.16707   0.00000  Uiso   1.00
C307   C     0.33314   0.42089   0.25039   0.00000  Uiso   1.00
C308   C     0.00006   0.57911   0.25009   0.00000  Uiso   1.00
C309   C     0.19918   0.51364   0.04978   0.00000  Uiso   1.00
C310   C     0.14828   0.54356   0.45760   0.00000  Uiso   1.00
C311   C     0.24817   0.51073   0.02656   0.00000  Uiso   1.00
C312   C     0.10154   0.55455   0.48176   0.00000  Uiso   1.00
C313   C     0.00842   0.35612   0.20933   0.00000  Uiso   1.00
C314   C     0.32249   0.64392   0.29146   0.00000  Uiso   1.00
C315   C     0.01016   0.64611   0.20969   0.00000  Uiso   1.00
C316   C     0.32361   0.35395   0.29096   0.00000  Uiso   1.00
C317   C     0.00003   0.62371   0.25050   0.00000  Uiso   1.00
C318   C     0.33304   0.37630   0.25014   0.00000  Uiso   1.00
C319   C     0.18265   0.47252   0.27728   0.00000  Uiso   1.00
C320   C     0.15174   0.52376   0.21886   0.00000  Uiso   1.00
C321   C     0.13207   0.47409   0.27893   0.00000  Uiso   1.00
C322   C     0.20111   0.52473   0.21987   0.00000  Uiso   1.00
C323   C     0.30571   0.50063   0.33616   0.00000  Uiso   1.00
C324   C     0.02778   0.50165   0.16404   0.00000  Uiso   1.00
C325   C     0.29076   0.50407   0.38553   0.00000  Uiso   1.00
C326   C     0.04464   0.51153   0.11565   0.00000  Uiso   1.00
C327   C     0.31216   0.50539   0.45560   0.00000  Uiso   1.00
C328   C     0.03497   0.55174   0.05139   0.00000  Uiso   1.00
C329   C     0.32583   0.50614   0.40870   0.00000  Uiso   1.00
C330   C     0.01593   0.53548   0.09529   0.00000  Uiso   1.00
C331   C     0.24145   0.50536   0.41007   0.00000  Uiso   1.00
C332   C     0.09276   0.50276   0.09169   0.00000  Uiso   1.00
C333   C     0.22812   0.51485   0.45595   0.00000  Uiso   1.00
C334   C     0.11381   0.52191   0.04906   0.00000  Uiso   1.00
C335   C     0.26311   0.51053   0.47958   0.00000  Uiso   1.00
C336   C     0.08327   0.54299   0.02733   0.00000  Uiso   1.00
C337   C     0.17990   0.52502   0.47948   0.00000  Uiso   1.00
C338   C     0.16406   0.51925   0.02659   0.00000  Uiso   1.00
Cu339  Cu    0.04689   0.50001   0.25000   0.00000  Uiso   1.00
Cu340  Cu    0.28645   0.49999   0.25000   0.00000  Uiso   1.00
H341   H     0.27406   0.50748   0.04562   0.00000  Uiso   1.00
H342   H     0.07912   0.57057   0.46413   0.00000  Uiso   1.00
H343   H     0.31220   0.54217   0.11366   0.00000  Uiso   1.00
H344   H     0.03066   0.50655   0.39076   0.00000  Uiso   1.00
H345   H     0.18970   0.51417   0.08598   0.00000  Uiso   1.00
H346   H     0.16049   0.55233   0.42227   0.00000  Uiso   1.00
H347   H     0.01946   0.62995   0.17831   0.00000  Uiso   1.00
H348   H     0.31688   0.37012   0.32222   0.00000  Uiso   1.00
N349   N     0.11736   0.50001   0.24999   0.00000  Uiso   1.00
N350   N     0.21597   0.49999   0.25001   0.00000  Uiso   1.00
O351   O     0.03958   0.43989   0.25000   0.00000  Uiso   1.00
O352   O     0.29375   0.56011   0.25000   0.00000  Uiso   1.00
O353   O     0.29372   0.43988   0.25001   0.00000  Uiso   1.00
O354   O     0.03961   0.56012   0.24999   0.00000  Uiso   1.00
O355   O     0.01852   0.50001   0.31491   0.00000  Uiso   1.00
O356   O     0.31481   0.49999   0.18509   0.00000  Uiso   1.00
O357   O     0.27267   0.50000   0.31492   0.00000  Uiso   1.00
O358   O     0.06067   0.50000   0.18508   0.00000  Uiso   1.00
O359   O     0.11808   0.47380   0.10965   0.00000  Uiso   1.00
C360   C     0.11387   0.43473   0.09146   0.00000  Uiso   1.00
H361   H     0.13319   0.43479   0.05493   0.00000  Uiso   1.00
H362   H     0.07526   0.42533   0.09741   0.00000  Uiso   1.00
H363   H     0.13097   0.41092   0.10831   0.00000  Uiso   1.00
O364   O     0.20658   0.49109   0.39134   0.00000  Uiso   1.00
C365   C     0.19928   0.44815   0.40279   0.00000  Uiso   1.00
H366   H     0.18917   0.44191   0.43975   0.00000  Uiso   1.00
H367   H     0.23188   0.43000   0.38561   0.00000  Uiso   1.00
H368   H     0.16878   0.43670   0.39167   0.00000  Uiso   1.00
O369   O     0.01401   0.50245   0.47759   0.00000  Uiso   1.00
C370   C     0.02412   0.46002   0.48299   0.00000  Uiso   1.00
H371   H     0.32441   0.44228   0.00238   0.00000  Uiso   1.00
H372   H     0.04040   0.44569   0.45003   0.00000  Uiso   1.00
H373   H     0.05099   0.45765   0.00227   0.00000  Uiso   1.00
O374   O     0.00594   0.57450   0.03100   0.00000  Uiso   1.00
C375   C     0.32836   0.61307   0.05199   0.00000  Uiso   1.00
H376   H     0.02832   0.62965   0.05406   0.00000  Uiso   1.00
H377   H     0.30202   0.60906   0.08589   0.00000  Uiso   1.00
H378   H     0.31111   0.63318   0.03154   0.00000  Uiso   1.00
O379   O     0.01909   0.37914   0.16932   0.00000  Uiso   1.00
C380   C     0.31461   0.37379   0.14951   0.00000  Uiso   1.00
H381   H     0.32060   0.39599   0.12040   0.00000  Uiso   1.00
H382   H     0.27861   0.38082   0.17324   0.00000  Uiso   1.00
H383   H     0.31451   0.34184   0.13671   0.00000  Uiso   1.00
O384   O     0.31448   0.62130   0.33147   0.00000  Uiso   1.00
C385   C     0.26411   0.61906   0.35255   0.00000  Uiso   1.00
H386   H     0.25759   0.60010   0.38414   0.00000  Uiso   1.00
H387   H     0.24477   0.60339   0.33114   0.00000  Uiso   1.00
H388   H     0.24880   0.65049   0.36155   0.00000  Uiso   1.00
O389   O     0.19885   0.44222   0.30173   0.00000  Uiso   1.00
C390   C     0.19869   0.40327   0.28158   0.00000  Uiso   1.00
H391   H     0.21550   0.40514   0.24453   0.00000  Uiso   1.00
H392   H     0.16157   0.38995   0.28905   0.00000  Uiso   1.00
H393   H     0.22016   0.38106   0.29582   0.00000  Uiso   1.00
O394   O     0.14140   0.53866   0.18051   0.00000  Uiso   1.00
C395   C     0.12955   0.58132   0.18318   0.00000  Uiso   1.00
H396   H     0.15441   0.59858   0.15431   0.00000  Uiso   1.00
H397   H     0.13004   0.59605   0.21508   0.00000  Uiso   1.00
H398   H     0.09329   0.58519   0.17816   0.00000  Uiso   1.00
O399   O     0.09838   0.44513   0.30369   0.00000  Uiso   1.00
C400   C     0.09556   0.44462   0.34962   0.00000  Uiso   1.00
H401   H     0.05707   0.43968   0.36905   0.00000  Uiso   1.00
H402   H     0.10874   0.47388   0.36088   0.00000  Uiso   1.00
H403   H     0.11498   0.41719   0.35772   0.00000  Uiso   1.00
O404   O     0.23583   0.54437   0.18490   0.00000  Uiso   1.00
C405   C     0.23789   0.58753   0.19194   0.00000  Uiso   1.00
H406   H     0.27639   0.59693   0.18445   0.00000  Uiso   1.00
H407   H     0.21841   0.59730   0.22657   0.00000  Uiso   1.00
H408   H     0.22461   0.60529   0.16707   0.00000  Uiso   1.00
C409   C     0.66648   0.42089   0.25039   0.00000  Uiso   1.00
C410   C     0.33339   0.57911   0.25009   0.00000  Uiso   1.00
C411   C     0.53252   0.51364   0.04978   0.00000  Uiso   1.00
C412   C     0.48162   0.54356   0.45760   0.00000  Uiso   1.00
C413   C     0.58150   0.51073   0.02656   0.00000  Uiso   1.00
C414   C     0.43487   0.55455   0.48176   0.00000  Uiso   1.00
C415   C     0.34176   0.35612   0.20933   0.00000  Uiso   1.00
C416   C     0.65582   0.64392   0.29146   0.00000  Uiso   1.00
C417   C     0.34350   0.64611   0.20969   0.00000  Uiso   1.00
C418   C     0.65694   0.35395   0.29096   0.00000  Uiso   1.00
C419   C     0.33337   0.62371   0.25050   0.00000  Uiso   1.00
C420   C     0.66638   0.37630   0.25014   0.00000  Uiso   1.00
C421   C     0.51598   0.47252   0.27728   0.00000  Uiso   1.00
C422   C     0.48507   0.52376   0.21886   0.00000  Uiso   1.00
C423   C     0.46540   0.47409   0.27893   0.00000  Uiso   1.00
C424   C     0.53444   0.52473   0.21987   0.00000  Uiso   1.00
C425   C     0.63904   0.50063   0.33616   0.00000  Uiso   1.00
C426   C     0.36112   0.50165   0.16404   0.00000  Uiso   1.00
C427   C     0.62410   0.50407   0.38553   0.00000  Uiso   1.00
C428   C     0.37797   0.51153   0.11565   0.00000  Uiso   1.00
C429   C     0.64549   0.50539   0.45560   0.00000  Uiso   1.00
C430   C     0.36830   0.55174   0.05139   0.00000  Uiso   1.00
C431   C     0.65917   0.50614   0.40870   0.00000  Uiso   1.00
C432   C     0.34926   0.53548   0.09529   0.00000  Uiso   1.00
C433   C     0.57478   0.50536   0.41007   0.00000  Uiso   1.00
C434   C     0.42609   0.50276   0.09169   0.00000  Uiso   1.00
C435   C     0.56145   0.51485   0.45595   0.00000  Uiso   1.00
C436   C     0.44715   0.52191   0.04906   0.00000  Uiso   1.00
C437   C     0.59644   0.51053   0.47958   0.00000  Uiso   1.00
C438   C     0.41660   0.54299   0.02733   0.00000  Uiso   1.00
C439   C     0.51323   0.52502   0.47948   0.00000  Uiso   1.00
C440   C     0.49740   0.51925   0.02659   0.00000  Uiso   1.00
Cu441  Cu    0.38022   0.50001   0.25000   0.00000  Uiso   1.00
Cu442  Cu    0.61978   0.49999   0.25000   0.00000  Uiso   1.00
H443   H     0.60739   0.50748   0.04562   0.00000  Uiso   1.00
H444   H     0.41245   0.57057   0.46413   0.00000  Uiso   1.00
H445   H     0.64554   0.54217   0.11366   0.00000  Uiso   1.00
H446   H     0.36399   0.50655   0.39076   0.00000  Uiso   1.00
H447   H     0.52304   0.51417   0.08598   0.00000  Uiso   1.00
H448   H     0.49382   0.55233   0.42227   0.00000  Uiso   1.00
H449   H     0.35280   0.62995   0.17831   0.00000  Uiso   1.00
H450   H     0.65021   0.37012   0.32222   0.00000  Uiso   1.00
N451   N     0.45069   0.50001   0.24999   0.00000  Uiso   1.00
N452   N     0.54931   0.49999   0.25001   0.00000  Uiso   1.00
O453   O     0.37291   0.43989   0.25000   0.00000  Uiso   1.00
O454   O     0.62709   0.56011   0.25000   0.00000  Uiso   1.00
O455   O     0.62706   0.43988   0.25001   0.00000  Uiso   1.00
O456   O     0.37294   0.56012   0.24999   0.00000  Uiso   1.00
O457   O     0.35186   0.50001   0.31491   0.00000  Uiso   1.00
O458   O     0.64814   0.49999   0.18509   0.00000  Uiso   1.00
O459   O     0.60600   0.50000   0.31492   0.00000  Uiso   1.00
O460   O     0.39400   0.50000   0.18508   0.00000  Uiso   1.00
O461   O     0.45141   0.47380   0.10965   0.00000  Uiso   1.00
C462   C     0.44720   0.43473   0.09146   0.00000  Uiso   1.00
H463   H     0.46652   0.43479   0.05493   0.00000  Uiso   1.00
H464   H     0.40859   0.42533   0.09741   0.00000  Uiso   1.00
H465   H     0.46430   0.41092   0.10831   0.00000  Uiso   1.00
O466   O     0.53991   0.49109   0.39134   0.00000  Uiso   1.00
C467   C     0.53261   0.44815   0.40279   0.00000  Uiso   1.00
H468   H     0.52251   0.44191   0.43975   0.00000  Uiso   1.00
H469   H     0.56521   0.43000   0.38561   0.00000  Uiso   1.00
H470   H     0.50212   0.43670   0.39167   0.00000  Uiso   1.00
O471   O     0.34735   0.50245   0.47759   0.00000  Uiso   1.00
C472   C     0.35746   0.46002   0.48299   0.00000  Uiso   1.00
H473   H     0.65774   0.44228   0.00238   0.00000  Uiso   1.00
H474   H     0.37373   0.44569   0.45003   0.00000  Uiso   1.00
H475   H     0.38432   0.45765   0.00227   0.00000  Uiso   1.00
O476   O     0.33928   0.57450   0.03100   0.00000  Uiso   1.00
C477   C     0.66169   0.61307   0.05199   0.00000  Uiso   1.00
H478   H     0.36165   0.62965   0.05406   0.00000  Uiso   1.00
H479   H     0.63535   0.60906   0.08589   0.00000  Uiso   1.00
H480   H     0.64444   0.63318   0.03154   0.00000  Uiso   1.00
O481   O     0.35243   0.37914   0.16932   0.00000  Uiso   1.00
C482   C     0.64794   0.37379   0.14951   0.00000  Uiso   1.00
H483   H     0.65393   0.39599   0.12040   0.00000  Uiso   1.00
H484   H     0.61194   0.38082   0.17324   0.00000  Uiso   1.00
H485   H     0.64785   0.34184   0.13671   0.00000  Uiso   1.00
O486   O     0.64781   0.62130   0.33147   0.00000  Uiso   1.00
C487   C     0.59744   0.61906   0.35255   0.00000  Uiso   1.00
H488   H     0.59093   0.60010   0.38414   0.00000  Uiso   1.00
H489   H     0.57810   0.60339   0.33114   0.00000  Uiso   1.00
H490   H     0.58214   0.65049   0.36155   0.00000  Uiso   1.00
O491   O     0.53219   0.44222   0.30173   0.00000  Uiso   1.00
C492   C     0.53203   0.40327   0.28158   0.00000  Uiso   1.00
H493   H     0.54883   0.40514   0.24453   0.00000  Uiso   1.00
H494   H     0.49491   0.38995   0.28905   0.00000  Uiso   1.00
H495   H     0.55349   0.38106   0.29582   0.00000  Uiso   1.00
O496   O     0.47473   0.53866   0.18051   0.00000  Uiso   1.00
C497   C     0.46288   0.58132   0.18318   0.00000  Uiso   1.00
H498   H     0.48774   0.59858   0.15431   0.00000  Uiso   1.00
H499   H     0.46337   0.59605   0.21508   0.00000  Uiso   1.00
H500   H     0.42662   0.58519   0.17816   0.00000  Uiso   1.00
O501   O     0.43172   0.44513   0.30369   0.00000  Uiso   1.00
C502   C     0.42889   0.44462   0.34962   0.00000  Uiso   1.00
H503   H     0.39040   0.43968   0.36905   0.00000  Uiso   1.00
H504   H     0.44208   0.47388   0.36088   0.00000  Uiso   1.00
H505   H     0.44831   0.41719   0.35772   0.00000  Uiso   1.00
O506   O     0.56917   0.54437   0.18490   0.00000  Uiso   1.00
C507   C     0.57122   0.58753   0.19194   0.00000  Uiso   1.00
H508   H     0.60972   0.59693   0.18445   0.00000  Uiso   1.00
H509   H     0.55174   0.59730   0.22657   0.00000  Uiso   1.00
H510   H     0.55794   0.60529   0.16707   0.00000  Uiso   1.00
C511   C     0.99981   0.42089   0.25039   0.00000  Uiso   1.00
C512   C     0.66673   0.57911   0.25009   0.00000  Uiso   1.00
C513   C     0.86585   0.51364   0.04978   0.00000  Uiso   1.00
C514   C     0.81495   0.54356   0.45760   0.00000  Uiso   1.00
C515   C     0.91483   0.51073   0.02656   0.00000  Uiso   1.00
C516   C     0.76820   0.55455   0.48176   0.00000  Uiso   1.00
C517   C     0.67509   0.35612   0.20933   0.00000  Uiso   1.00
C518   C     0.98915   0.64392   0.29146   0.00000  Uiso   1.00
C519   C     0.67683   0.64611   0.20969   0.00000  Uiso   1.00
C520   C     0.99027   0.35395   0.29096   0.00000  Uiso   1.00
C521   C     0.66670   0.62371   0.25050   0.00000  Uiso   1.00
C522   C     0.99971   0.37630   0.25014   0.00000  Uiso   1.00
C523   C     0.84932   0.47252   0.27728   0.00000  Uiso   1.00
C524   C     0.81840   0.52376   0.21886   0.00000  Uiso   1.00
C525   C     0.79874   0.47409   0.27893   0.00000  Uiso   1.00
C526   C     0.86778   0.52473   0.21987   0.00000  Uiso   1.00
C527   C     0.97237   0.50063   0.33616   0.00000  Uiso   1.00
C528   C     0.69445   0.50165   0.16404   0.00000  Uiso   1.00
C529   C     0.95743   0.50407   0.38553   0.00000  Uiso   1.00
C530   C     0.71131   0.51153   0.11565   0.00000  Uiso   1.00
C531   C     0.97883   0.50539   0.45560   0.00000  Uiso   1.00
C532   C     0.70164   0.55174   0.05139   0.00000  Uiso   1.00
C533   C     0.99250   0.50614   0.40870   0.00000  Uiso   1.00
C534   C     0.68259   0.53548   0.09529   0.00000  Uiso   1.00
C535   C     0.90812   0.50536   0.41007   0.00000  Uiso   1.00
C536   C     0.75943   0.50276   0.09169   0.00000  Uiso   1.00
C537   C     0.89478   0.51485   0.45595   0.00000  Uiso   1.00
C538   C     0.78048   0.52191   0.04906   0.00000  Uiso   1.00
C539   C     0.92977   0.51053   0.47958   0.00000  Uiso   1.00
C540   C     0.74993   0.54299   0.02733   0.00000  Uiso   1.00
C541   C     0.84657   0.52502   0.47948   0.00000  Uiso   1.00
C542   C     0.83073   0.51925   0.02659   0.00000  Uiso   1.00
Cu543  Cu    0.71355   0.50001   0.25000   0.00000  Uiso   1.00
Cu544  Cu    0.95311   0.49999   0.25000   0.00000  Uiso   1.00
H545   H     0.94073   0.50748   0.04562   0.00000  Uiso   1.00
H546   H     0.74579   0.57057   0.46413   0.00000  Uiso   1.00
H547   H     0.97887   0.54217   0.11366   0.00000  Uiso   1.00
H548   H     0.69733   0.50655   0.39076   0.00000  Uiso   1.00
H549   H     0.85637   0.51417   0.08598   0.00000  Uiso   1.00
H550   H     0.82715   0.55233   0.42227   0.00000  Uiso   1.00
H551   H     0.68613   0.62995   0.17831   0.00000  Uiso   1.00
H552   H     0.98355   0.37012   0.32222   0.00000  Uiso   1.00
N553   N     0.78403   0.50001   0.24999   0.00000  Uiso   1.00
N554   N     0.88264   0.49999   0.25001   0.00000  Uiso   1.00
O555   O     0.70625   0.43989   0.25000   0.00000  Uiso   1.00
O556   O     0.96042   0.56011   0.25000   0.00000  Uiso   1.00
O557   O     0.96039   0.43988   0.25001   0.00000  Uiso   1.00
O558   O     0.70628   0.56012   0.24999   0.00000  Uiso   1.00
O559   O     0.68519   0.50001   0.31491   0.00000  Uiso   1.00
O560   O     0.98148   0.49999   0.18509   0.00000  Uiso   1.00
O561   O     0.93933   0.50000   0.31492   0.00000  Uiso   1.00
O562   O     0.72733   0.50000   0.18508   0.00000  Uiso   1.00
O563   O     0.78475   0.47380   0.10965   0.00000  Uiso   1.00
C564   C     0.78053   0.43473   0.09146   0.00000  Uiso   1.00
H565   H     0.79986   0.43479   0.05493   0.00000  Uiso   1.00
H566   H     0.74192   0.42533   0.09741   0.00000  Uiso   1.00
H567   H     0.79763   0.41092   0.10831   0.00000  Uiso   1.00
O568   O     0.87324   0.49109   0.39134   0.00000  Uiso   1.00
C569   C     0.86594   0.44815   0.40279   0.00000  Uiso   1.00
H570   H     0.85584   0.44191   0.43975   0.00000  Uiso   1.00
H571   H     0.89855   0.43000   0.38561   0.00000  Uiso   1.00
H572   H     0.83545   0.43670   0.39167   0.00000  Uiso   1.00
O573   O     0.68068   0.50245   0.47759   0.00000  Uiso   1.00
C574   C     0.69079   0.46002   0.48299   0.00000  Uiso   1.00
H575   H     0.99108   0.44228   0.00238   0.00000  Uiso   1.00
H576   H     0.70706   0.44569   0.45003   0.00000  Uiso   1.00
H577   H     0.71766   0.45765   0.00227   0.00000  Uiso   1.00
O578   O     0.67261   0.57450   0.03100   0.00000  Uiso   1.00
C579   C     0.99503   0.61307   0.05199   0.00000  Uiso   1.00
H580   H     0.69499   0.62965   0.05406   0.00000  Uiso   1.00
H581   H     0.96868   0.60906   0.08589   0.00000  Uiso   1.00
H582   H     0.97777   0.63318   0.03154   0.00000  Uiso   1.00
O583   O     0.68576   0.37914   0.16932   0.00000  Uiso   1.00
C584   C     0.98128   0.37379   0.14951   0.00000  Uiso   1.00
H585   H     0.98726   0.39599   0.12040   0.00000  Uiso   1.00
H586   H     0.94527   0.38082   0.17324   0.00000  Uiso   1.00
H587   H     0.98118   0.34184   0.13671   0.00000  Uiso   1.00
O588   O     0.98114   0.62130   0.33147   0.00000  Uiso   1.00
C589   C     0.93078   0.61906   0.35255   0.00000  Uiso   1.00
H590   H     0.92426   0.60010   0.38414   0.00000  Uiso   1.00
H591   H     0.91144   0.60339   0.33114   0.00000  Uiso   1.00
H592   H     0.91547   0.65049   0.36155   0.00000  Uiso   1.00
O593   O     0.86552   0.44222   0.30173   0.00000  Uiso   1.00
C594   C     0.86536   0.40327   0.28158   0.00000  Uiso   1.00
H595   H     0.88217   0.40514   0.24453   0.00000  Uiso   1.00
H596   H     0.82824   0.38995   0.28905   0.00000  Uiso   1.00
H597   H     0.88683   0.38106   0.29582   0.00000  Uiso   1.00
O598   O     0.80807   0.53866   0.18051   0.00000  Uiso   1.00
C599   C     0.79621   0.58132   0.18318   0.00000  Uiso   1.00
H600   H     0.82108   0.59858   0.15431   0.00000  Uiso   1.00
H601   H     0.79670   0.59605   0.21508   0.00000  Uiso   1.00
H602   H     0.75996   0.58519   0.17816   0.00000  Uiso   1.00
O603   O     0.76505   0.44513   0.30369   0.00000  Uiso   1.00
C604   C     0.76223   0.44462   0.34962   0.00000  Uiso   1.00
H605   H     0.72374   0.43968   0.36905   0.00000  Uiso   1.00
H606   H     0.77541   0.47388   0.36088   0.00000  Uiso   1.00
H607   H     0.78164   0.41719   0.35772   0.00000  Uiso   1.00
O608   O     0.90250   0.54437   0.18490   0.00000  Uiso   1.00
C609   C     0.90456   0.58753   0.19194   0.00000  Uiso   1.00
H610   H     0.94305   0.59693   0.18445   0.00000  Uiso   1.00
H611   H     0.88508   0.59730   0.22657   0.00000  Uiso   1.00
H612   H     0.89127   0.60529   0.16707   0.00000  Uiso   1.00
C613   C     0.33314   0.75422   0.25039   0.00000  Uiso   1.00
C614   C     0.00006   0.91244   0.25009   0.00000  Uiso   1.00
C615   C     0.19918   0.84697   0.04978   0.00000  Uiso   1.00
C616   C     0.14828   0.87689   0.45760   0.00000  Uiso   1.00
C617   C     0.24817   0.84406   0.02656   0.00000  Uiso   1.00
C618   C     0.10154   0.88788   0.48176   0.00000  Uiso   1.00
C619   C     0.00842   0.68946   0.20933   0.00000  Uiso   1.00
C620   C     0.32249   0.97726   0.29146   0.00000  Uiso   1.00
C621   C     0.01016   0.97944   0.20969   0.00000  Uiso   1.00
C622   C     0.32361   0.68728   0.29096   0.00000  Uiso   1.00
C623   C     0.00003   0.95704   0.25050   0.00000  Uiso   1.00
C624   C     0.33304   0.70963   0.25014   0.00000  Uiso   1.00
C625   C     0.18265   0.80585   0.27728   0.00000  Uiso   1.00
C626   C     0.15174   0.85709   0.21886   0.00000  Uiso   1.00
C627   C     0.13207   0.80742   0.27893   0.00000  Uiso   1.00
C628   C     0.20111   0.85807   0.21987   0.00000  Uiso   1.00
C629   C     0.30571   0.83396   0.33616   0.00000  Uiso   1.00
C630   C     0.02778   0.83498   0.16404   0.00000  Uiso   1.00
C631   C     0.29076   0.83740   0.38553   0.00000  Uiso   1.00
C632   C     0.04464   0.84486   0.11565   0.00000  Uiso   1.00
C633   C     0.31216   0.83872   0.45560   0.00000  Uiso   1.00
C634   C     0.03497   0.88507   0.05139   0.00000  Uiso   1.00
C635   C     0.32583   0.83948   0.40870   0.00000  Uiso   1.00
C636   C     0.01593   0.86882   0.09529   0.00000  Uiso   1.00
C637   C     0.24145   0.83869   0.41007   0.00000  Uiso   1.00
C638   C     0.09276   0.83609   0.09169   0.00000  Uiso   1.00
C639   C     0.22812   0.84818   0.45595   0.00000  Uiso   1.00
C640   C     0.11381   0.85524   0.04906   0.00000  Uiso   1.00
C641   C     0.26311   0.84387   0.47958   0.00000  Uiso   1.00
C642   C     0.08327   0.87632   0.02733   0.00000  Uiso   1.00
C643   C     0.17990   0.85835   0.47948   0.00000  Uiso   1.00
C644   C     0.16406   0.85259   0.02659   0.00000  Uiso   1.00
Cu645  Cu    0.04689   0.83334   0.25000   0.00000  Uiso   1.00
Cu646  Cu    0.28645   0.83333   0.25000   0.00000  Uiso   1.00
H647   H     0.27406   0.84081   0.04562   0.00000  Uiso   1.00
H648   H     0.07912   0.90391   0.46413   0.00000  Uiso   1.00
H649   H     0.31220   0.87550   0.11366   0.00000  Uiso   1.00
H650   H     0.03066   0.83988   0.39076   0.00000  Uiso   1.00
H651   H     0.18970   0.84750   0.08598   0.00000  Uiso   1.00
H652   H     0.16049   0.88566   0.42227   0.00000  Uiso   1.00
H653   H     0.01946   0.96328   0.17831   0.00000  Uiso   1.00
H654   H     0.31688   0.70345   0.32222   0.00000  Uiso   1.00
N655   N     0.11736   0.83334   0.24999   0.00000  Uiso   1.00
N656   N     0.21597   0.83332   0.25001   0.00000  Uiso   1.00
O657   O     0.03958   0.77322   0.25000   0.00000  Uiso   1.00
O658   O     0.29375   0.89345   0.25000   0.00000  Uiso   1.00
O659   O     0.29372   0.77321   0.25001   0.00000  Uiso   1.00
O660   O     0.03961   0.89346   0.24999   0.00000  Uiso   1.00
O661   O     0.01852   0.83334   0.31491   0.00000  Uiso   1.00
O662   O     0.31481   0.83332   0.18509   0.00000  Uiso   1.00
O663   O     0.27267   0.83333   0.31492   0.00000  Uiso   1.00
O664   O     0.06067   0.83333   0.18508   0.00000  Uiso   1.00
O665   O     0.11808   0.80713   0.10965   0.00000  Uiso   1.00
C666   C     0.11387   0.76806   0.09146   0.00000  Uiso   1.00
H667   H     0.13319   0.76812   0.05493   0.00000  Uiso   1.00
H668   H     0.07526   0.75866   0.09741   0.00000  Uiso   1.00
H669   H     0.13097   0.74426   0.10831   0.00000  Uiso   1.00
O670   O     0.20658   0.82442   0.39134   0.00000  Uiso   1.00
C671   C     0.19928   0.78149   0.40279   0.00000  Uiso   1.00
H672   H     0.18917   0.77524   0.43975   0.00000  Uiso   1.00
H673   H     0.23188   0.76333   0.38561   0.00000  Uiso   1.00
H674   H     0.16878   0.77003   0.39167   0.00000  Uiso   1.00
O675   O     0.01401   0.83578   0.47759   0.00000  Uiso   1.00
C676   C     0.02412   0.79335   0.48299   0.00000  Uiso   1.00
H677   H     0.32441   0.77561   0.00238   0.00000  Uiso   1.00
H678   H     0.04040   0.77902   0.45003   0.00000  Uiso   1.00
H679   H     0.05099   0.79098   0.00227   0.00000  Uiso   1.00
O680   O     0.00594   0.90783   0.03100   0.00000  Uiso   1.00
C681   C     0.32836   0.94641   0.05199   0.00000  Uiso   1.00
H682   H     0.02832   0.96298   0.05406   0.00000  Uiso   1.00
H683   H     0.30202   0.94239   0.08589   0.00000  Uiso   1.00
H684   H     0.31111   0.96651   0.03154   0.00000  Uiso   1.00
O685   O     0.01909   0.71248   0.16932   0.00000  Uiso   1.00
C686   C     0.31461   0.70713   0.14951   0.00000  Uiso   1.00
H687   H     0.32060   0.72932   0.12040   0.00000  Uiso   1.00
H688   H     0.27861   0.71415   0.17324   0.00000  Uiso   1.00
H689   H     0.31451   0.67518   0.13671   0.00000  Uiso   1.00
O690   O     0.31448   0.95464   0.33147   0.00000  Uiso   1.00
C691   C     0.26411   0.95239   0.35255   0.00000  Uiso   1.00
H692   H     0.25759   0.93344   0.38414   0.00000  Uiso   1.00
H693   H     0.24477   0.93673   0.33114   0.00000  Uiso   1.00
H694   H     0.24880   0.98382   0.36155   0.00000  Uiso   1.00
O695   O     0.19885   0.77556   0.30173   0.00000  Uiso   1.00
C696   C     0.19869   0.73661   0.28158   0.00000  Uiso   1.00
H697   H     0.21550   0.73847   0.24453   0.00000  Uiso   1.00
H698   H     0.16157   0.72329   0.28905   0.00000  Uiso   1.00
H699   H     0.22016   0.71439   0.29582   0.00000  Uiso   1.00
O700   O     0.14140   0.87200   0.18051   0.00000  Uiso   1.00
C701   C     0.12955   0.91465   0.18318   0.00000  Uiso   1.00
H702   H     0.15441   0.93191   0.15431   0.00000  Uiso   1.00
H703   H     0.13004   0.92938   0.21508   0.00000  Uiso   1.00
H704   H     0.09329   0.91852   0.17816   0.00000  Uiso   1.00
O705   O     0.09838   0.77847   0.30369   0.00000  Uiso   1.00
C706   C     0.09556   0.77795   0.34962   0.00000  Uiso   1.00
H707   H     0.05707   0.77301   0.36905   0.00000  Uiso   1.00
H708   H     0.10874   0.80721   0.36088   0.00000  Uiso   1.00
H709   H     0.11498   0.75052   0.35772   0.00000  Uiso   1.00
O710   O     0.23583   0.87770   0.18490   0.00000  Uiso   1.00
C711   C     0.23789   0.92086   0.19194   0.00000  Uiso   1.00
H712   H     0.27639   0.93026   0.18445   0.00000  Uiso   1.00
H713   H     0.21841   0.93064   0.22657   0.00000  Uiso   1.00
H714   H     0.22461   0.93862   0.16707   0.00000  Uiso   1.00
C715   C     0.66648   0.75422   0.25039   0.00000  Uiso   1.00
C716   C     0.33339   0.91244   0.25009   0.00000  Uiso   1.00
C717   C     0.53252   0.84697   0.04978   0.00000  Uiso   1.00
C718   C     0.48162   0.87689   0.45760   0.00000  Uiso   1.00
C719   C     0.58150   0.84406   0.02656   0.00000  Uiso   1.00
C720   C     0.43487   0.88788   0.48176   0.00000  Uiso   1.00
C721   C     0.34176   0.68946   0.20933   0.00000  Uiso   1.00
C722   C     0.65582   0.97726   0.29146   0.00000  Uiso   1.00
C723   C     0.34350   0.97944   0.20969   0.00000  Uiso   1.00
C724   C     0.65694   0.68728   0.29096   0.00000  Uiso   1.00
C725   C     0.33337   0.95704   0.25050   0.00000  Uiso   1.00
C726   C     0.66638   0.70963   0.25014   0.00000  Uiso   1.00
C727   C     0.51598   0.80585   0.27728   0.00000  Uiso   1.00
C728   C     0.48507   0.85709   0.21886   0.00000  Uiso   1.00
C729   C     0.46540   0.80742   0.27893   0.00000  Uiso   1.00
C730   C     0.53444   0.85807   0.21987   0.00000  Uiso   1.00
C731   C     0.63904   0.83396   0.33616   0.00000  Uiso   1.00
C732   C     0.36112   0.83498   0.16404   0.00000  Uiso   1.00
C733   C     0.62410   0.83740   0.38553   0.00000  Uiso   1.00
C734   C     0.37797   0.84486   0.11565   0.00000  Uiso   1.00
C735   C     0.64549   0.83872   0.45560   0.00000  Uiso   1.00
C736   C     0.36830   0.88507   0.05139   0.00000  Uiso   1.00
C737   C     0.65917   0.83948   0.40870   0.00000  Uiso   1.00
C738   C     0.34926   0.86882   0.09529   0.00000  Uiso   1.00
C739   C     0.57478   0.83869   0.41007   0.00000  Uiso   1.00
C740   C     0.42609   0.83609   0.09169   0.00000  Uiso   1.00
C741   C     0.56145   0.84818   0.45595   0.00000  Uiso   1.00
C742   C     0.44715   0.85524   0.04906   0.00000  Uiso   1.00
C743   C     0.59644   0.84387   0.47958   0.00000  Uiso   1.00
C744   C     0.41660   0.87632   0.02733   0.00000  Uiso   1.00
C745   C     0.51323   0.85835   0.47948   0.00000  Uiso   1.00
C746   C     0.49740   0.85259   0.02659   0.00000  Uiso   1.00
Cu747  Cu    0.38022   0.83334   0.25000   0.00000  Uiso   1.00
Cu748  Cu    0.61978   0.83333   0.25000   0.00000  Uiso   1.00
H749   H     0.60739   0.84081   0.04562   0.00000  Uiso   1.00
H750   H     0.41245   0.90391   0.46413   0.00000  Uiso   1.00
H751   H     0.64554   0.87550   0.11366   0.00000  Uiso   1.00
H752   H     0.36399   0.83988   0.39076   0.00000  Uiso   1.00
H753   H     0.52304   0.84750   0.08598   0.00000  Uiso   1.00
H754   H     0.49382   0.88566   0.42227   0.00000  Uiso   1.00
H755   H     0.35280   0.96328   0.17831   0.00000  Uiso   1.00
H756   H     0.65021   0.70345   0.32222   0.00000  Uiso   1.00
N757   N     0.45069   0.83334   0.24999   0.00000  Uiso   1.00
N758   N     0.54931   0.83332   0.25001   0.00000  Uiso   1.00
O759   O     0.37291   0.77322   0.25000   0.00000  Uiso   1.00
O760   O     0.62709   0.89345   0.25000   0.00000  Uiso   1.00
O761   O     0.62706   0.77321   0.25001   0.00000  Uiso   1.00
O762   O     0.37294   0.89346   0.24999   0.00000  Uiso   1.00
O763   O     0.35186   0.83334   0.31491   0.00000  Uiso   1.00
O764   O     0.64814   0.83332   0.18509   0.00000  Uiso   1.00
O765   O     0.60600   0.83333   0.31492   0.00000  Uiso   1.00
O766   O     0.39400   0.83333   0.18508   0.00000  Uiso   1.00
O767   O     0.45141   0.80713   0.10965   0.00000  Uiso   1.00
C768   C     0.44720   0.76806   0.09146   0.00000  Uiso   1.00
H769   H     0.46652   0.76812   0.05493   0.00000  Uiso   1.00
H770   H     0.40859   0.75866   0.09741   0.00000  Uiso   1.00
H771   H     0.46430   0.74426   0.10831   0.00000  Uiso   1.00
O772   O     0.53991   0.82442   0.39134   0.00000  Uiso   1.00
C773   C     0.53261   0.78149   0.40279   0.00000  Uiso   1.00
H774   H     0.52251   0.77524   0.43975   0.00000  Uiso   1.00
H775   H     0.56521   0.76333   0.38561   0.00000  Uiso   1.00
H776   H     0.50212   0.77003   0.39167   0.00000  Uiso   1.00
O777   O     0.34735   0.83578   0.47759   0.00000  Uiso   1.00
C778   C     0.35746   0.79335   0.48299   0.00000  Uiso   1.00
H779   H     0.65774   0.77561   0.00238   0.00000  Uiso   1.00
H780   H     0.37373   0.77902   0.45003   0.00000  Uiso   1.00
H781   H     0.38432   0.79098   0.00227   0.00000  Uiso   1.00
O782   O     0.33928   0.90783   0.03100   0.00000  Uiso   1.00
C783   C     0.66169   0.94641   0.05199   0.00000  Uiso   1.00
H784   H     0.36165   0.96298   0.05406   0.00000  Uiso   1.00
H785   H     0.63535   0.94239   0.08589   0.00000  Uiso   1.00
H786   H     0.64444   0.96651   0.03154   0.00000  Uiso   1.00
O787   O     0.35243   0.71248   0.16932   0.00000  Uiso   1.00
C788   C     0.64794   0.70713   0.14951   0.00000  Uiso   1.00
H789   H     0.65393   0.72932   0.12040   0.00000  Uiso   1.00
H790   H     0.61194   0.71415   0.17324   0.00000  Uiso   1.00
H791   H     0.64785   0.67518   0.13671   0.00000  Uiso   1.00
O792   O     0.64781   0.95464   0.33147   0.00000  Uiso   1.00
C793   C     0.59744   0.95239   0.35255   0.00000  Uiso   1.00
H794   H     0.59093   0.93344   0.38414   0.00000  Uiso   1.00
H795   H     0.57810   0.93673   0.33114   0.00000  Uiso   1.00
H796   H     0.58214   0.98382   0.36155   0.00000  Uiso   1.00
O797   O     0.53219   0.77556   0.30173   0.00000  Uiso   1.00
C798   C     0.53203   0.73661   0.28158   0.00000  Uiso   1.00
H799   H     0.54883   0.73847   0.24453   0.00000  Uiso   1.00
H800   H     0.49491   0.72329   0.28905   0.00000  Uiso   1.00
H801   H     0.55349   0.71439   0.29582   0.00000  Uiso   1.00
O802   O     0.47473   0.87200   0.18051   0.00000  Uiso   1.00
C803   C     0.46288   0.91465   0.18318   0.00000  Uiso   1.00
H804   H     0.48774   0.93191   0.15431   0.00000  Uiso   1.00
H805   H     0.46337   0.92938   0.21508   0.00000  Uiso   1.00
H806   H     0.42662   0.91852   0.17816   0.00000  Uiso   1.00
O807   O     0.43172   0.77847   0.30369   0.00000  Uiso   1.00
C808   C     0.42889   0.77795   0.34962   0.00000  Uiso   1.00
H809   H     0.39040   0.77301   0.36905   0.00000  Uiso   1.00
H810   H     0.44208   0.80721   0.36088   0.00000  Uiso   1.00
H811   H     0.44831   0.75052   0.35772   0.00000  Uiso   1.00
O812   O     0.56917   0.87770   0.18490   0.00000  Uiso   1.00
C813   C     0.57122   0.92086   0.19194   0.00000  Uiso   1.00
H814   H     0.60972   0.93026   0.18445   0.00000  Uiso   1.00
H815   H     0.55174   0.93064   0.22657   0.00000  Uiso   1.00
H816   H     0.55794   0.93862   0.16707   0.00000  Uiso   1.00
C817   C     0.99981   0.75422   0.25039   0.00000  Uiso   1.00
C818   C     0.66673   0.91244   0.25009   0.00000  Uiso   1.00
C819   C     0.86585   0.84697   0.04978   0.00000  Uiso   1.00
C820   C     0.81495   0.87689   0.45760   0.00000  Uiso   1.00
C821   C     0.91483   0.84406   0.02656   0.00000  Uiso   1.00
C822   C     0.76820   0.88788   0.48176   0.00000  Uiso   1.00
C823   C     0.67509   0.68946   0.20933   0.00000  Uiso   1.00
C824   C     0.98915   0.97726   0.29146   0.00000  Uiso   1.00
C825   C     0.67683   0.97944   0.20969   0.00000  Uiso   1.00
C826   C     0.99027   0.68728   0.29096   0.00000  Uiso   1.00
C827   C     0.66670   0.95704   0.25050   0.00000  Uiso   1.00
C828   C     0.99971   0.70963   0.25014   0.00000  Uiso   1.00
C829   C     0.84932   0.80585   0.27728   0.00000  Uiso   1.00
C830   C     0.81840   0.85709   0.21886   0.00000  Uiso   1.00
C831   C     0.79874   0.80742   0.27893   0.00000  Uiso   1.00
C832   C     0.86778   0.85807   0.21987   0.00000  Uiso   1.00
C833   C     0.97237   0.83396   0.33616   0.00000  Uiso   1.00
C834   C     0.69445   0.83498   0.16404   0.00000  Uiso   1.00
C835   C     0.95743   0.83740   0.38553   0.00000  Uiso   1.00
C836   C     0.71131   0.84486   0.11565   0.00000  Uiso   1.00
C837   C     0.97883   0.83872   0.45560   0.00000  Uiso   1.00
C838   C     0.70164   0.88507   0.05139   0.00000  Uiso   1.00
C839   C     0.99250   0.83948   0.40870   0.00000  Uiso   1.00
C840   C     0.68259   0.86882   0.09529   0.00000  Uiso   1.00
C841   C     0.90812   0.83869   0.41007   0.00000  Uiso   1.00
C842   C     0.75943   0.83609   0.09169   0.00000  Uiso   1.00
C843   C     0.89478   0.84818   0.45595   0.00000  Uiso   1.00
C844   C     0.78048   0.85524   0.04906   0.00000  Uiso   1.00
C845   C     0.92977   0.84387   0.47958   0.00000  Uiso   1.00
C846   C     0.74993   0.87632   0.02733   0.00000  Uiso   1.00
C847   C     0.84657   0.85835   0.47948   0.00000  Uiso   1.00
C848   C     0.83073   0.85259   0.02659   0.00000  Uiso   1.00
Cu849  Cu    0.71355   0.83334   0.25000   0.00000  Uiso   1.00
Cu850  Cu    0.95311   0.83333   0.25000   0.00000  Uiso   1.00
H851   H     0.94073   0.84081   0.04562   0.00000  Uiso   1.00
H852   H     0.74579   0.90391   0.46413   0.00000  Uiso   1.00
H853   H     0.97887   0.87550   0.11366   0.00000  Uiso   1.00
H854   H     0.69733   0.83988   0.39076   0.00000  Uiso   1.00
H855   H     0.85637   0.84750   0.08598   0.00000  Uiso   1.00
H856   H     0.82715   0.88566   0.42227   0.00000  Uiso   1.00
H857   H     0.68613   0.96328   0.17831   0.00000  Uiso   1.00
H858   H     0.98355   0.70345   0.32222   0.00000  Uiso   1.00
N859   N     0.78403   0.83334   0.24999   0.00000  Uiso   1.00
N860   N     0.88264   0.83332   0.25001   0.00000  Uiso   1.00
O861   O     0.70625   0.77322   0.25000   0.00000  Uiso   1.00
O862   O     0.96042   0.89345   0.25000   0.00000  Uiso   1.00
O863   O     0.96039   0.77321   0.25001   0.00000  Uiso   1.00
O864   O     0.70628   0.89346   0.24999   0.00000  Uiso   1.00
O865   O     0.68519   0.83334   0.31491   0.00000  Uiso   1.00
O866   O     0.98148   0.83332   0.18509   0.00000  Uiso   1.00
O867   O     0.93933   0.83333   0.31492   0.00000  Uiso   1.00
O868   O     0.72733   0.83333   0.18508   0.00000  Uiso   1.00
O869   O     0.78475   0.80713   0.10965   0.00000  Uiso   1.00
C870   C     0.78053   0.76806   0.09146   0.00000  Uiso   1.00
H871   H     0.79986   0.76812   0.05493   0.00000  Uiso   1.00
H872   H     0.74192   0.75866   0.09741   0.00000  Uiso   1.00
H873   H     0.79763   0.74426   0.10831   0.00000  Uiso   1.00
O874   O     0.87324   0.82442   0.39134   0.00000  Uiso   1.00
C875   C     0.86594   0.78149   0.40279   0.00000  Uiso   1.00
H876   H     0.85584   0.77524   0.43975   0.00000  Uiso   1.00
H877   H     0.89855   0.76333   0.38561   0.00000  Uiso   1.00
H878   H     0.83545   0.77003   0.39167   0.00000  Uiso   1.00
O879   O     0.68068   0.83578   0.47759   0.00000  Uiso   1.00
C880   C     0.69079   0.79335   0.48299   0.00000  Uiso   1.00
H881   H     0.99108   0.77561   0.00238   0.00000  Uiso   1.00
H882   H     0.70706   0.77902   0.45003   0.00000  Uiso   1.00
H883   H     0.71766   0.79098   0.00227   0.00000  Uiso   1.00
O884   O     0.67261   0.90783   0.03100   0.00000  Uiso   1.00
C885   C     0.99503   0.94641   0.05199   0.00000  Uiso   1.00
H886   H     0.69499   0.96298   0.05406   0.00000  Uiso   1.00
H887   H     0.96868   0.94239   0.08589   0.00000  Uiso   1.00
H888   H     0.97777   0.96651   0.03154   0.00000  Uiso   1.00
O889   O     0.68576   0.71248   0.16932   0.00000  Uiso   1.00
C890   C     0.98128   0.70713   0.14951   0.00000  Uiso   1.00
H891   H     0.98726   0.72932   0.12040   0.00000  Uiso   1.00
H892   H     0.94527   0.71415   0.17324   0.00000  Uiso   1.00
H893   H     0.98118   0.67518   0.13671   0.00000  Uiso   1.00
O894   O     0.98114   0.95464   0.33147   0.00000  Uiso   1.00
C895   C     0.93078   0.95239   0.35255   0.00000  Uiso   1.00
H896   H     0.92426   0.93344   0.38414   0.00000  Uiso   1.00
H897   H     0.91144   0.93673   0.33114   0.00000  Uiso   1.00
H898   H     0.91547   0.98382   0.36155   0.00000  Uiso   1.00
O899   O     0.86552   0.77556   0.30173   0.00000  Uiso   1.00
C900   C     0.86536   0.73661   0.28158   0.00000  Uiso   1.00
H901   H     0.88217   0.73847   0.24453   0.00000  Uiso   1.00
H902   H     0.82824   0.72329   0.28905   0.00000  Uiso   1.00
H903   H     0.88683   0.71439   0.29582   0.00000  Uiso   1.00
O904   O     0.80807   0.87200   0.18051   0.00000  Uiso   1.00
C905   C     0.79621   0.91465   0.18318   0.00000  Uiso   1.00
H906   H     0.82108   0.93191   0.15431   0.00000  Uiso   1.00
H907   H     0.79670   0.92938   0.21508   0.00000  Uiso   1.00
H908   H     0.75996   0.91852   0.17816   0.00000  Uiso   1.00
O909   O     0.76505   0.77847   0.30369   0.00000  Uiso   1.00
C910   C     0.76223   0.77795   0.34962   0.00000  Uiso   1.00
H911   H     0.72374   0.77301   0.36905   0.00000  Uiso   1.00
H912   H     0.77541   0.80721   0.36088   0.00000  Uiso   1.00
H913   H     0.78164   0.75052   0.35772   0.00000  Uiso   1.00
O914   O     0.90250   0.87770   0.18490   0.00000  Uiso   1.00
C915   C     0.90456   0.92086   0.19194   0.00000  Uiso   1.00
H916   H     0.94305   0.93026   0.18445   0.00000  Uiso   1.00
H917   H     0.88508   0.93064   0.22657   0.00000  Uiso   1.00
H918   H     0.89127   0.93862   0.16707   0.00000  Uiso   1.00
C919   C     0.33314   0.08756   0.75039   0.00000  Uiso   1.00
C920   C     0.00006   0.24578   0.75009   0.00000  Uiso   1.00
C921   C     0.19918   0.18031   0.54978   0.00000  Uiso   1.00
C922   C     0.14828   0.21023   0.95760   0.00000  Uiso   1.00
C923   C     0.24817   0.17740   0.52656   0.00000  Uiso   1.00
C924   C     0.10154   0.22122   0.98176   0.00000  Uiso   1.00
C925   C     0.00842   0.02279   0.70933   0.00000  Uiso   1.00
C926   C     0.32249   0.31059   0.79146   0.00000  Uiso   1.00
C927   C     0.01016   0.31277   0.70969   0.00000  Uiso   1.00
C928   C     0.32361   0.02061   0.79096   0.00000  Uiso   1.00
C929   C     0.00003   0.29038   0.75050   0.00000  Uiso   1.00
C930   C     0.33304   0.04297   0.75014   0.00000  Uiso   1.00
C931   C     0.18265   0.13919   0.77728   0.00000  Uiso   1.00
C932   C     0.15174   0.19043   0.71886   0.00000  Uiso   1.00
C933   C     0.13207   0.14075   0.77893   0.00000  Uiso   1.00
C934   C     0.20111   0.19140   0.71987   0.00000  Uiso   1.00
C935   C     0.30571   0.16729   0.83616   0.00000  Uiso   1.00
C936   C     0.02778   0.16831   0.66404   0.00000  Uiso   1.00
C937   C     0.29076   0.17073   0.88553   0.00000  Uiso   1.00
C938   C     0.04464   0.17820   0.61565   0.00000  Uiso   1.00
C939   C     0.31216   0.17205   0.95560   0.00000  Uiso   1.00
C940   C     0.03497   0.21841   0.55139   0.00000  Uiso   1.00
C941   C     0.32583   0.17281   0.90870   0.00000  Uiso   1.00
C942   C     0.01593   0.20215   0.59529   0.00000  Uiso   1.00
C943   C     0.24145   0.17202   0.91007   0.00000  Uiso   1.00
C944   C     0.09276   0.16942   0.59169   0.00000  Uiso   1.00
C945   C     0.22812   0.18152   0.95595   0.00000  Uiso   1.00
C946   C     0.11381   0.18857   0.54906   0.00000  Uiso   1.00
C947   C     0.26311   0.17720   0.97958   0.00000  Uiso   1.00
C948   C     0.08327   0.20966   0.52733   0.00000  Uiso   1.00
C949   C     0.17990   0.19168   0.97948   0.00000  Uiso   1.00
C950   C     0.16406   0.18592   0.52659   0.00000  Uiso   1.00
Cu951  Cu    0.04689   0.16667   0.75000   0.00000  Uiso   1.00
Cu952  Cu    0.28645   0.16666   0.75000   0.00000  Uiso   1.00
H953   H     0.27406   0.17415   0.54562   0.00000  Uiso   1.00
H954   H     0.07912   0.23724   0.96413   0.00000  Uiso   1.00
H955   H     0.31220   0.20883   0.61366   0.00000  Uiso   1.00
H956   H     0.03066   0.17321   0.89076   0.00000  Uiso   1.00
H957   H     0.18970   0.18083   0.58598   0.00000  Uiso   1.00
H958   H     0.16049   0.21899   0.92227   0.00000  Uiso   1.00
H959   H     0.01946   0.29662   0.67831   0.00000  Uiso   1.00
H960   H     0.31688   0.03678   0.82222   0.00000  Uiso   1.00
N961   N     0.11736   0.16668   0.74999   0.00000  Uiso   1.00
N962   N     0.21597   0.16666   0.75001   0.00000  Uiso   1.00
O963   O     0.03958   0.10655   0.75000   0.00000  Uiso   1.00
O964   O     0.29375   0.22678   0.75000   0.00000  Uiso   1.00
O965   O     0.29372   0.10654   0.75001   0.00000  Uiso   1.00
O966   O     0.03961   0.22679   0.74999   0.00000  Uiso   1.00
O967   O     0.01852   0.16668   0.81491   0.00000  Uiso   1.00
O968   O     0.31481   0.16666   0.68509   0.00000  Uiso   1.00
O969   O     0.27267   0.16667   0.81492   0.00000  Uiso   1.00
O970   O     0.06067   0.16667   0.68508   0.00000  Uiso   1.00
O971   O     0.11808   0.14047   0.60965   0.00000  Uiso   1.00
C972   C     0.11387   0.10140   0.59146   0.00000  Uiso   1.00
H973   H     0.13319   0.10146   0.55493   0.00000  Uiso   1.00
H974   H     0.07526   0.09200   0.59741   0.00000  Uiso   1.00
H975   H     0.13097   0.07759   0.60831   0.00000  Uiso   1.00
O976   O     0.20658   0.15775   0.89134   0.00000  Uiso   1.00
C977   C     0.19928   0.11482   0.90279   0.00000  Uiso   1.00
H978   H     0.18917   0.10858   0.93975   0.00000  Uiso   1.00
H979   H     0.23188   0.09666   0.88561   0.00000  Uiso   1.00
H980   H     0.16878   0.10337   0.89167   0.00000  Uiso   1.00
O981   O     0.01401   0.16911   0.97759   0.00000  Uiso   1.00
C982   C     0.02412   0.12668   0.98299   0.00000  Uiso   1.00
H983   H     0.32441   0.10895   0.50238   0.00000  Uiso   1.00
H984   H     0.04040   0.11236   0.95003   0.00000  Uiso   1.00
H985   H     0.05099   0.12432   0.50227   0.00000  Uiso   1.00
O986   O     0.00594   0.24117   0.53100   0.00000  Uiso   1.00
C987   C     0.32836   0.27974   0.55199   0.00000  Uiso   1.00
H988   H     0.02832   0.29631   0.55406   0.00000  Uiso   1.00
H989   H     0.30202   0.27572   0.58589   0.00000  Uiso   1.00
H990   H     0.31111   0.29985   0.53154   0.00000  Uiso   1.00
O991   O     0.01909   0.04581   0.66932   0.00000  Uiso   1.00
C992   C     0.31461   0.04046   0.64951   0.00000  Uiso   1.00
H993   H     0.32060   0.06266   0.62040   0.00000  Uiso   1.00
H994   H     0.27861   0.04749   0.67324   0.00000  Uiso   1.00
H995   H     0.31451   0.00851   0.63671   0.00000  Uiso   1.00
O996   O     0.31448   0.28797   0.83147   0.00000  Uiso   1.00
C997   C     0.26411   0.28572   0.85255   0.00000  Uiso   1.00
H998   H     0.25759   0.26677   0.88414   0.00000  Uiso   1.00
H999   H     0.24477   0.27006   0.83114   0.00000  Uiso   1.00
H1000  H     0.24880   0.31715   0.86155   0.00000  Uiso   1.00
O1001  O     0.19885   0.10889   0.80173   0.00000  Uiso   1.00
C1002  C     0.19869   0.06994   0.78158   0.00000  Uiso   1.00
H1003  H     0.21550   0.07180   0.74453   0.00000  Uiso   1.00
H1004  H     0.16157   0.05662   0.78905   0.00000  Uiso   1.00
H1005  H     0.22016   0.04772   0.79582   0.00000  Uiso   1.00
O1006  O     0.14140   0.20533   0.68051   0.00000  Uiso   1.00
C1007  C     0.12955   0.24798   0.68318   0.00000  Uiso   1.00
H1008  H     0.15441   0.26525   0.65431   0.00000  Uiso   1.00
H1009  H     0.13004   0.26271   0.71508   0.00000  Uiso   1.00
H1010  H     0.09329   0.25186   0.67816   0.00000  Uiso   1.00
O1011  O     0.09838   0.11180   0.80369   0.00000  Uiso   1.00
C1012  C     0.09556   0.11128   0.84962   0.00000  Uiso   1.00
H1013  H     0.05707   0.10635   0.86905   0.00000  Uiso   1.00
H1014  H     0.10874   0.14055   0.86088   0.00000  Uiso   1.00
H1015  H     0.11498   0.08386   0.85772   0.00000  Uiso   1.00
O1016  O     0.23583   0.21104   0.68490   0.00000  Uiso   1.00
C1017  C     0.23789   0.25419   0.69194   0.00000  Uiso   1.00
H1018  H     0.27639   0.26360   0.68445   0.00000  Uiso   1.00
H1019  H     0.21841   0.26397   0.72657   0.00000  Uiso   1.00
H1020  H     0.22461   0.27196   0.66707   0.00000  Uiso   1.00
C1021  C     0.66648   0.08756   0.75039   0.00000  Uiso   1.00
C1022  C     0.33339   0.24578   0.75009   0.00000  Uiso   1.00
C1023  C     0.53252   0.18031   0.54978   0.00000  Uiso   1.00
C1024  C     0.48162   0.21023   0.95760   0.00000  Uiso   1.00
C1025  C     0.58150   0.17740   0.52656   0.00000  Uiso   1.00
C1026  C     0.43487   0.22122   0.98176   0.00000  Uiso   1.00
C1027  C     0.34176   0.02279   0.70933   0.00000  Uiso   1.00
C1028  C     0.65582   0.31059   0.79146   0.00000  Uiso   1.00
C1029  C     0.34350   0.31277   0.70969   0.00000  Uiso   1.00
C1030  C     0.65694   0.02061   0.79096   0.00000  Uiso   1.00
C1031  C     0.33337   0.29038   0.75050   0.00000  Uiso   1.00
C1032  C     0.66638   0.04297   0.75014   0.00000  Uiso   1.00
C1033  C     0.51598   0.13919   0.77728   0.00000  Uiso   1.00
C1034  C     0.48507   0.19043   0.71886   0.00000  Uiso   1.00
C1035  C     0.46540   0.14075   0.77893   0.00000  Uiso   1.00
C1036  C     0.53444   0.19140   0.71987   0.00000  Uiso   1.00
C1037  C     0.63904   0.16729   0.83616   0.00000  Uiso   1.00
C1038  C     0.36112   0.16831   0.66404   0.00000  Uiso   1.00
C1039  C     0.62410   0.17073   0.88553   0.00000  Uiso   1.00
C1040  C     0.37797   0.17820   0.61565   0.00000  Uiso   1.00
C1041  C     0.64549   0.17205   0.95560   0.00000  Uiso   1.00
C1042  C     0.36830   0.21841   0.55139   0.00000  Uiso   1.00
C1043  C     0.65917   0.17281   0.90870   0.00000  Uiso   1.00
C1044  C     0.34926   0.20215   0.59529   0.00000  Uiso   1.00
C1045  C     0.57478   0.17202   0.91007   0.00000  Uiso   1.00
C1046  C     0.42609   0.16942   0.59169   0.00000  Uiso   1.00
C1047  C     0.56145   0.18152   0.95595   0.00000  Uiso   1.00
C1048  C     0.44715   0.18857   0.54906   0.00000  Uiso   1.00
C1049  C     0.59644   0.17720   0.97958   0.00000  Uiso   1.00
C1050  C     0.41660   0.20966   0.52733   0.00000  Uiso   1.00
C1051  C     0.51323   0.19168   0.97948   0.00000  Uiso   1.00
C1052  C     0.49740   0.18592   0.52659   0.00000  Uiso   1.00
Cu1053 Cu    0.38022   0.16667   0.75000   0.00000  Uiso   1.00
Cu1054 Cu    0.61978   0.16666   0.75000   0.00000  Uiso   1.00
H1055  H     0.60739   0.17415   0.54562   0.00000  Uiso   1.00
H1056  H     0.41245   0.23724   0.96413   0.00000  Uiso   1.00
H1057  H     0.64554   0.20883   0.61366   0.00000  Uiso   1.00
H1058  H     0.36399   0.17321   0.89076   0.00000  Uiso   1.00
H1059  H     0.52304   0.18083   0.58598   0.00000  Uiso   1.00
H1060  H     0.49382   0.21899   0.92227   0.00000  Uiso   1.00
H1061  H     0.35280   0.29662   0.67831   0.00000  Uiso   1.00
H1062  H     0.65021   0.03678   0.82222   0.00000  Uiso   1.00
N1063  N     0.45069   0.16668   0.74999   0.00000  Uiso   1.00
N1064  N     0.54931   0.16666   0.75001   0.00000  Uiso   1.00
O1065  O     0.37291   0.10655   0.75000   0.00000  Uiso   1.00
O1066  O     0.62709   0.22678   0.75000   0.00000  Uiso   1.00
O1067  O     0.62706   0.10654   0.75001   0.00000  Uiso   1.00
O1068  O     0.37294   0.22679   0.74999   0.00000  Uiso   1.00
O1069  O     0.35186   0.16668   0.81491   0.00000  Uiso   1.00
O1070  O     0.64814   0.16666   0.68509   0.00000  Uiso   1.00
O1071  O     0.60600   0.16667   0.81492   0.00000  Uiso   1.00
O1072  O     0.39400   0.16667   0.68508   0.00000  Uiso   1.00
O1073  O     0.45141   0.14047   0.60965   0.00000  Uiso   1.00
C1074  C     0.44720   0.10140   0.59146   0.00000  Uiso   1.00
H1075  H     0.46652   0.10146   0.55493   0.00000  Uiso   1.00
H1076  H     0.40859   0.09200   0.59741   0.00000  Uiso   1.00
H1077  H     0.46430   0.07759   0.60831   0.00000  Uiso   1.00
O1078  O     0.53991   0.15775   0.89134   0.00000  Uiso   1.00
C1079  C     0.53261   0.11482   0.90279   0.00000  Uiso   1.00
H1080  H     0.52251   0.10858   0.93975   0.00000  Uiso   1.00
H1081  H     0.56521   0.09666   0.88561   0.00000  Uiso   1.00
H1082  H     0.50212   0.10337   0.89167   0.00000  Uiso   1.00
O1083  O     0.34735   0.16911   0.97759   0.00000  Uiso   1.00
C1084  C     0.35746   0.12668   0.98299   0.00000  Uiso   1.00
H1085  H     0.65774   0.10895   0.50238   0.00000  Uiso   1.00
H1086  H     0.37373   0.11236   0.95003   0.00000  Uiso   1.00
H1087  H     0.38432   0.12432   0.50227   0.00000  Uiso   1.00
O1088  O     0.33928   0.24117   0.53100   0.00000  Uiso   1.00
C1089  C     0.66169   0.27974   0.55199   0.00000  Uiso   1.00
H1090  H     0.36165   0.29631   0.55406   0.00000  Uiso   1.00
H1091  H     0.63535   0.27572   0.58589   0.00000  Uiso   1.00
H1092  H     0.64444   0.29985   0.53154   0.00000  Uiso   1.00
O1093  O     0.35243   0.04581   0.66932   0.00000  Uiso   1.00
C1094  C     0.64794   0.04046   0.64951   0.00000  Uiso   1.00
H1095  H     0.65393   0.06266   0.62040   0.00000  Uiso   1.00
H1096  H     0.61194   0.04749   0.67324   0.00000  Uiso   1.00
H1097  H     0.64785   0.00851   0.63671   0.00000  Uiso   1.00
O1098  O     0.64781   0.28797   0.83147   0.00000  Uiso   1.00
C1099  C     0.59744   0.28572   0.85255   0.00000  Uiso   1.00
H1100  H     0.59093   0.26677   0.88414   0.00000  Uiso   1.00
H1101  H     0.57810   0.27006   0.83114   0.00000  Uiso   1.00
H1102  H     0.58214   0.31715   0.86155   0.00000  Uiso   1.00
O1103  O     0.53219   0.10889   0.80173   0.00000  Uiso   1.00
C1104  C     0.53203   0.06994   0.78158   0.00000  Uiso   1.00
H1105  H     0.54883   0.07180   0.74453   0.00000  Uiso   1.00
H1106  H     0.49491   0.05662   0.78905   0.00000  Uiso   1.00
H1107  H     0.55349   0.04772   0.79582   0.00000  Uiso   1.00
O1108  O     0.47473   0.20533   0.68051   0.00000  Uiso   1.00
C1109  C     0.46288   0.24798   0.68318   0.00000  Uiso   1.00
H1110  H     0.48774   0.26525   0.65431   0.00000  Uiso   1.00
H1111  H     0.46337   0.26271   0.71508   0.00000  Uiso   1.00
H1112  H     0.42662   0.25186   0.67816   0.00000  Uiso   1.00
O1113  O     0.43172   0.11180   0.80369   0.00000  Uiso   1.00
C1114  C     0.42889   0.11128   0.84962   0.00000  Uiso   1.00
H1115  H     0.39040   0.10635   0.86905   0.00000  Uiso   1.00
H1116  H     0.44208   0.14055   0.86088   0.00000  Uiso   1.00
H1117  H     0.44831   0.08386   0.85772   0.00000  Uiso   1.00
O1118  O     0.56917   0.21104   0.68490   0.00000  Uiso   1.00
C1119  C     0.57122   0.25419   0.69194   0.00000  Uiso   1.00
H1120  H     0.60972   0.26360   0.68445   0.00000  Uiso   1.00
H1121  H     0.55174   0.26397   0.72657   0.00000  Uiso   1.00
H1122  H     0.55794   0.27196   0.66707   0.00000  Uiso   1.00
C1123  C     0.99981   0.08756   0.75039   0.00000  Uiso   1.00
C1124  C     0.66673   0.24578   0.75009   0.00000  Uiso   1.00
C1125  C     0.86585   0.18031   0.54978   0.00000  Uiso   1.00
C1126  C     0.81495   0.21023   0.95760   0.00000  Uiso   1.00
C1127  C     0.91483   0.17740   0.52656   0.00000  Uiso   1.00
C1128  C     0.76820   0.22122   0.98176   0.00000  Uiso   1.00
C1129  C     0.67509   0.02279   0.70933   0.00000  Uiso   1.00
C1130  C     0.98915   0.31059   0.79146   0.00000  Uiso   1.00
C1131  C     0.67683   0.31277   0.70969   0.00000  Uiso   1.00
C1132  C     0.99027   0.02061   0.79096   0.00000  Uiso   1.00
C1133  C     0.66670   0.29038   0.75050   0.00000  Uiso   1.00
C1134  C     0.99971   0.04297   0.75014   0.00000  Uiso   1.00
C1135  C     0.84932   0.13919   0.77728   0.00000  Uiso   1.00
C1136  C     0.81840   0.19043   0.71886   0.00000  Uiso   1.00
C1137  C     0.79874   0.14075   0.77893   0.00000  Uiso   1.00
C1138  C     0.86778   0.19140   0.71987   0.00000  Uiso   1.00
C1139  C     0.97237   0.16729   0.83616   0.00000  Uiso   1.00
C1140  C     0.69445   0.16831   0.66404   0.00000  Uiso   1.00
C1141  C     0.95743   0.17073   0.88553   0.00000  Uiso   1.00
C1142  C     0.71131   0.17820   0.61565   0.00000  Uiso   1.00
C1143  C     0.97883   0.17205   0.95560   0.00000  Uiso   1.00
C1144  C     0.70164   0.21841   0.55139   0.00000  Uiso   1.00
C1145  C     0.99250   0.17281   0.90870   0.00000  Uiso   1.00
C1146  C     0.68259   0.20215   0.59529   0.00000  Uiso   1.00
C1147  C     0.90812   0.17202   0.91007   0.00000  Uiso   1.00
C1148  C     0.75943   0.16942   0.59169   0.00000  Uiso   1.00
C1149  C     0.89478   0.18152   0.95595   0.00000  Uiso   1.00
C1150  C     0.78048   0.18857   0.54906   0.00000  Uiso   1.00
C1151  C     0.92977   0.17720   0.97958   0.00000  Uiso   1.00
C1152  C     0.74993   0.20966   0.52733   0.00000  Uiso   1.00
C1153  C     0.84657   0.19168   0.97948   0.00000  Uiso   1.00
C1154  C     0.83073   0.18592   0.52659   0.00000  Uiso   1.00
Cu1155 Cu    0.71355   0.16667   0.75000   0.00000  Uiso   1.00
Cu1156 Cu    0.95311   0.16666   0.75000   0.00000  Uiso   1.00
H1157  H     0.94073   0.17415   0.54562   0.00000  Uiso   1.00
H1158  H     0.74579   0.23724   0.96413   0.00000  Uiso   1.00
H1159  H     0.97887   0.20883   0.61366   0.00000  Uiso   1.00
H1160  H     0.69733   0.17321   0.89076   0.00000  Uiso   1.00
H1161  H     0.85637   0.18083   0.58598   0.00000  Uiso   1.00
H1162  H     0.82715   0.21899   0.92227   0.00000  Uiso   1.00
H1163  H     0.68613   0.29662   0.67831   0.00000  Uiso   1.00
H1164  H     0.98355   0.03678   0.82222   0.00000  Uiso   1.00
N1165  N     0.78403   0.16668   0.74999   0.00000  Uiso   1.00
N1166  N     0.88264   0.16666   0.75001   0.00000  Uiso   1.00
O1167  O     0.70625   0.10655   0.75000   0.00000  Uiso   1.00
O1168  O     0.96042   0.22678   0.75000   0.00000  Uiso   1.00
O1169  O     0.96039   0.10654   0.75001   0.00000  Uiso   1.00
O1170  O     0.70628   0.22679   0.74999   0.00000  Uiso   1.00
O1171  O     0.68519   0.16668   0.81491   0.00000  Uiso   1.00
O1172  O     0.98148   0.16666   0.68509   0.00000  Uiso   1.00
O1173  O     0.93933   0.16667   0.81492   0.00000  Uiso   1.00
O1174  O     0.72733   0.16667   0.68508   0.00000  Uiso   1.00
O1175  O     0.78475   0.14047   0.60965   0.00000  Uiso   1.00
C1176  C     0.78053   0.10140   0.59146   0.00000  Uiso   1.00
H1177  H     0.79986   0.10146   0.55493   0.00000  Uiso   1.00
H1178  H     0.74192   0.09200   0.59741   0.00000  Uiso   1.00
H1179  H     0.79763   0.07759   0.60831   0.00000  Uiso   1.00
O1180  O     0.87324   0.15775   0.89134   0.00000  Uiso   1.00
C1181  C     0.86594   0.11482   0.90279   0.00000  Uiso   1.00
H1182  H     0.85584   0.10858   0.93975   0.00000  Uiso   1.00
H1183  H     0.89855   0.09666   0.88561   0.00000  Uiso   1.00
H1184  H     0.83545   0.10337   0.89167   0.00000  Uiso   1.00
O1185  O     0.68068   0.16911   0.97759   0.00000  Uiso   1.00
C1186  C     0.69079   0.12668   0.98299   0.00000  Uiso   1.00
H1187  H     0.99108   0.10895   0.50238   0.00000  Uiso   1.00
H1188  H     0.70706   0.11236   0.95003   0.00000  Uiso   1.00
H1189  H     0.71766   0.12432   0.50227   0.00000  Uiso   1.00
O1190  O     0.67261   0.24117   0.53100   0.00000  Uiso   1.00
C1191  C     0.99503   0.27974   0.55199   0.00000  Uiso   1.00
H1192  H     0.69499   0.29631   0.55406   0.00000  Uiso   1.00
H1193  H     0.96868   0.27572   0.58589   0.00000  Uiso   1.00
H1194  H     0.97777   0.29985   0.53154   0.00000  Uiso   1.00
O1195  O     0.68576   0.04581   0.66932   0.00000  Uiso   1.00
C1196  C     0.98128   0.04046   0.64951   0.00000  Uiso   1.00
H1197  H     0.98726   0.06266   0.62040   0.00000  Uiso   1.00
H1198  H     0.94527   0.04749   0.67324   0.00000  Uiso   1.00
H1199  H     0.98118   0.00851   0.63671   0.00000  Uiso   1.00
O1200  O     0.98114   0.28797   0.83147   0.00000  Uiso   1.00
C1201  C     0.93078   0.28572   0.85255   0.00000  Uiso   1.00
H1202  H     0.92426   0.26677   0.88414   0.00000  Uiso   1.00
H1203  H     0.91144   0.27006   0.83114   0.00000  Uiso   1.00
H1204  H     0.91547   0.31715   0.86155   0.00000  Uiso   1.00
O1205  O     0.86552   0.10889   0.80173   0.00000  Uiso   1.00
C1206  C     0.86536   0.06994   0.78158   0.00000  Uiso   1.00
H1207  H     0.88217   0.07180   0.74453   0.00000  Uiso   1.00
H1208  H     0.82824   0.05662   0.78905   0.00000  Uiso   1.00
H1209  H     0.88683   0.04772   0.79582   0.00000  Uiso   1.00
O1210  O     0.80807   0.20533   0.68051   0.00000  Uiso   1.00
C1211  C     0.79621   0.24798   0.68318   0.00000  Uiso   1.00
H1212  H     0.82108   0.26525   0.65431   0.00000  Uiso   1.00
H1213  H     0.79670   0.26271   0.71508   0.00000  Uiso   1.00
H1214  H     0.75996   0.25186   0.67816   0.00000  Uiso   1.00
O1215  O     0.76505   0.11180   0.80369   0.00000  Uiso   1.00
C1216  C     0.76223   0.11128   0.84962   0.00000  Uiso   1.00
H1217  H     0.72374   0.10635   0.86905   0.00000  Uiso   1.00
H1218  H     0.77541   0.14055   0.86088   0.00000  Uiso   1.00
H1219  H     0.78164   0.08386   0.85772   0.00000  Uiso   1.00
O1220  O     0.90250   0.21104   0.68490   0.00000  Uiso   1.00
C1221  C     0.90456   0.25419   0.69194   0.00000  Uiso   1.00
H1222  H     0.94305   0.26360   0.68445   0.00000  Uiso   1.00
H1223  H     0.88508   0.26397   0.72657   0.00000  Uiso   1.00
H1224  H     0.89127   0.27196   0.66707   0.00000  Uiso   1.00
C1225  C     0.33314   0.42089   0.75039   0.00000  Uiso   1.00
C1226  C     0.00006   0.57911   0.75009   0.00000  Uiso   1.00
C1227  C     0.19918   0.51364   0.54978   0.00000  Uiso   1.00
C1228  C     0.14828   0.54356   0.95760   0.00000  Uiso   1.00
C1229  C     0.24817   0.51073   0.52656   0.00000  Uiso   1.00
C1230  C     0.10154   0.55455   0.98176   0.00000  Uiso   1.00
C1231  C     0.00842   0.35612   0.70933   0.00000  Uiso   1.00
C1232  C     0.32249   0.64392   0.79146   0.00000  Uiso   1.00
C1233  C     0.01016   0.64611   0.70969   0.00000  Uiso   1.00
C1234  C     0.32361   0.35395   0.79096   0.00000  Uiso   1.00
C1235  C     0.00003   0.62371   0.75050   0.00000  Uiso   1.00
C1236  C     0.33304   0.37630   0.75014   0.00000  Uiso   1.00
C1237  C     0.18265   0.47252   0.77728   0.00000  Uiso   1.00
C1238  C     0.15174   0.52376   0.71886   0.00000  Uiso   1.00
C1239  C     0.13207   0.47409   0.77893   0.00000  Uiso   1.00
C1240  C     0.20111   0.52473   0.71987   0.00000  Uiso   1.00
C1241  C     0.30571   0.50063   0.83616   0.00000  Uiso   1.00
C1242  C     0.02778   0.50165   0.66404   0.00000  Uiso   1.00
C1243  C     0.29076   0.50407   0.88553   0.00000  Uiso   1.00
C1244  C     0.04464   0.51153   0.61565   0.00000  Uiso   1.00
C1245  C     0.31216   0.50539   0.95560   0.00000  Uiso   1.00
C1246  C     0.03497   0.55174   0.55139   0.00000  Uiso   1.00
C1247  C     0.32583   0.50614   0.90870   0.00000  Uiso   1.00
C1248  C     0.01593   0.53548   0.59529   0.00000  Uiso   1.00
C1249  C     0.24145   0.50536   0.91007   0.00000  Uiso   1.00
C1250  C     0.09276   0.50276   0.59169   0.00000  Uiso   1.00
C1251  C     0.22812   0.51485   0.95595   0.00000  Uiso   1.00
C1252  C     0.11381   0.52191   0.54906   0.00000  Uiso   1.00
C1253  C     0.26311   0.51053   0.97958   0.00000  Uiso   1.00
C1254  C     0.08327   0.54299   0.52733   0.00000  Uiso   1.00
C1255  C     0.17990   0.52502   0.97948   0.00000  Uiso   1.00
C1256  C     0.16406   0.51925   0.52659   0.00000  Uiso   1.00
Cu1257 Cu    0.04689   0.50001   0.75000   0.00000  Uiso   1.00
Cu1258 Cu    0.28645   0.49999   0.75000   0.00000  Uiso   1.00
H1259  H     0.27406   0.50748   0.54562   0.00000  Uiso   1.00
H1260  H     0.07912   0.57057   0.96413   0.00000  Uiso   1.00
H1261  H     0.31220   0.54217   0.61366   0.00000  Uiso   1.00
H1262  H     0.03066   0.50655   0.89076   0.00000  Uiso   1.00
H1263  H     0.18970   0.51417   0.58598   0.00000  Uiso   1.00
H1264  H     0.16049   0.55233   0.92227   0.00000  Uiso   1.00
H1265  H     0.01946   0.62995   0.67831   0.00000  Uiso   1.00
H1266  H     0.31688   0.37012   0.82222   0.00000  Uiso   1.00
N1267  N     0.11736   0.50001   0.74999   0.00000  Uiso   1.00
N1268  N     0.21597   0.49999   0.75001   0.00000  Uiso   1.00
O1269  O     0.03958   0.43989   0.75000   0.00000  Uiso   1.00
O1270  O     0.29375   0.56011   0.75000   0.00000  Uiso   1.00
O1271  O     0.29372   0.43988   0.75001   0.00000  Uiso   1.00
O1272  O     0.03961   0.56012   0.74999   0.00000  Uiso   1.00
O1273  O     0.01852   0.50001   0.81491   0.00000  Uiso   1.00
O1274  O     0.31481   0.49999   0.68509   0.00000  Uiso   1.00
O1275  O     0.27267   0.50000   0.81492   0.00000  Uiso   1.00
O1276  O     0.06067   0.50000   0.68508   0.00000  Uiso   1.00
O1277  O     0.11808   0.47380   0.60965   0.00000  Uiso   1.00
C1278  C     0.11387   0.43473   0.59146   0.00000  Uiso   1.00
H1279  H     0.13319   0.43479   0.55493   0.00000  Uiso   1.00
H1280  H     0.07526   0.42533   0.59741   0.00000  Uiso   1.00
H1281  H     0.13097   0.41092   0.60831   0.00000  Uiso   1.00
O1282  O     0.20658   0.49109   0.89134   0.00000  Uiso   1.00
C1283  C     0.19928   0.44815   0.90279   0.00000  Uiso   1.00
H1284  H     0.18917   0.44191   0.93975   0.00000  Uiso   1.00
H1285  H     0.23188   0.43000   0.88561   0.00000  Uiso   1.00
H1286  H     0.16878   0.43670   0.89167   0.00000  Uiso   1.00
O1287  O     0.01401   0.50245   0.97759   0.00000  Uiso   1.00
C1288  C     0.02412   0.46002   0.98299   0.00000  Uiso   1.00
H1289  H     0.32441   0.44228   0.50238   0.00000  Uiso   1.00
H1290  H     0.04040   0.44569   0.95003   0.00000  Uiso   1.00
H1291  H     0.05099   0.45765   0.50227   0.00000  Uiso   1.00
O1292  O     0.00594   0.57450   0.53100   0.00000  Uiso   1.00
C1293  C     0.32836   0.61307   0.55199   0.00000  Uiso   1.00
H1294  H     0.02832   0.62965   0.55406   0.00000  Uiso   1.00
H1295  H     0.30202   0.60906   0.58589   0.00000  Uiso   1.00
H1296  H     0.31111   0.63318   0.53154   0.00000  Uiso   1.00
O1297  O     0.01909   0.37914   0.66932   0.00000  Uiso   1.00
C1298  C     0.31461   0.37379   0.64951   0.00000  Uiso   1.00
H1299  H     0.32060   0.39599   0.62040   0.00000  Uiso   1.00
H1300  H     0.27861   0.38082   0.67324   0.00000  Uiso   1.00
H1301  H     0.31451   0.34184   0.63671   0.00000  Uiso   1.00
O1302  O     0.31448   0.62130   0.83147   0.00000  Uiso   1.00
C1303  C     0.26411   0.61906   0.85255   0.00000  Uiso   1.00
H1304  H     0.25759   0.60010   0.88414   0.00000  Uiso   1.00
H1305  H     0.24477   0.60339   0.83114   0.00000  Uiso   1.00
H1306  H     0.24880   0.65049   0.86155   0.00000  Uiso   1.00
O1307  O     0.19885   0.44222   0.80173   0.00000  Uiso   1.00
C1308  C     0.19869   0.40327   0.78158   0.00000  Uiso   1.00
H1309  H     0.21550   0.40514   0.74453   0.00000  Uiso   1.00
H1310  H     0.16157   0.38995   0.78905   0.00000  Uiso   1.00
H1311  H     0.22016   0.38106   0.79582   0.00000  Uiso   1.00
O1312  O     0.14140   0.53866   0.68051   0.00000  Uiso   1.00
C1313  C     0.12955   0.58132   0.68318   0.00000  Uiso   1.00
H1314  H     0.15441   0.59858   0.65431   0.00000  Uiso   1.00
H1315  H     0.13004   0.59605   0.71508   0.00000  Uiso   1.00
H1316  H     0.09329   0.58519   0.67816   0.00000  Uiso   1.00
O1317  O     0.09838   0.44513   0.80369   0.00000  Uiso   1.00
C1318  C     0.09556   0.44462   0.84962   0.00000  Uiso   1.00
H1319  H     0.05707   0.43968   0.86905   0.00000  Uiso   1.00
H1320  H     0.10874   0.47388   0.86088   0.00000  Uiso   1.00
H1321  H     0.11498   0.41719   0.85772   0.00000  Uiso   1.00
O1322  O     0.23583   0.54437   0.68490   0.00000  Uiso   1.00
C1323  C     0.23789   0.58753   0.69194   0.00000  Uiso   1.00
H1324  H     0.27639   0.59693   0.68445   0.00000  Uiso   1.00
H1325  H     0.21841   0.59730   0.72657   0.00000  Uiso   1.00
H1326  H     0.22461   0.60529   0.66707   0.00000  Uiso   1.00
C1327  C     0.66648   0.42089   0.75039   0.00000  Uiso   1.00
C1328  C     0.33339   0.57911   0.75009   0.00000  Uiso   1.00
C1329  C     0.53252   0.51364   0.54978   0.00000  Uiso   1.00
C1330  C     0.48162   0.54356   0.95760   0.00000  Uiso   1.00
C1331  C     0.58150   0.51073   0.52656   0.00000  Uiso   1.00
C1332  C     0.43487   0.55455   0.98176   0.00000  Uiso   1.00
C1333  C     0.34176   0.35612   0.70933   0.00000  Uiso   1.00
C1334  C     0.65582   0.64392   0.79146   0.00000  Uiso   1.00
C1335  C     0.34350   0.64611   0.70969   0.00000  Uiso   1.00
C1336  C     0.65694   0.35395   0.79096   0.00000  Uiso   1.00
C1337  C     0.33337   0.62371   0.75050   0.00000  Uiso   1.00
C1338  C     0.66638   0.37630   0.75014   0.00000  Uiso   1.00
C1339  C     0.51598   0.47252   0.77728   0.00000  Uiso   1.00
C1340  C     0.48507   0.52376   0.71886   0.00000  Uiso   1.00
C1341  C     0.46540   0.47409   0.77893   0.00000  Uiso   1.00
C1342  C     0.53444   0.52473   0.71987   0.00000  Uiso   1.00
C1343  C     0.63904   0.50063   0.83616   0.00000  Uiso   1.00
C1344  C     0.36112   0.50165   0.66404   0.00000  Uiso   1.00
C1345  C     0.62410   0.50407   0.88553   0.00000  Uiso   1.00
C1346  C     0.37797   0.51153   0.61565   0.00000  Uiso   1.00
C1347  C     0.64549   0.50539   0.95560   0.00000  Uiso   1.00
C1348  C     0.36830   0.55174   0.55139   0.00000  Uiso   1.00
C1349  C     0.65917   0.50614   0.90870   0.00000  Uiso   1.00
C1350  C     0.34926   0.53548   0.59529   0.00000  Uiso   1.00
C1351  C     0.57478   0.50536   0.91007   0.00000  Uiso   1.00
C1352  C     0.42609   0.50276   0.59169   0.00000  Uiso   1.00
C1353  C     0.56145   0.51485   0.95595   0.00000  Uiso   1.00
C1354  C     0.44715   0.52191   0.54906   0.00000  Uiso   1.00
C1355  C     0.59644   0.51053   0.97958   0.00000  Uiso   1.00
C1356  C     0.41660   0.54299   0.52733   0.00000  Uiso   1.00
C1357  C     0.51323   0.52502   0.97948   0.00000  Uiso   1.00
C1358  C     0.49740   0.51925   0.52659   0.00000  Uiso   1.00
Cu1359 Cu    0.38022   0.50001   0.75000   0.00000  Uiso   1.00
Cu1360 Cu    0.61978   0.49999   0.75000   0.00000  Uiso   1.00
H1361  H     0.60739   0.50748   0.54562   0.00000  Uiso   1.00
H1362  H     0.41245   0.57057   0.96413   0.00000  Uiso   1.00
H1363  H     0.64554   0.54217   0.61366   0.00000  Uiso   1.00
H1364  H     0.36399   0.50655   0.89076   0.00000  Uiso   1.00
H1365  H     0.52304   0.51417   0.58598   0.00000  Uiso   1.00
H1366  H     0.49382   0.55233   0.92227   0.00000  Uiso   1.00
H1367  H     0.35280   0.62995   0.67831   0.00000  Uiso   1.00
H1368  H     0.65021   0.37012   0.82222   0.00000  Uiso   1.00
N1369  N     0.45069   0.50001   0.74999   0.00000  Uiso   1.00
N1370  N     0.54931   0.49999   0.75001   0.00000  Uiso   1.00
O1371  O     0.37291   0.43989   0.75000   0.00000  Uiso   1.00
O1372  O     0.62709   0.56011   0.75000   0.00000  Uiso   1.00
O1373  O     0.62706   0.43988   0.75001   0.00000  Uiso   1.00
O1374  O     0.37294   0.56012   0.74999   0.00000  Uiso   1.00
O1375  O     0.35186   0.50001   0.81491   0.00000  Uiso   1.00
O1376  O     0.64814   0.49999   0.68509   0.00000  Uiso   1.00
O1377  O     0.60600   0.50000   0.81492   0.00000  Uiso   1.00
O1378  O     0.39400   0.50000   0.68508   0.00000  Uiso   1.00
O1379  O     0.45141   0.47380   0.60965   0.00000  Uiso   1.00
C1380  C     0.44720   0.43473   0.59146   0.00000  Uiso   1.00
H1381  H     0.46652   0.43479   0.55493   0.00000  Uiso   1.00
H1382  H     0.40859   0.42533   0.59741   0.00000  Uiso   1.00
H1383  H     0.46430   0.41092   0.60831   0.00000  Uiso   1.00
O1384  O     0.53991   0.49109   0.89134   0.00000  Uiso   1.00
C1385  C     0.53261   0.44815   0.90279   0.00000  Uiso   1.00
H1386  H     0.52251   0.44191   0.93975   0.00000  Uiso   1.00
H1387  H     0.56521   0.43000   0.88561   0.00000  Uiso   1.00
H1388  H     0.50212   0.43670   0.89167   0.00000  Uiso   1.00
O1389  O     0.34735   0.50245   0.97759   0.00000  Uiso   1.00
C1390  C     0.35746   0.46002   0.98299   0.00000  Uiso   1.00
H1391  H     0.65774   0.44228   0.50238   0.00000  Uiso   1.00
H1392  H     0.37373   0.44569   0.95003   0.00000  Uiso   1.00
H1393  H     0.38432   0.45765   0.50227   0.00000  Uiso   1.00
O1394  O     0.33928   0.57450   0.53100   0.00000  Uiso   1.00
C1395  C     0.66169   0.61307   0.55199   0.00000  Uiso   1.00
H1396  H     0.36165   0.62965   0.55406   0.00000  Uiso   1.00
H1397  H     0.63535   0.60906   0.58589   0.00000  Uiso   1.00
H1398  H     0.64444   0.63318   0.53154   0.00000  Uiso   1.00
O1399  O     0.35243   0.37914   0.66932   0.00000  Uiso   1.00
C1400  C     0.64794   0.37379   0.64951   0.00000  Uiso   1.00
H1401  H     0.65393   0.39599   0.62040   0.00000  Uiso   1.00
H1402  H     0.61194   0.38082   0.67324   0.00000  Uiso   1.00
H1403  H     0.64785   0.34184   0.63671   0.00000  Uiso   1.00
O1404  O     0.64781   0.62130   0.83147   0.00000  Uiso   1.00
C1405  C     0.59744   0.61906   0.85255   0.00000  Uiso   1.00
H1406  H     0.59093   0.60010   0.88414   0.00000  Uiso   1.00
H1407  H     0.57810   0.60339   0.83114   0.00000  Uiso   1.00
H1408  H     0.58214   0.65049   0.86155   0.00000  Uiso   1.00
O1409  O     0.53219   0.44222   0.80173   0.00000  Uiso   1.00
C1410  C     0.53203   0.40327   0.78158   0.00000  Uiso   1.00
H1411  H     0.54883   0.40514   0.74453   0.00000  Uiso   1.00
H1412  H     0.49491   0.38995   0.78905   0.00000  Uiso   1.00
H1413  H     0.55349   0.38106   0.79582   0.00000  Uiso   1.00
O1414  O     0.47473   0.53866   0.68051   0.00000  Uiso   1.00
C1415  C     0.46288   0.58132   0.68318   0.00000  Uiso   1.00
H1416  H     0.48774   0.59858   0.65431   0.00000  Uiso   1.00
H1417  H     0.46337   0.59605   0.71508   0.00000  Uiso   1.00
H1418  H     0.42662   0.58519   0.67816   0.00000  Uiso   1.00
O1419  O     0.43172   0.44513   0.80369   0.00000  Uiso   1.00
C1420  C     0.42889   0.44462   0.84962   0.00000  Uiso   1.00
H1421  H     0.39040   0.43968   0.86905   0.00000  Uiso   1.00
H1422  H     0.44208   0.47388   0.86088   0.00000  Uiso   1.00
H1423  H     0.44831   0.41719   0.85772   0.00000  Uiso   1.00
O1424  O     0.56917   0.54437   0.68490   0.00000  Uiso   1.00
C1425  C     0.57122   0.58753   0.69194   0.00000  Uiso   1.00
H1426  H     0.60972   0.59693   0.68445   0.00000  Uiso   1.00
H1427  H     0.55174   0.59730   0.72657   0.00000  Uiso   1.00
H1428  H     0.55794   0.60529   0.66707   0.00000  Uiso   1.00
C1429  C     0.99981   0.42089   0.75039   0.00000  Uiso   1.00
C1430  C     0.66673   0.57911   0.75009   0.00000  Uiso   1.00
C1431  C     0.86585   0.51364   0.54978   0.00000  Uiso   1.00
C1432  C     0.81495   0.54356   0.95760   0.00000  Uiso   1.00
C1433  C     0.91483   0.51073   0.52656   0.00000  Uiso   1.00
C1434  C     0.76820   0.55455   0.98176   0.00000  Uiso   1.00
C1435  C     0.67509   0.35612   0.70933   0.00000  Uiso   1.00
C1436  C     0.98915   0.64392   0.79146   0.00000  Uiso   1.00
C1437  C     0.67683   0.64611   0.70969   0.00000  Uiso   1.00
C1438  C     0.99027   0.35395   0.79096   0.00000  Uiso   1.00
C1439  C     0.66670   0.62371   0.75050   0.00000  Uiso   1.00
C1440  C     0.99971   0.37630   0.75014   0.00000  Uiso   1.00
C1441  C     0.84932   0.47252   0.77728   0.00000  Uiso   1.00
C1442  C     0.81840   0.52376   0.71886   0.00000  Uiso   1.00
C1443  C     0.79874   0.47409   0.77893   0.00000  Uiso   1.00
C1444  C     0.86778   0.52473   0.71987   0.00000  Uiso   1.00
C1445  C     0.97237   0.50063   0.83616   0.00000  Uiso   1.00
C1446  C     0.69445   0.50165   0.66404   0.00000  Uiso   1.00
C1447  C     0.95743   0.50407   0.88553   0.00000  Uiso   1.00
C1448  C     0.71131   0.51153   0.61565   0.00000  Uiso   1.00
C1449  C     0.97883   0.50539   0.95560   0.00000  Uiso   1.00
C1450  C     0.70164   0.55174   0.55139   0.00000  Uiso   1.00
C1451  C     0.99250   0.50614   0.90870   0.00000  Uiso   1.00
C1452  C     0.68259   0.53548   0.59529   0.00000  Uiso   1.00
C1453  C     0.90812   0.50536   0.91007   0.00000  Uiso   1.00
C1454  C     0.75943   0.50276   0.59169   0.00000  Uiso   1.00
C1455  C     0.89478   0.51485   0.95595   0.00000  Uiso   1.00
C1456  C     0.78048   0.52191   0.54906   0.00000  Uiso   1.00
C1457  C     0.92977   0.51053   0.97958   0.00000  Uiso   1.00
C1458  C     0.74993   0.54299   0.52733   0.00000  Uiso   1.00
C1459  C     0.84657   0.52502   0.97948   0.00000  Uiso   1.00
C1460  C     0.83073   0.51925   0.52659   0.00000  Uiso   1.00
Cu1461 Cu    0.71355   0.50001   0.75000   0.00000  Uiso   1.00
Cu1462 Cu    0.95311   0.49999   0.75000   0.00000  Uiso   1.00
H1463  H     0.94073   0.50748   0.54562   0.00000  Uiso   1.00
H1464  H     0.74579   0.57057   0.96413   0.00000  Uiso   1.00
H1465  H     0.97887   0.54217   0.61366   0.00000  Uiso   1.00
H1466  H     0.69733   0.50655   0.89076   0.00000  Uiso   1.00
H1467  H     0.85637   0.51417   0.58598   0.00000  Uiso   1.00
H1468  H     0.82715   0.55233   0.92227   0.00000  Uiso   1.00
H1469  H     0.68613   0.62995   0.67831   0.00000  Uiso   1.00
H1470  H     0.98355   0.37012   0.82222   0.00000  Uiso   1.00
N1471  N     0.78403   0.50001   0.74999   0.00000  Uiso   1.00
N1472  N     0.88264   0.49999   0.75001   0.00000  Uiso   1.00
O1473  O     0.70625   0.43989   0.75000   0.00000  Uiso   1.00
O1474  O     0.96042   0.56011   0.75000   0.00000  Uiso   1.00
O1475  O     0.96039   0.43988   0.75001   0.00000  Uiso   1.00
O1476  O     0.70628   0.56012   0.74999   0.00000  Uiso   1.00
O1477  O     0.68519   0.50001   0.81491   0.00000  Uiso   1.00
O1478  O     0.98148   0.49999   0.68509   0.00000  Uiso   1.00
O1479  O     0.93933   0.50000   0.81492   0.00000  Uiso   1.00
O1480  O     0.72733   0.50000   0.68508   0.00000  Uiso   1.00
O1481  O     0.78475   0.47380   0.60965   0.00000  Uiso   1.00
C1482  C     0.78053   0.43473   0.59146   0.00000  Uiso   1.00
H1483  H     0.79986   0.43479   0.55493   0.00000  Uiso   1.00
H1484  H     0.74192   0.42533   0.59741   0.00000  Uiso   1.00
H1485  H     0.79763   0.41092   0.60831   0.00000  Uiso   1.00
O1486  O     0.87324   0.49109   0.89134   0.00000  Uiso   1.00
C1487  C     0.86594   0.44815   0.90279   0.00000  Uiso   1.00
H1488  H     0.85584   0.44191   0.93975   0.00000  Uiso   1.00
H1489  H     0.89855   0.43000   0.88561   0.00000  Uiso   1.00
H1490  H     0.83545   0.43670   0.89167   0.00000  Uiso   1.00
O1491  O     0.68068   0.50245   0.97759   0.00000  Uiso   1.00
C1492  C     0.69079   0.46002   0.98299   0.00000  Uiso   1.00
H1493  H     0.99108   0.44228   0.50238   0.00000  Uiso   1.00
H1494  H     0.70706   0.44569   0.95003   0.00000  Uiso   1.00
H1495  H     0.71766   0.45765   0.50227   0.00000  Uiso   1.00
O1496  O     0.67261   0.57450   0.53100   0.00000  Uiso   1.00
C1497  C     0.99503   0.61307   0.55199   0.00000  Uiso   1.00
H1498  H     0.69499   0.62965   0.55406   0.00000  Uiso   1.00
H1499  H     0.96868   0.60906   0.58589   0.00000  Uiso   1.00
H1500  H     0.97777   0.63318   0.53154   0.00000  Uiso   1.00
O1501  O     0.68576   0.37914   0.66932   0.00000  Uiso   1.00
C1502  C     0.98128   0.37379   0.64951   0.00000  Uiso   1.00
H1503  H     0.98726   0.39599   0.62040   0.00000  Uiso   1.00
H1504  H     0.94527   0.38082   0.67324   0.00000  Uiso   1.00
H1505  H     0.98118   0.34184   0.63671   0.00000  Uiso   1.00
O1506  O     0.98114   0.62130   0.83147   0.00000  Uiso   1.00
C1507  C     0.93078   0.61906   0.85255   0.00000  Uiso   1.00
H1508  H     0.92426   0.60010   0.88414   0.00000  Uiso   1.00
H1509  H     0.91144   0.60339   0.83114   0.00000  Uiso   1.00
H1510  H     0.91547   0.65049   0.86155   0.00000  Uiso   1.00
O1511  O     0.86552   0.44222   0.80173   0.00000  Uiso   1.00
C1512  C     0.86536   0.40327   0.78158   0.00000  Uiso   1.00
H1513  H     0.88217   0.40514   0.74453   0.00000  Uiso   1.00
H1514  H     0.82824   0.38995   0.78905   0.00000  Uiso   1.00
H1515  H     0.88683   0.38106   0.79582   0.00000  Uiso   1.00
O1516  O     0.80807   0.53866   0.68051   0.00000  Uiso   1.00
C1517  C     0.79621   0.58132   0.68318   0.00000  Uiso   1.00
H1518  H     0.82108   0.59858   0.65431   0.00000  Uiso   1.00
H1519  H     0.79670   0.59605   0.71508   0.00000  Uiso   1.00
H1520  H     0.75996   0.58519   0.67816   0.00000  Uiso   1.00
O1521  O     0.76505   0.44513   0.80369   0.00000  Uiso   1.00
C1522  C     0.76223   0.44462   0.84962   0.00000  Uiso   1.00
H1523  H     0.72374   0.43968   0.86905   0.00000  Uiso   1.00
H1524  H     0.77541   0.47388   0.86088   0.00000  Uiso   1.00
H1525  H     0.78164   0.41719   0.85772   0.00000  Uiso   1.00
O1526  O     0.90250   0.54437   0.68490   0.00000  Uiso   1.00
C1527  C     0.90456   0.58753   0.69194   0.00000  Uiso   1.00
H1528  H     0.94305   0.59693   0.68445   0.00000  Uiso   1.00
H1529  H     0.88508   0.59730   0.72657   0.00000  Uiso   1.00
H1530  H     0.89127   0.60529   0.66707   0.00000  Uiso   1.00
C1531  C     0.33314   0.75422   0.75039   0.00000  Uiso   1.00
C1532  C     0.00006   0.91244   0.75009   0.00000  Uiso   1.00
C1533  C     0.19918   0.84697   0.54978   0.00000  Uiso   1.00
C1534  C     0.14828   0.87689   0.95760   0.00000  Uiso   1.00
C1535  C     0.24817   0.84406   0.52656   0.00000  Uiso   1.00
C1536  C     0.10154   0.88788   0.98176   0.00000  Uiso   1.00
C1537  C     0.00842   0.68946   0.70933   0.00000  Uiso   1.00
C1538  C     0.32249   0.97726   0.79146   0.00000  Uiso   1.00
C1539  C     0.01016   0.97944   0.70969   0.00000  Uiso   1.00
C1540  C     0.32361   0.68728   0.79096   0.00000  Uiso   1.00
C1541  C     0.00003   0.95704   0.75050   0.00000  Uiso   1.00
C1542  C     0.33304   0.70963   0.75014   0.00000  Uiso   1.00
C1543  C     0.18265   0.80585   0.77728   0.00000  Uiso   1.00
C1544  C     0.15174   0.85709   0.71886   0.00000  Uiso   1.00
C1545  C     0.13207   0.80742   0.77893   0.00000  Uiso   1.00
C1546  C     0.20111   0.85807   0.71987   0.00000  Uiso   1.00
C1547  C     0.30571   0.83396   0.83616   0.00000  Uiso   1.00
C1548  C     0.02778   0.83498   0.66404   0.00000  Uiso   1.00
C1549  C     0.29076   0.83740   0.88553   0.00000  Uiso   1.00
C1550  C     0.04464   0.84486   0.61565   0.00000  Uiso   1.00
C1551  C     0.31216   0.83872   0.95560   0.00000  Uiso   1.00
C1552  C     0.03497   0.88507   0.55139   0.00000  Uiso   1.00
C1553  C     0.32583   0.83948   0.90870   0.00000  Uiso   1.00
C1554  C     0.01593   0.86882   0.59529   0.00000  Uiso   1.00
C1555  C     0.24145   0.83869   0.91007   0.00000  Uiso   1.00
C1556  C     0.09276   0.83609   0.59169   0.00000  Uiso   1.00
C1557  C     0.22812   0.84818   0.95595   0.00000  Uiso   1.00
C1558  C     0.11381   0.85524   0.54906   0.00000  Uiso   1.00
C1559  C     0.26311   0.84387   0.97958   0.00000  Uiso   1.00
C1560  C     0.08327   0.87632   0.52733   0.00000  Uiso   1.00
C1561  C     0.17990   0.85835   0.97948   0.00000  Uiso   1.00
C1562  C     0.16406   0.85259   0.52659   0.00000  Uiso   1.00
Cu1563 Cu    0.04689   0.83334   0.75000   0.00000  Uiso   1.00
Cu1564 Cu    0.28645   0.83333   0.75000   0.00000  Uiso   1.00
H1565  H     0.27406   0.84081   0.54562   0.00000  Uiso   1.00
H1566  H     0.07912   0.90391   0.96413   0.00000  Uiso   1.00
H1567  H     0.31220   0.87550   0.61366   0.00000  Uiso   1.00
H1568  H     0.03066   0.83988   0.89076   0.00000  Uiso   1.00
H1569  H     0.18970   0.84750   0.58598   0.00000  Uiso   1.00
H1570  H     0.16049   0.88566   0.92227   0.00000  Uiso   1.00
H1571  H     0.01946   0.96328   0.67831   0.00000  Uiso   1.00
H1572  H     0.31688   0.70345   0.82222   0.00000  Uiso   1.00
N1573  N     0.11736   0.83334   0.74999   0.00000  Uiso   1.00
N1574  N     0.21597   0.83332   0.75001   0.00000  Uiso   1.00
O1575  O     0.03958   0.77322   0.75000   0.00000  Uiso   1.00
O1576  O     0.29375   0.89345   0.75000   0.00000  Uiso   1.00
O1577  O     0.29372   0.77321   0.75001   0.00000  Uiso   1.00
O1578  O     0.03961   0.89346   0.74999   0.00000  Uiso   1.00
O1579  O     0.01852   0.83334   0.81491   0.00000  Uiso   1.00
O1580  O     0.31481   0.83332   0.68509   0.00000  Uiso   1.00
O1581  O     0.27267   0.83333   0.81492   0.00000  Uiso   1.00
O1582  O     0.06067   0.83333   0.68508   0.00000  Uiso   1.00
O1583  O     0.11808   0.80713   0.60965   0.00000  Uiso   1.00
C1584  C     0.11387   0.76806   0.59146   0.00000  Uiso   1.00
H1585  H     0.13319   0.76812   0.55493   0.00000  Uiso   1.00
H1586  H     0.07526   0.75866   0.59741   0.00000  Uiso   1.00
H1587  H     0.13097   0.74426   0.60831   0.00000  Uiso   1.00
O1588  O     0.20658   0.82442   0.89134   0.00000  Uiso   1.00
C1589  C     0.19928   0.78149   0.90279   0.00000  Uiso   1.00
H1590  H     0.18917   0.77524   0.93975   0.00000  Uiso   1.00
H1591  H     0.23188   0.76333   0.88561   0.00000  Uiso   1.00
H1592  H     0.16878   0.77003   0.89167   0.00000  Uiso   1.00
O1593  O     0.01401   0.83578   0.97759   0.00000  Uiso   1.00
C1594  C     0.02412   0.79335   0.98299   0.00000  Uiso   1.00
H1595  H     0.32441   0.77561   0.50238   0.00000  Uiso   1.00
H1596  H     0.04040   0.77902   0.95003   0.00000  Uiso   1.00
H1597  H     0.05099   0.79098   0.50227   0.00000  Uiso   1.00
O1598  O     0.00594   0.90783   0.53100   0.00000  Uiso   1.00
C1599  C     0.32836   0.94641   0.55199   0.00000  Uiso   1.00
H1600  H     0.02832   0.96298   0.55406   0.00000  Uiso   1.00
H1601  H     0.30202   0.94239   0.58589   0.00000  Uiso   1.00
H1602  H     0.31111   0.96651   0.53154   0.00000  Uiso   1.00
O1603  O     0.01909   0.71248   0.66932   0.00000  Uiso   1.00
C1604  C     0.31461   0.70713   0.64951   0.00000  Uiso   1.00
H1605  H     0.32060   0.72932   0.62040   0.00000  Uiso   1.00
H1606  H     0.27861   0.71415   0.67324   0.00000  Uiso   1.00
H1607  H     0.31451   0.67518   0.63671   0.00000  Uiso   1.00
O1608  O     0.31448   0.95464   0.83147   0.00000  Uiso   1.00
C1609  C     0.26411   0.95239   0.85255   0.00000  Uiso   1.00
H1610  H     0.25759   0.93344   0.88414   0.00000  Uiso   1.00
H1611  H     0.24477   0.93673   0.83114   0.00000  Uiso   1.00
H1612  H     0.24880   0.98382   0.86155   0.00000  Uiso   1.00
O1613  O     0.19885   0.77556   0.80173   0.00000  Uiso   1.00
C1614  C     0.19869   0.73661   0.78158   0.00000  Uiso   1.00
H1615  H     0.21550   0.73847   0.74453   0.00000  Uiso   1.00
H1616  H     0.16157   0.72329   0.78905   0.00000  Uiso   1.00
H1617  H     0.22016   0.71439   0.79582   0.00000  Uiso   1.00
O1618  O     0.14140   0.87200   0.68051   0.00000  Uiso   1.00
C1619  C     0.12955   0.91465   0.68318   0.00000  Uiso   1.00
H1620  H     0.15441   0.93191   0.65431   0.00000  Uiso   1.00
H1621  H     0.13004   0.92938   0.71508   0.00000  Uiso   1.00
H1622  H     0.09329   0.91852   0.67816   0.00000  Uiso   1.00
O1623  O     0.09838   0.77847   0.80369   0.00000  Uiso   1.00
C1624  C     0.09556   0.77795   0.84962   0.00000  Uiso   1.00
H1625  H     0.05707   0.77301   0.86905   0.00000  Uiso   1.00
H1626  H     0.10874   0.80721   0.86088   0.00000  Uiso   1.00
H1627  H     0.11498   0.75052   0.85772   0.00000  Uiso   1.00
O1628  O     0.23583   0.87770   0.68490   0.00000  Uiso   1.00
C1629  C     0.23789   0.92086   0.69194   0.00000  Uiso   1.00
H1630  H     0.27639   0.93026   0.68445   0.00000  Uiso   1.00
H1631  H     0.21841   0.93064   0.72657   0.00000  Uiso   1.00
H1632  H     0.22461   0.93862   0.66707   0.00000  Uiso   1.00
C1633  C     0.66648   0.75422   0.75039   0.00000  Uiso   1.00
C1634  C     0.33339   0.91244   0.75009   0.00000  Uiso   1.00
C1635  C     0.53252   0.84697   0.54978   0.00000  Uiso   1.00
C1636  C     0.48162   0.87689   0.95760   0.00000  Uiso   1.00
C1637  C     0.58150   0.84406   0.52656   0.00000  Uiso   1.00
C1638  C     0.43487   0.88788   0.98176   0.00000  Uiso   1.00
C1639  C     0.34176   0.68946   0.70933   0.00000  Uiso   1.00
C1640  C     0.65582   0.97726   0.79146   0.00000  Uiso   1.00
C1641  C     0.34350   0.97944   0.70969   0.00000  Uiso   1.00
C1642  C     0.65694   0.68728   0.79096   0.00000  Uiso   1.00
C1643  C     0.33337   0.95704   0.75050   0.00000  Uiso   1.00
C1644  C     0.66638   0.70963   0.75014   0.00000  Uiso   1.00
C1645  C     0.51598   0.80585   0.77728   0.00000  Uiso   1.00
C1646  C     0.48507   0.85709   0.71886   0.00000  Uiso   1.00
C1647  C     0.46540   0.80742   0.77893   0.00000  Uiso   1.00
C1648  C     0.53444   0.85807   0.71987   0.00000  Uiso   1.00
C1649  C     0.63904   0.83396   0.83616   0.00000  Uiso   1.00
C1650  C     0.36112   0.83498   0.66404   0.00000  Uiso   1.00
C1651  C     0.62410   0.83740   0.88553   0.00000  Uiso   1.00
C1652  C     0.37797   0.84486   0.61565   0.00000  Uiso   1.00
C1653  C     0.64549   0.83872   0.95560   0.00000  Uiso   1.00
C1654  C     0.36830   0.88507   0.55139   0.00000  Uiso   1.00
C1655  C     0.65917   0.83948   0.90870   0.00000  Uiso   1.00
C1656  C     0.34926   0.86882   0.59529   0.00000  Uiso   1.00
C1657  C     0.57478   0.83869   0.91007   0.00000  Uiso   1.00
C1658  C     0.42609   0.83609   0.59169   0.00000  Uiso   1.00
C1659  C     0.56145   0.84818   0.95595   0.00000  Uiso   1.00
C1660  C     0.44715   0.85524   0.54906   0.00000  Uiso   1.00
C1661  C     0.59644   0.84387   0.97958   0.00000  Uiso   1.00
C1662  C     0.41660   0.87632   0.52733   0.00000  Uiso   1.00
C1663  C     0.51323   0.85835   0.97948   0.00000  Uiso   1.00
C1664  C     0.49740   0.85259   0.52659   0.00000  Uiso   1.00
Cu1665 Cu    0.38022   0.83334   0.75000   0.00000  Uiso   1.00
Cu1666 Cu    0.61978   0.83333   0.75000   0.00000  Uiso   1.00
H1667  H     0.60739   0.84081   0.54562   0.00000  Uiso   1.00
H1668  H     0.41245   0.90391   0.96413   0.00000  Uiso   1.00
H1669  H     0.64554   0.87550   0.61366   0.00000  Uiso   1.00
H1670  H     0.36399   0.83988   0.89076   0.00000  Uiso   1.00
H1671  H     0.52304   0.84750   0.58598   0.00000  Uiso   1.00
H1672  H     0.49382   0.88566   0.92227   0.00000  Uiso   1.00
H1673  H     0.35280   0.96328   0.67831   0.00000  Uiso   1.00
H1674  H     0.65021   0.70345   0.82222   0.00000  Uiso   1.00
N1675  N     0.45069   0.83334   0.74999   0.00000  Uiso   1.00
N1676  N     0.54931   0.83332   0.75001   0.00000  Uiso   1.00
O1677  O     0.37291   0.77322   0.75000   0.00000  Uiso   1.00
O1678  O     0.62709   0.89345   0.75000   0.00000  Uiso   1.00
O1679  O     0.62706   0.77321   0.75001   0.00000  Uiso   1.00
O1680  O     0.37294   0.89346   0.74999   0.00000  Uiso   1.00
O1681  O     0.35186   0.83334   0.81491   0.00000  Uiso   1.00
O1682  O     0.64814   0.83332   0.68509   0.00000  Uiso   1.00
O1683  O     0.60600   0.83333   0.81492   0.00000  Uiso   1.00
O1684  O     0.39400   0.83333   0.68508   0.00000  Uiso   1.00
O1685  O     0.45141   0.80713   0.60965   0.00000  Uiso   1.00
C1686  C     0.44720   0.76806   0.59146   0.00000  Uiso   1.00
H1687  H     0.46652   0.76812   0.55493   0.00000  Uiso   1.00
H1688  H     0.40859   0.75866   0.59741   0.00000  Uiso   1.00
H1689  H     0.46430   0.74426   0.60831   0.00000  Uiso   1.00
O1690  O     0.53991   0.82442   0.89134   0.00000  Uiso   1.00
C1691  C     0.53261   0.78149   0.90279   0.00000  Uiso   1.00
H1692  H     0.52251   0.77524   0.93975   0.00000  Uiso   1.00
H1693  H     0.56521   0.76333   0.88561   0.00000  Uiso   1.00
H1694  H     0.50212   0.77003   0.89167   0.00000  Uiso   1.00
O1695  O     0.34735   0.83578   0.97759   0.00000  Uiso   1.00
C1696  C     0.35746   0.79335   0.98299   0.00000  Uiso   1.00
H1697  H     0.65774   0.77561   0.50238   0.00000  Uiso   1.00
H1698  H     0.37373   0.77902   0.95003   0.00000  Uiso   1.00
H1699  H     0.38432   0.79098   0.50227   0.00000  Uiso   1.00
O1700  O     0.33928   0.90783   0.53100   0.00000  Uiso   1.00
C1701  C     0.66169   0.94641   0.55199   0.00000  Uiso   1.00
H1702  H     0.36165   0.96298   0.55406   0.00000  Uiso   1.00
H1703  H     0.63535   0.94239   0.58589   0.00000  Uiso   1.00
H1704  H     0.64444   0.96651   0.53154   0.00000  Uiso   1.00
O1705  O     0.35243   0.71248   0.66932   0.00000  Uiso   1.00
C1706  C     0.64794   0.70713   0.64951   0.00000  Uiso   1.00
H1707  H     0.65393   0.72932   0.62040   0.00000  Uiso   1.00
H1708  H     0.61194   0.71415   0.67324   0.00000  Uiso   1.00
H1709  H     0.64785   0.67518   0.63671   0.00000  Uiso   1.00
O1710  O     0.64781   0.95464   0.83147   0.00000  Uiso   1.00
C1711  C     0.59744   0.95239   0.85255   0.00000  Uiso   1.00
H1712  H     0.59093   0.93344   0.88414   0.00000  Uiso   1.00
H1713  H     0.57810   0.93673   0.83114   0.00000  Uiso   1.00
H1714  H     0.58214   0.98382   0.86155   0.00000  Uiso   1.00
O1715  O     0.53219   0.77556   0.80173   0.00000  Uiso   1.00
C1716  C     0.53203   0.73661   0.78158   0.00000  Uiso   1.00
H1717  H     0.54883   0.73847   0.74453   0.00000  Uiso   1.00
H1718  H     0.49491   0.72329   0.78905   0.00000  Uiso   1.00
H1719  H     0.55349   0.71439   0.79582   0.00000  Uiso   1.00
O1720  O     0.47473   0.87200   0.68051   0.00000  Uiso   1.00
C1721  C     0.46288   0.91465   0.68318   0.00000  Uiso   1.00
H1722  H     0.48774   0.93191   0.65431   0.00000  Uiso   1.00
H1723  H     0.46337   0.92938   0.71508   0.00000  Uiso   1.00
H1724  H     0.42662   0.91852   0.67816   0.00000  Uiso   1.00
O1725  O     0.43172   0.77847   0.80369   0.00000  Uiso   1.00
C1726  C     0.42889   0.77795   0.84962   0.00000  Uiso   1.00
H1727  H     0.39040   0.77301   0.86905   0.00000  Uiso   1.00
H1728  H     0.44208   0.80721   0.86088   0.00000  Uiso   1.00
H1729  H     0.44831   0.75052   0.85772   0.00000  Uiso   1.00
O1730  O     0.56917   0.87770   0.68490   0.00000  Uiso   1.00
C1731  C     0.57122   0.92086   0.69194   0.00000  Uiso   1.00
H1732  H     0.60972   0.93026   0.68445   0.00000  Uiso   1.00
H1733  H     0.55174   0.93064   0.72657   0.00000  Uiso   1.00
H1734  H     0.55794   0.93862   0.66707   0.00000  Uiso   1.00
C1735  C     0.99981   0.75422   0.75039   0.00000  Uiso   1.00
C1736  C     0.66673   0.91244   0.75009   0.00000  Uiso   1.00
C1737  C     0.86585   0.84697   0.54978   0.00000  Uiso   1.00
C1738  C     0.81495   0.87689   0.95760   0.00000  Uiso   1.00
C1739  C     0.91483   0.84406   0.52656   0.00000  Uiso   1.00
C1740  C     0.76820   0.88788   0.98176   0.00000  Uiso   1.00
C1741  C     0.67509   0.68946   0.70933   0.00000  Uiso   1.00
C1742  C     0.98915   0.97726   0.79146   0.00000  Uiso   1.00
C1743  C     0.67683   0.97944   0.70969   0.00000  Uiso   1.00
C1744  C     0.99027   0.68728   0.79096   0.00000  Uiso   1.00
C1745  C     0.66670   0.95704   0.75050   0.00000  Uiso   1.00
C1746  C     0.99971   0.70963   0.75014   0.00000  Uiso   1.00
C1747  C     0.84932   0.80585   0.77728   0.00000  Uiso   1.00
C1748  C     0.81840   0.85709   0.71886   0.00000  Uiso   1.00
C1749  C     0.79874   0.80742   0.77893   0.00000  Uiso   1.00
C1750  C     0.86778   0.85807   0.71987   0.00000  Uiso   1.00
C1751  C     0.97237   0.83396   0.83616   0.00000  Uiso   1.00
C1752  C     0.69445   0.83498   0.66404   0.00000  Uiso   1.00
C1753  C     0.95743   0.83740   0.88553   0.00000  Uiso   1.00
C1754  C     0.71131   0.84486   0.61565   0.00000  Uiso   1.00
C1755  C     0.97883   0.83872   0.95560   0.00000  Uiso   1.00
C1756  C     0.70164   0.88507   0.55139   0.00000  Uiso   1.00
C1757  C     0.99250   0.83948   0.90870   0.00000  Uiso   1.00
C1758  C     0.68259   0.86882   0.59529   0.00000  Uiso   1.00
C1759  C     0.90812   0.83869   0.91007   0.00000  Uiso   1.00
C1760  C     0.75943   0.83609   0.59169   0.00000  Uiso   1.00
C1761  C     0.89478   0.84818   0.95595   0.00000  Uiso   1.00
C1762  C     0.78048   0.85524   0.54906   0.00000  Uiso   1.00
C1763  C     0.92977   0.84387   0.97958   0.00000  Uiso   1.00
C1764  C     0.74993   0.87632   0.52733   0.00000  Uiso   1.00
C1765  C     0.84657   0.85835   0.97948   0.00000  Uiso   1.00
C1766  C     0.83073   0.85259   0.52659   0.00000  Uiso   1.00
Cu1767 Cu    0.71355   0.83334   0.75000   0.00000  Uiso   1.00
Cu1768 Cu    0.95311   0.83333   0.75000   0.00000  Uiso   1.00
H1769  H     0.94073   0.84081   0.54562   0.00000  Uiso   1.00
H1770  H     0.74579   0.90391   0.96413   0.00000  Uiso   1.00
H1771  H     0.97887   0.87550   0.61366   0.00000  Uiso   1.00
H1772  H     0.69733   0.83988   0.89076   0.00000  Uiso   1.00
H1773  H     0.85637   0.84750   0.58598   0.00000  Uiso   1.00
H1774  H     0.82715   0.88566   0.92227   0.00000  Uiso   1.00
H1775  H     0.68613   0.96328   0.67831   0.00000  Uiso   1.00
H1776  H     0.98355   0.70345   0.82222   0.00000  Uiso   1.00
N1777  N     0.78403   0.83334   0.74999   0.00000  Uiso   1.00
N1778  N     0.88264   0.83332   0.75001   0.00000  Uiso   1.00
O1779  O     0.70625   0.77322   0.75000   0.00000  Uiso   1.00
O1780  O     0.96042   0.89345   0.75000   0.00000  Uiso   1.00
O1781  O     0.96039   0.77321   0.75001   0.00000  Uiso   1.00
O1782  O     0.70628   0.89346   0.74999   0.00000  Uiso   1.00
O1783  O     0.68519   0.83334   0.81491   0.00000  Uiso   1.00
O1784  O     0.98148   0.83332   0.68509   0.00000  Uiso   1.00
O1785  O     0.93933   0.83333   0.81492   0.00000  Uiso   1.00
O1786  O     0.72733   0.83333   0.68508   0.00000  Uiso   1.00
O1787  O     0.78475   0.80713   0.60965   0.00000  Uiso   1.00
C1788  C     0.78053   0.76806   0.59146   0.00000  Uiso   1.00
H1789  H     0.79986   0.76812   0.55493   0.00000  Uiso   1.00
H1790  H     0.74192   0.75866   0.59741   0.00000  Uiso   1.00
H1791  H     0.79763   0.74426   0.60831   0.00000  Uiso   1.00
O1792  O     0.87324   0.82442   0.89134   0.00000  Uiso   1.00
C1793  C     0.86594   0.78149   0.90279   0.00000  Uiso   1.00
H1794  H     0.85584   0.77524   0.93975   0.00000  Uiso   1.00
H1795  H     0.89855   0.76333   0.88561   0.00000  Uiso   1.00
H1796  H     0.83545   0.77003   0.89167   0.00000  Uiso   1.00
O1797  O     0.68068   0.83578   0.97759   0.00000  Uiso   1.00
C1798  C     0.69079   0.79335   0.98299   0.00000  Uiso   1.00
H1799  H     0.99108   0.77561   0.50238   0.00000  Uiso   1.00
H1800  H     0.70706   0.77902   0.95003   0.00000  Uiso   1.00
H1801  H     0.71766   0.79098   0.50227   0.00000  Uiso   1.00
O1802  O     0.67261   0.90783   0.53100   0.00000  Uiso   1.00
C1803  C     0.99503   0.94641   0.55199   0.00000  Uiso   1.00
H1804  H     0.69499   0.96298   0.55406   0.00000  Uiso   1.00
H1805  H     0.96868   0.94239   0.58589   0.00000  Uiso   1.00
H1806  H     0.97777   0.96651   0.53154   0.00000  Uiso   1.00
O1807  O     0.68576   0.71248   0.66932   0.00000  Uiso   1.00
C1808  C     0.98128   0.70713   0.64951   0.00000  Uiso   1.00
H1809  H     0.98726   0.72932   0.62040   0.00000  Uiso   1.00
H1810  H     0.94527   0.71415   0.67324   0.00000  Uiso   1.00
H1811  H     0.98118   0.67518   0.63671   0.00000  Uiso   1.00
O1812  O     0.98114   0.95464   0.83147   0.00000  Uiso   1.00
C1813  C     0.93078   0.95239   0.85255   0.00000  Uiso   1.00
H1814  H     0.92426   0.93344   0.88414   0.00000  Uiso   1.00
H1815  H     0.91144   0.93673   0.83114   0.00000  Uiso   1.00
H1816  H     0.91547   0.98382   0.86155   0.00000  Uiso   1.00
O1817  O     0.86552   0.77556   0.80173   0.00000  Uiso   1.00
C1818  C     0.86536   0.73661   0.78158   0.00000  Uiso   1.00
H1819  H     0.88217   0.73847   0.74453   0.00000  Uiso   1.00
H1820  H     0.82824   0.72329   0.78905   0.00000  Uiso   1.00
H1821  H     0.88683   0.71439   0.79582   0.00000  Uiso   1.00
O1822  O     0.80807   0.87200   0.68051   0.00000  Uiso   1.00
C1823  C     0.79621   0.91465   0.68318   0.00000  Uiso   1.00
H1824  H     0.82108   0.93191   0.65431   0.00000  Uiso   1.00
H1825  H     0.79670   0.92938   0.71508   0.00000  Uiso   1.00
H1826  H     0.75996   0.91852   0.67816   0.00000  Uiso   1.00
O1827  O     0.76505   0.77847   0.80369   0.00000  Uiso   1.00
C1828  C     0.76223   0.77795   0.84962   0.00000  Uiso   1.00
H1829  H     0.72374   0.77301   0.86905   0.00000  Uiso   1.00
H1830  H     0.77541   0.80721   0.86088   0.00000  Uiso   1.00
H1831  H     0.78164   0.75052   0.85772   0.00000  Uiso   1.00
O1832  O     0.90250   0.87770   0.68490   0.00000  Uiso   1.00
C1833  C     0.90456   0.92086   0.69194   0.00000  Uiso   1.00
H1834  H     0.94305   0.93026   0.68445   0.00000  Uiso   1.00
H1835  H     0.88508   0.93064   0.72657   0.00000  Uiso   1.00
H1836  H     0.89127   0.93862   0.66707   0.00000  Uiso   1.00
loop_
_geom_bond_atom_site_label_1
_geom_bond_atom_site_label_2
_geom_bond_distance
_geom_bond_site_symmetry_2
_ccdc_geom_bond_type
C1     C12     1.432   .     S
C1     O47     1.293   .     A
C1     O147    1.293   .     S
C2     C11     1.433   .     S
C2     O48     1.293   .     A
C2     O250    1.294   1_455 S
C3     H39     1.081   .     S
C3     C32     1.412   .     A
C3     C5      1.392   .     A
C4     H40     1.082   .     S
C4     C6      1.392   .     A
C4     C31     1.409   .     A
C5     H35     1.083   .     S
C5     C947    1.400   1_554 S
C6     H36     1.083   .     S
C6     C948    1.402   .     S
C7     O73     1.384   .     S
C7     C621    1.393   1_545 S
C7     C216    1.400   1_455 S
C8     O78     1.383   .     S
C8     C316    1.392   .     S
C8     C113    1.401   .     S
C9     C11     1.396   .     A
C9     H41     1.084   .     S
C9     C313    1.393   .     S
C10    H42     1.084   .     S
C10    C12     1.397   .     A
C10    C620    1.392   1_545 S
C11    C212    1.401   1_455 S
C12    C109    1.400   .     S
C13    C15     1.444   .     A
C13    O83     1.382   .     S
C13    N44     1.379   .     A
C14    C16     1.432   .     A
C14    O88     1.384   .     S
C14    N43     1.378   .     A
C15    O93     1.386   .     S
C15    N43     1.365   .     A
C16    N44     1.373   .     A
C16    O98     1.382   .     S
C17    O51     1.307   .     A
C17    C19     1.479   .     S
C17    O151    1.303   .     S
C18    O52     1.299   .     A
C18    C20     1.468   .     S
C18    O254    1.305   1_455 S
C19    C23     1.403   .     A
C19    C25     1.407   .     A
C20    C24     1.399   .     A
C20    C26     1.405   .     A
C21    C29     1.407   .     A
C21    C23     1.398   .     A
C21    O165    1.379   .     S
C22    C24     1.402   .     A
C22    O68     1.386   .     S
C22    C30     1.410   .     A
C23    H140    1.079   .     S
C24    H241    1.081   1_455 S
C25    O58     1.382   .     S
C25    C27     1.411   .     A
C26    O53     1.385   .     S
C26    C28     1.412   .     A
C27    C29     1.414   .     A
C27    C31     1.415   .     A
C28    C32     1.418   .     A
C28    C30     1.418   .     A
C29    C923    1.400   .     S
C30    C924    1.402   1_554 S
C31    C950    1.411   .     S
C32    C949    1.411   1_554 S
Cu33   O45     1.941   .     S
Cu33   O52     1.944   .     S
Cu33   O49     1.949   .     S
Cu33   N43     2.030   .     S
Cu33   O48     1.942   .     S
Cu33   Cu238   2.702   1_455 S
Cu34   O51     1.944   .     S
Cu34   O46     1.941   .     S
Cu34   O50     1.949   .     S
Cu34   N44     2.030   .     S
Cu34   O47     1.942   .     S
Cu34   Cu135   2.702   .     S
H37    C126    1.081   .     S
H38    C227    1.079   1_455 S
O45    C205    1.293   1_455 S
O46    C104    1.294   .     S
O49    C221    1.303   1_455 S
O50    C120    1.305   .     S
O53    C54     1.410   .     S
C54    H56     1.113   .     S
C54    H55     1.112   .     S
C54    H57     1.109   .     S
O58    C59     1.413   .     S
C59    H60     1.114   .     S
C59    H61     1.113   .     S
C59    H62     1.099   .     S
O63    C64     1.409   .     S
O63    C225    1.379   1_455 S
C64    H66     1.111   .     S
C64    H1187   1.114   1_455 S
C64    H985    1.110   .     S
H65    C1084   1.114   1_554 S
H67    C982    1.110   1_554 S
O68    C273    1.411   1_455 S
C69    H71     1.111   .     S
C69    H72     1.109   .     S
C69    O170    1.411   .     S
C69    H172    1.114   .     S
H70    C273    1.114   1_455 S
O73    C278    1.411   1_455 S
C74    H76     1.114   .     S
C74    H77     1.112   .     S
C74    H75     1.109   .     S
C74    O175    1.411   .     S
O78    C79     1.410   .     S
C79    H81     1.114   .     S
C79    H80     1.109   .     S
C79    H82     1.113   .     S
O83    C84     1.416   .     S
C84    H87     1.109   .     S
C84    H86     1.108   .     S
C84    H85     1.114   .     S
O88    C89     1.411   .     S
C89    H91     1.116   .     S
C89    H92     1.107   .     S
C89    H90     1.107   .     S
O93    C94     1.408   .     S
C94    H97     1.106   .     S
C94    H95     1.107   .     S
C94    H96     1.115   .     S
O98    C99     1.413   .     S
C99    H100    1.105   .     S
C99    H101    1.117   .     S
C99    H102    1.104   .     S
C103   C114    1.432   .     S
C103   O149    1.293   .     A
C103   O249    1.293   .     S
C104   C113    1.433   .     S
C104   O150    1.293   .     A
C105   H141    1.081   .     S
C105   C134    1.412   .     A
C105   C107    1.392   .     A
C106   H142    1.082   .     S
C106   C108    1.392   .     A
C106   C133    1.409   .     A
C107   H137    1.083   .     S
C107   C1049   1.400   1_554 S
C108   H138    1.083   .     S
C108   C1050   1.402   .     S
C109   O175    1.384   .     S
C109   C723    1.393   1_545 S
C110   O180    1.383   .     S
C110   C418    1.392   .     S
C110   C215    1.401   .     S
C111   C113    1.396   .     A
C111   H143    1.084   .     S
C111   C415    1.393   .     S
C112   H144    1.084   .     S
C112   C114    1.397   .     A
C112   C722    1.392   1_545 S
C114   C211    1.400   .     S
C115   C117    1.444   .     A
C115   O185    1.382   .     S
C115   N146    1.379   .     A
C116   C118    1.432   .     A
C116   O190    1.384   .     S
C116   N145    1.378   .     A
C117   O195    1.386   .     S
C117   N145    1.365   .     A
C118   N146    1.373   .     A
C118   O200    1.382   .     S
C119   O153    1.307   .     A
C119   C121    1.479   .     S
C119   O253    1.303   .     S
C120   O154    1.299   .     A
C120   C122    1.468   .     S
C121   C125    1.403   .     A
C121   C127    1.407   .     A
C122   C126    1.399   .     A
C122   C128    1.405   .     A
C123   C131    1.407   .     A
C123   C125    1.398   .     A
C123   O267    1.379   .     S
C124   C126    1.402   .     A
C124   O170    1.386   .     S
C124   C132    1.410   .     A
C125   H242    1.079   .     S
C127   O160    1.382   .     S
C127   C129    1.411   .     A
C128   O155    1.385   .     S
C128   C130    1.412   .     A
C129   C131    1.414   .     A
C129   C133    1.415   .     A
C130   C134    1.418   .     A
C130   C132    1.418   .     A
C131   C1025   1.400   .     S
C132   C1026   1.402   1_554 S
C133   C1052   1.411   .     S
C134   C1051   1.411   1_554 S
Cu135  O147    1.941   .     S
Cu135  O154    1.944   .     S
Cu135  O151    1.949   .     S
Cu135  N145    2.030   .     S
Cu135  O150    1.942   .     S
Cu136  O153    1.944   .     S
Cu136  O148    1.941   .     S
Cu136  O152    1.949   .     S
Cu136  N146    2.030   .     S
Cu136  O149    1.942   .     S
Cu136  Cu237   2.702   .     S
H139   C228    1.081   .     S
O148   C206    1.294   .     S
O152   C222    1.305   .     S
O155   C156    1.410   .     S
C156   H158    1.113   .     S
C156   H157    1.112   .     S
C156   H159    1.109   .     S
O160   C161    1.413   .     S
C161   H162    1.114   .     S
C161   H163    1.113   .     S
C161   H164    1.099   .     S
O165   C166    1.409   .     S
C166   H168    1.111   .     S
C166   H983    1.114   .     S
C166   H1087   1.110   .     S
H167   C1186   1.114   1_554 S
H169   C1084   1.110   1_554 S
C171   H173    1.111   .     S
C171   H174    1.109   .     S
C171   O272    1.411   .     S
C171   H274    1.114   .     S
C176   H178    1.114   .     S
C176   H179    1.112   .     S
C176   H177    1.109   .     S
C176   O277    1.411   .     S
O180   C181    1.410   .     S
C181   H183    1.114   .     S
C181   H182    1.109   .     S
C181   H184    1.113   .     S
O185   C186    1.416   .     S
C186   H189    1.109   .     S
C186   H188    1.108   .     S
C186   H187    1.114   .     S
O190   C191    1.411   .     S
C191   H193    1.116   .     S
C191   H194    1.107   .     S
C191   H192    1.107   .     S
O195   C196    1.408   .     S
C196   H199    1.106   .     S
C196   H197    1.107   .     S
C196   H198    1.115   .     S
O200   C201    1.413   .     S
C201   H202    1.105   .     S
C201   H203    1.117   .     S
C201   H204    1.104   .     S
C205   C216    1.432   .     S
C205   O251    1.293   .     A
C205   O45     1.293   1_655 S
C206   C215    1.433   .     S
C206   O252    1.293   .     A
C207   H243    1.081   .     S
C207   C236    1.412   .     A
C207   C209    1.392   .     A
C208   H244    1.082   .     S
C208   C210    1.392   .     A
C208   C235    1.409   .     A
C209   H239    1.083   .     S
C209   C1151   1.400   1_554 S
C210   H240    1.083   .     S
C210   C1152   1.402   .     S
C211   O277    1.384   .     S
C211   C825    1.393   1_545 S
C212   O282    1.383   .     S
C212   C520    1.392   .     S
C212   C11     1.401   1_655 S
C213   C215    1.396   .     A
C213   H245    1.084   .     S
C213   C517    1.393   .     S
C214   H246    1.084   .     S
C214   C216    1.397   .     A
C214   C824    1.392   1_545 S
C216   C7      1.400   1_655 S
C217   C219    1.444   .     A
C217   O287    1.382   .     S
C217   N248    1.379   .     A
C218   C220    1.432   .     A
C218   O292    1.384   .     S
C218   N247    1.378   .     A
C219   O297    1.386   .     S
C219   N247    1.365   .     A
C220   N248    1.373   .     A
C220   O302    1.382   .     S
C221   O255    1.307   .     A
C221   C223    1.479   .     S
C221   O49     1.303   1_655 S
C222   O256    1.299   .     A
C222   C224    1.468   .     S
C223   C227    1.403   .     A
C223   C229    1.407   .     A
C224   C228    1.399   .     A
C224   C230    1.405   .     A
C225   C233    1.407   .     A
C225   C227    1.398   .     A
C225   O63     1.379   1_655 S
C226   C228    1.402   .     A
C226   O272    1.386   .     S
C226   C234    1.410   .     A
C227   H38     1.079   1_655 S
C229   O262    1.382   .     S
C229   C231    1.411   .     A
C230   O257    1.385   .     S
C230   C232    1.412   .     A
C231   C233    1.414   .     A
C231   C235    1.415   .     A
C232   C236    1.418   .     A
C232   C234    1.418   .     A
C233   C1127   1.400   .     S
C234   C1128   1.402   1_554 S
C235   C1154   1.411   .     S
C236   C1153   1.411   1_554 S
Cu237  O249    1.941   .     S
Cu237  O256    1.944   .     S
Cu237  O253    1.949   .     S
Cu237  N247    2.030   .     S
Cu237  O252    1.942   .     S
Cu238  O255    1.944   .     S
Cu238  O250    1.941   .     S
Cu238  O254    1.949   .     S
Cu238  N248    2.030   .     S
Cu238  O251    1.942   .     S
Cu238  Cu33    2.702   1_655 S
H241   C24     1.081   1_655 S
O250   C2      1.294   1_655 S
O254   C18     1.305   1_655 S
O257   C258    1.410   .     S
C258   H260    1.113   .     S
C258   H259    1.112   .     S
C258   H261    1.109   .     S
O262   C263    1.413   .     S
C263   H264    1.114   .     S
C263   H265    1.113   .     S
C263   H266    1.099   .     S
O267   C268    1.409   .     S
C268   H270    1.111   .     S
C268   H1085   1.114   .     S
C268   H1189   1.110   .     S
H269   C982    1.114   1_654 S
H271   C1186   1.110   1_554 S
C273   H275    1.111   .     S
C273   H276    1.109   .     S
C273   O68     1.411   1_655 S
C273   H70     1.114   1_655 S
C278   H280    1.114   .     S
C278   H281    1.112   .     S
C278   H279    1.109   .     S
C278   O73     1.411   1_655 S
O282   C283    1.410   .     S
C283   H285    1.114   .     S
C283   H284    1.109   .     S
C283   H286    1.113   .     S
O287   C288    1.416   .     S
C288   H291    1.109   .     S
C288   H290    1.108   .     S
C288   H289    1.114   .     S
O292   C293    1.411   .     S
C293   H295    1.116   .     S
C293   H296    1.107   .     S
C293   H294    1.107   .     S
O297   C298    1.408   .     S
C298   H301    1.106   .     S
C298   H299    1.107   .     S
C298   H300    1.115   .     S
O302   C303    1.413   .     S
C303   H304    1.105   .     S
C303   H305    1.117   .     S
C303   H306    1.104   .     S
C307   C318    1.432   .     S
C307   O353    1.293   .     A
C307   O453    1.293   .     S
C308   C317    1.433   .     S
C308   O354    1.293   .     A
C308   O556    1.294   1_455 S
C309   H345    1.081   .     S
C309   C338    1.412   .     A
C309   C311    1.392   .     A
C310   H346    1.082   .     S
C310   C312    1.392   .     A
C310   C337    1.409   .     A
C311   H341    1.083   .     S
C311   C1253   1.400   1_554 S
C312   H342    1.083   .     S
C312   C1254   1.402   .     S
C313   O379    1.384   .     S
C313   C522    1.400   1_455 S
C314   O384    1.383   .     S
C314   C622    1.392   .     S
C314   C419    1.401   .     S
C315   C317    1.396   .     A
C315   H347    1.084   .     S
C315   C619    1.393   .     S
C316   H348    1.084   .     S
C316   C318    1.397   .     A
C317   C518    1.401   1_455 S
C318   C415    1.400   .     S
C319   C321    1.444   .     A
C319   O389    1.382   .     S
C319   N350    1.379   .     A
C320   C322    1.432   .     A
C320   O394    1.384   .     S
C320   N349    1.378   .     A
C321   O399    1.386   .     S
C321   N349    1.365   .     A
C322   N350    1.373   .     A
C322   O404    1.382   .     S
C323   O357    1.307   .     A
C323   C325    1.479   .     S
C323   O457    1.303   .     S
C324   O358    1.299   .     A
C324   C326    1.468   .     S
C324   O560    1.305   1_455 S
C325   C329    1.403   .     A
C325   C331    1.407   .     A
C326   C330    1.399   .     A
C326   C332    1.405   .     A
C327   C335    1.407   .     A
C327   C329    1.398   .     A
C327   O471    1.379   .     S
C328   C330    1.402   .     A
C328   O374    1.386   .     S
C328   C336    1.410   .     A
C329   H446    1.079   .     S
C330   H547    1.081   1_455 S
C331   O364    1.382   .     S
C331   C333    1.411   .     A
C332   O359    1.385   .     S
C332   C334    1.412   .     A
C333   C335    1.414   .     A
C333   C337    1.415   .     A
C334   C338    1.418   .     A
C334   C336    1.418   .     A
C335   C1229   1.400   .     S
C336   C1230   1.402   1_554 S
C337   C1256   1.411   .     S
C338   C1255   1.411   1_554 S
Cu339  O351    1.941   .     S
Cu339  O358    1.944   .     S
Cu339  O355    1.949   .     S
Cu339  N349    2.030   .     S
Cu339  O354    1.942   .     S
Cu339  Cu544   2.702   1_455 S
Cu340  O357    1.944   .     S
Cu340  O352    1.941   .     S
Cu340  O356    1.949   .     S
Cu340  N350    2.030   .     S
Cu340  O353    1.942   .     S
Cu340  Cu441   2.702   .     S
H343   C432    1.081   .     S
H344   C533    1.079   1_455 S
O351   C511    1.293   1_455 S
O352   C410    1.294   .     S
O355   C527    1.303   1_455 S
O356   C426    1.305   .     S
O359   C360    1.410   .     S
C360   H362    1.113   .     S
C360   H361    1.112   .     S
C360   H363    1.109   .     S
O364   C365    1.413   .     S
C365   H366    1.114   .     S
C365   H367    1.113   .     S
C365   H368    1.099   .     S
O369   C370    1.409   .     S
O369   C531    1.379   1_455 S
C370   H372    1.111   .     S
C370   H1493   1.114   1_455 S
C370   H1291   1.110   .     S
H371   C1390   1.114   1_554 S
H373   C1288   1.110   1_554 S
O374   C579    1.411   1_455 S
C375   H377    1.111   .     S
C375   H378    1.109   .     S
C375   O476    1.411   .     S
C375   H478    1.114   .     S
H376   C579    1.114   1_455 S
O379   C584    1.411   1_455 S
C380   H382    1.114   .     S
C380   H383    1.112   .     S
C380   H381    1.109   .     S
C380   O481    1.411   .     S
O384   C385    1.410   .     S
C385   H387    1.114   .     S
C385   H386    1.109   .     S
C385   H388    1.113   .     S
O389   C390    1.416   .     S
C390   H393    1.109   .     S
C390   H392    1.108   .     S
C390   H391    1.114   .     S
O394   C395    1.411   .     S
C395   H397    1.116   .     S
C395   H398    1.107   .     S
C395   H396    1.107   .     S
O399   C400    1.408   .     S
C400   H403    1.106   .     S
C400   H401    1.107   .     S
C400   H402    1.115   .     S
O404   C405    1.413   .     S
C405   H406    1.105   .     S
C405   H407    1.117   .     S
C405   H408    1.104   .     S
C409   C420    1.432   .     S
C409   O455    1.293   .     A
C409   O555    1.293   .     S
C410   C419    1.433   .     S
C410   O456    1.293   .     A
C411   H447    1.081   .     S
C411   C440    1.412   .     A
C411   C413    1.392   .     A
C412   H448    1.082   .     S
C412   C414    1.392   .     A
C412   C439    1.409   .     A
C413   H443    1.083   .     S
C413   C1355   1.400   1_554 S
C414   H444    1.083   .     S
C414   C1356   1.402   .     S
C415   O481    1.384   .     S
C416   O486    1.383   .     S
C416   C724    1.392   .     S
C416   C521    1.401   .     S
C417   C419    1.396   .     A
C417   H449    1.084   .     S
C417   C721    1.393   .     S
C418   H450    1.084   .     S
C418   C420    1.397   .     A
C420   C517    1.400   .     S
C421   C423    1.444   .     A
C421   O491    1.382   .     S
C421   N452    1.379   .     A
C422   C424    1.432   .     A
C422   O496    1.384   .     S
C422   N451    1.378   .     A
C423   O501    1.386   .     S
C423   N451    1.365   .     A
C424   N452    1.373   .     A
C424   O506    1.382   .     S
C425   O459    1.307   .     A
C425   C427    1.479   .     S
C425   O559    1.303   .     S
C426   O460    1.299   .     A
C426   C428    1.468   .     S
C427   C431    1.403   .     A
C427   C433    1.407   .     A
C428   C432    1.399   .     A
C428   C434    1.405   .     A
C429   C437    1.407   .     A
C429   C431    1.398   .     A
C429   O573    1.379   .     S
C430   C432    1.402   .     A
C430   O476    1.386   .     S
C430   C438    1.410   .     A
C431   H548    1.079   .     S
C433   O466    1.382   .     S
C433   C435    1.411   .     A
C434   O461    1.385   .     S
C434   C436    1.412   .     A
C435   C437    1.414   .     A
C435   C439    1.415   .     A
C436   C440    1.418   .     A
C436   C438    1.418   .     A
C437   C1331   1.400   .     S
C438   C1332   1.402   1_554 S
C439   C1358   1.411   .     S
C440   C1357   1.411   1_554 S
Cu441  O453    1.941   .     S
Cu441  O460    1.944   .     S
Cu441  O457    1.949   .     S
Cu441  N451    2.030   .     S
Cu441  O456    1.942   .     S
Cu442  O459    1.944   .     S
Cu442  O454    1.941   .     S
Cu442  O458    1.949   .     S
Cu442  N452    2.030   .     S
Cu442  O455    1.942   .     S
Cu442  Cu543   2.702   .     S
H445   C534    1.081   .     S
O454   C512    1.294   .     S
O458   C528    1.305   .     S
O461   C462    1.410   .     S
C462   H464    1.113   .     S
C462   H463    1.112   .     S
C462   H465    1.109   .     S
O466   C467    1.413   .     S
C467   H468    1.114   .     S
C467   H469    1.113   .     S
C467   H470    1.099   .     S
O471   C472    1.409   .     S
C472   H474    1.111   .     S
C472   H1289   1.114   .     S
C472   H1393   1.110   .     S
H473   C1492   1.114   1_554 S
H475   C1390   1.110   1_554 S
C477   H479    1.111   .     S
C477   H480    1.109   .     S
C477   O578    1.411   .     S
C477   H580    1.114   .     S
C482   H484    1.114   .     S
C482   H485    1.112   .     S
C482   H483    1.109   .     S
C482   O583    1.411   .     S
O486   C487    1.410   .     S
C487   H489    1.114   .     S
C487   H488    1.109   .     S
C487   H490    1.113   .     S
O491   C492    1.416   .     S
C492   H495    1.109   .     S
C492   H494    1.108   .     S
C492   H493    1.114   .     S
O496   C497    1.411   .     S
C497   H499    1.116   .     S
C497   H500    1.107   .     S
C497   H498    1.107   .     S
O501   C502    1.408   .     S
C502   H505    1.106   .     S
C502   H503    1.107   .     S
C502   H504    1.115   .     S
O506   C507    1.413   .     S
C507   H508    1.105   .     S
C507   H509    1.117   .     S
C507   H510    1.104   .     S
C511   C522    1.432   .     S
C511   O557    1.293   .     A
C511   O351    1.293   1_655 S
C512   C521    1.433   .     S
C512   O558    1.293   .     A
C513   H549    1.081   .     S
C513   C542    1.412   .     A
C513   C515    1.392   .     A
C514   H550    1.082   .     S
C514   C516    1.392   .     A
C514   C541    1.409   .     A
C515   H545    1.083   .     S
C515   C1457   1.400   1_554 S
C516   H546    1.083   .     S
C516   C1458   1.402   .     S
C517   O583    1.384   .     S
C518   O588    1.383   .     S
C518   C826    1.392   .     S
C518   C317    1.401   1_655 S
C519   C521    1.396   .     A
C519   H551    1.084   .     S
C519   C823    1.393   .     S
C520   H552    1.084   .     S
C520   C522    1.397   .     A
C522   C313    1.400   1_655 S
C523   C525    1.444   .     A
C523   O593    1.382   .     S
C523   N554    1.379   .     A
C524   C526    1.432   .     A
C524   O598    1.384   .     S
C524   N553    1.378   .     A
C525   O603    1.386   .     S
C525   N553    1.365   .     A
C526   N554    1.373   .     A
C526   O608    1.382   .     S
C527   O561    1.307   .     A
C527   C529    1.479   .     S
C527   O355    1.303   1_655 S
C528   O562    1.299   .     A
C528   C530    1.468   .     S
C529   C533    1.403   .     A
C529   C535    1.407   .     A
C530   C534    1.399   .     A
C530   C536    1.405   .     A
C531   C539    1.407   .     A
C531   C533    1.398   .     A
C531   O369    1.379   1_655 S
C532   C534    1.402   .     A
C532   O578    1.386   .     S
C532   C540    1.410   .     A
C533   H344    1.079   1_655 S
C535   O568    1.382   .     S
C535   C537    1.411   .     A
C536   O563    1.385   .     S
C536   C538    1.412   .     A
C537   C539    1.414   .     A
C537   C541    1.415   .     A
C538   C542    1.418   .     A
C538   C540    1.418   .     A
C539   C1433   1.400   .     S
C540   C1434   1.402   1_554 S
C541   C1460   1.411   .     S
C542   C1459   1.411   1_554 S
Cu543  O555    1.941   .     S
Cu543  O562    1.944   .     S
Cu543  O559    1.949   .     S
Cu543  N553    2.030   .     S
Cu543  O558    1.942   .     S
Cu544  O561    1.944   .     S
Cu544  O556    1.941   .     S
Cu544  O560    1.949   .     S
Cu544  N554    2.030   .     S
Cu544  O557    1.942   .     S
Cu544  Cu339   2.702   1_655 S
H547   C330    1.081   1_655 S
O556   C308    1.294   1_655 S
O560   C324    1.305   1_655 S
O563   C564    1.410   .     S
C564   H566    1.113   .     S
C564   H565    1.112   .     S
C564   H567    1.109   .     S
O568   C569    1.413   .     S
C569   H570    1.114   .     S
C569   H571    1.113   .     S
C569   H572    1.099   .     S
O573   C574    1.409   .     S
C574   H576    1.111   .     S
C574   H1391   1.114   .     S
C574   H1495   1.110   .     S
H575   C1288   1.114   1_654 S
H577   C1492   1.110   1_554 S
C579   H581    1.111   .     S
C579   H582    1.109   .     S
C579   O374    1.411   1_655 S
C579   H376    1.114   1_655 S
C584   H586    1.114   .     S
C584   H587    1.112   .     S
C584   H585    1.109   .     S
C584   O379    1.411   1_655 S
O588   C589    1.410   .     S
C589   H591    1.114   .     S
C589   H590    1.109   .     S
C589   H592    1.113   .     S
O593   C594    1.416   .     S
C594   H597    1.109   .     S
C594   H596    1.108   .     S
C594   H595    1.114   .     S
O598   C599    1.411   .     S
C599   H601    1.116   .     S
C599   H602    1.107   .     S
C599   H600    1.107   .     S
O603   C604    1.408   .     S
C604   H607    1.106   .     S
C604   H605    1.107   .     S
C604   H606    1.115   .     S
O608   C609    1.413   .     S
C609   H610    1.105   .     S
C609   H611    1.117   .     S
C609   H612    1.104   .     S
C613   C624    1.432   .     S
C613   O659    1.293   .     A
C613   O759    1.293   .     S
C614   C623    1.433   .     S
C614   O660    1.293   .     A
C614   O862    1.294   1_455 S
C615   H651    1.081   .     S
C615   C644    1.412   .     A
C615   C617    1.392   .     A
C616   H652    1.082   .     S
C616   C618    1.392   .     A
C616   C643    1.409   .     A
C617   H647    1.083   .     S
C617   C1559   1.400   1_554 S
C618   H648    1.083   .     S
C618   C1560   1.402   .     S
C619   O685    1.384   .     S
C619   C828    1.400   1_455 S
C620   O690    1.383   .     S
C620   C10     1.392   1_565 S
C620   C725    1.401   .     S
C621   C623    1.396   .     A
C621   H653    1.084   .     S
C621   C7      1.393   1_565 S
C622   H654    1.084   .     S
C622   C624    1.397   .     A
C623   C824    1.401   1_455 S
C624   C721    1.400   .     S
C625   C627    1.444   .     A
C625   O695    1.382   .     S
C625   N656    1.379   .     A
C626   C628    1.432   .     A
C626   O700    1.384   .     S
C626   N655    1.378   .     A
C627   O705    1.386   .     S
C627   N655    1.365   .     A
C628   N656    1.373   .     A
C628   O710    1.382   .     S
C629   O663    1.307   .     A
C629   C631    1.479   .     S
C629   O763    1.303   .     S
C630   O664    1.299   .     A
C630   C632    1.468   .     S
C630   O866    1.305   1_455 S
C631   C635    1.403   .     A
C631   C637    1.407   .     A
C632   C636    1.399   .     A
C632   C638    1.405   .     A
C633   C641    1.407   .     A
C633   C635    1.398   .     A
C633   O777    1.379   .     S
C634   C636    1.402   .     A
C634   O680    1.386   .     S
C634   C642    1.410   .     A
C635   H752    1.079   .     S
C636   H853    1.081   1_455 S
C637   O670    1.382   .     S
C637   C639    1.411   .     A
C638   O665    1.385   .     S
C638   C640    1.412   .     A
C639   C641    1.414   .     A
C639   C643    1.415   .     A
C640   C644    1.418   .     A
C640   C642    1.418   .     A
C641   C1535   1.400   .     S
C642   C1536   1.402   1_554 S
C643   C1562   1.411   .     S
C644   C1561   1.411   1_554 S
Cu645  O657    1.941   .     S
Cu645  O664    1.944   .     S
Cu645  O661    1.949   .     S
Cu645  N655    2.030   .     S
Cu645  O660    1.942   .     S
Cu645  Cu850   2.702   1_455 S
Cu646  O663    1.944   .     S
Cu646  O658    1.941   .     S
Cu646  O662    1.949   .     S
Cu646  N656    2.030   .     S
Cu646  O659    1.942   .     S
Cu646  Cu747   2.702   .     S
H649   C738    1.081   .     S
H650   C839    1.079   1_455 S
O657   C817    1.293   1_455 S
O658   C716    1.294   .     S
O661   C833    1.303   1_455 S
O662   C732    1.305   .     S
O665   C666    1.410   .     S
C666   H668    1.113   .     S
C666   H667    1.112   .     S
C666   H669    1.109   .     S
O670   C671    1.413   .     S
C671   H672    1.114   .     S
C671   H673    1.113   .     S
C671   H674    1.099   .     S
O675   C676    1.409   .     S
O675   C837    1.379   1_455 S
C676   H678    1.111   .     S
C676   H1799   1.114   1_455 S
C676   H1597   1.110   .     S
H677   C1696   1.114   1_554 S
H679   C1594   1.110   1_554 S
O680   C885    1.411   1_455 S
C681   H683    1.111   .     S
C681   H684    1.109   .     S
C681   O782    1.411   .     S
C681   H784    1.114   .     S
H682   C885    1.114   1_455 S
O685   C890    1.411   1_455 S
C686   H688    1.114   .     S
C686   H689    1.112   .     S
C686   H687    1.109   .     S
C686   O787    1.411   .     S
O690   C691    1.410   .     S
C691   H693    1.114   .     S
C691   H692    1.109   .     S
C691   H694    1.113   .     S
O695   C696    1.416   .     S
C696   H699    1.109   .     S
C696   H698    1.108   .     S
C696   H697    1.114   .     S
O700   C701    1.411   .     S
C701   H703    1.116   .     S
C701   H704    1.107   .     S
C701   H702    1.107   .     S
O705   C706    1.408   .     S
C706   H709    1.106   .     S
C706   H707    1.107   .     S
C706   H708    1.115   .     S
O710   C711    1.413   .     S
C711   H712    1.105   .     S
C711   H713    1.117   .     S
C711   H714    1.104   .     S
C715   C726    1.432   .     S
C715   O761    1.293   .     A
C715   O861    1.293   .     S
C716   C725    1.433   .     S
C716   O762    1.293   .     A
C717   H753    1.081   .     S
C717   C746    1.412   .     A
C717   C719    1.392   .     A
C718   H754    1.082   .     S
C718   C720    1.392   .     A
C718   C745    1.409   .     A
C719   H749    1.083   .     S
C719   C1661   1.400   1_554 S
C720   H750    1.083   .     S
C720   C1662   1.402   .     S
C721   O787    1.384   .     S
C722   O792    1.383   .     S
C722   C112    1.392   1_565 S
C722   C827    1.401   .     S
C723   C725    1.396   .     A
C723   H755    1.084   .     S
C723   C109    1.393   1_565 S
C724   H756    1.084   .     S
C724   C726    1.397   .     A
C726   C823    1.400   .     S
C727   C729    1.444   .     A
C727   O797    1.382   .     S
C727   N758    1.379   .     A
C728   C730    1.432   .     A
C728   O802    1.384   .     S
C728   N757    1.378   .     A
C729   O807    1.386   .     S
C729   N757    1.365   .     A
C730   N758    1.373   .     A
C730   O812    1.382   .     S
C731   O765    1.307   .     A
C731   C733    1.479   .     S
C731   O865    1.303   .     S
C732   O766    1.299   .     A
C732   C734    1.468   .     S
C733   C737    1.403   .     A
C733   C739    1.407   .     A
C734   C738    1.399   .     A
C734   C740    1.405   .     A
C735   C743    1.407   .     A
C735   C737    1.398   .     A
C735   O879    1.379   .     S
C736   C738    1.402   .     A
C736   O782    1.386   .     S
C736   C744    1.410   .     A
C737   H854    1.079   .     S
C739   O772    1.382   .     S
C739   C741    1.411   .     A
C740   O767    1.385   .     S
C740   C742    1.412   .     A
C741   C743    1.414   .     A
C741   C745    1.415   .     A
C742   C746    1.418   .     A
C742   C744    1.418   .     A
C743   C1637   1.400   .     S
C744   C1638   1.402   1_554 S
C745   C1664   1.411   .     S
C746   C1663   1.411   1_554 S
Cu747  O759    1.941   .     S
Cu747  O766    1.944   .     S
Cu747  O763    1.949   .     S
Cu747  N757    2.030   .     S
Cu747  O762    1.942   .     S
Cu748  O765    1.944   .     S
Cu748  O760    1.941   .     S
Cu748  O764    1.949   .     S
Cu748  N758    2.030   .     S
Cu748  O761    1.942   .     S
Cu748  Cu849   2.702   .     S
H751   C840    1.081   .     S
O760   C818    1.294   .     S
O764   C834    1.305   .     S
O767   C768    1.410   .     S
C768   H770    1.113   .     S
C768   H769    1.112   .     S
C768   H771    1.109   .     S
O772   C773    1.413   .     S
C773   H774    1.114   .     S
C773   H775    1.113   .     S
C773   H776    1.099   .     S
O777   C778    1.409   .     S
C778   H780    1.111   .     S
C778   H1595   1.114   .     S
C778   H1699   1.110   .     S
H779   C1798   1.114   1_554 S
H781   C1696   1.110   1_554 S
C783   H785    1.111   .     S
C783   H786    1.109   .     S
C783   O884    1.411   .     S
C783   H886    1.114   .     S
C788   H790    1.114   .     S
C788   H791    1.112   .     S
C788   H789    1.109   .     S
C788   O889    1.411   .     S
O792   C793    1.410   .     S
C793   H795    1.114   .     S
C793   H794    1.109   .     S
C793   H796    1.113   .     S
O797   C798    1.416   .     S
C798   H801    1.109   .     S
C798   H800    1.108   .     S
C798   H799    1.114   .     S
O802   C803    1.411   .     S
C803   H805    1.116   .     S
C803   H806    1.107   .     S
C803   H804    1.107   .     S
O807   C808    1.408   .     S
C808   H811    1.106   .     S
C808   H809    1.107   .     S
C808   H810    1.115   .     S
O812   C813    1.413   .     S
C813   H814    1.105   .     S
C813   H815    1.117   .     S
C813   H816    1.104   .     S
C817   C828    1.432   .     S
C817   O863    1.293   .     A
C817   O657    1.293   1_655 S
C818   C827    1.433   .     S
C818   O864    1.293   .     A
C819   H855    1.081   .     S
C819   C848    1.412   .     A
C819   C821    1.392   .     A
C820   H856    1.082   .     S
C820   C822    1.392   .     A
C820   C847    1.409   .     A
C821   H851    1.083   .     S
C821   C1763   1.400   1_554 S
C822   H852    1.083   .     S
C822   C1764   1.402   .     S
C823   O889    1.384   .     S
C824   O894    1.383   .     S
C824   C214    1.392   1_565 S
C824   C623    1.401   1_655 S
C825   C827    1.396   .     A
C825   H857    1.084   .     S
C825   C211    1.393   1_565 S
C826   H858    1.084   .     S
C826   C828    1.397   .     A
C828   C619    1.400   1_655 S
C829   C831    1.444   .     A
C829   O899    1.382   .     S
C829   N860    1.379   .     A
C830   C832    1.432   .     A
C830   O904    1.384   .     S
C830   N859    1.378   .     A
C831   O909    1.386   .     S
C831   N859    1.365   .     A
C832   N860    1.373   .     A
C832   O914    1.382   .     S
C833   O867    1.307   .     A
C833   C835    1.479   .     S
C833   O661    1.303   1_655 S
C834   O868    1.299   .     A
C834   C836    1.468   .     S
C835   C839    1.403   .     A
C835   C841    1.407   .     A
C836   C840    1.399   .     A
C836   C842    1.405   .     A
C837   C845    1.407   .     A
C837   C839    1.398   .     A
C837   O675    1.379   1_655 S
C838   C840    1.402   .     A
C838   O884    1.386   .     S
C838   C846    1.410   .     A
C839   H650    1.079   1_655 S
C841   O874    1.382   .     S
C841   C843    1.411   .     A
C842   O869    1.385   .     S
C842   C844    1.412   .     A
C843   C845    1.414   .     A
C843   C847    1.415   .     A
C844   C848    1.418   .     A
C844   C846    1.418   .     A
C845   C1739   1.400   .     S
C846   C1740   1.402   1_554 S
C847   C1766   1.411   .     S
C848   C1765   1.411   1_554 S
Cu849  O861    1.941   .     S
Cu849  O868    1.944   .     S
Cu849  O865    1.949   .     S
Cu849  N859    2.030   .     S
Cu849  O864    1.942   .     S
Cu850  O867    1.944   .     S
Cu850  O862    1.941   .     S
Cu850  O866    1.949   .     S
Cu850  N860    2.030   .     S
Cu850  O863    1.942   .     S
Cu850  Cu645   2.702   1_655 S
H853   C636    1.081   1_655 S
O862   C614    1.294   1_655 S
O866   C630    1.305   1_655 S
O869   C870    1.410   .     S
C870   H872    1.113   .     S
C870   H871    1.112   .     S
C870   H873    1.109   .     S
O874   C875    1.413   .     S
C875   H876    1.114   .     S
C875   H877    1.113   .     S
C875   H878    1.099   .     S
O879   C880    1.409   .     S
C880   H882    1.111   .     S
C880   H1697   1.114   .     S
C880   H1801   1.110   .     S
H881   C1594   1.114   1_654 S
H883   C1798   1.110   1_554 S
C885   H887    1.111   .     S
C885   H888    1.109   .     S
C885   O680    1.411   1_655 S
C885   H682    1.114   1_655 S
C890   H892    1.114   .     S
C890   H893    1.112   .     S
C890   H891    1.109   .     S
C890   O685    1.411   1_655 S
O894   C895    1.410   .     S
C895   H897    1.114   .     S
C895   H896    1.109   .     S
C895   H898    1.113   .     S
O899   C900    1.416   .     S
C900   H903    1.109   .     S
C900   H902    1.108   .     S
C900   H901    1.114   .     S
O904   C905    1.411   .     S
C905   H907    1.116   .     S
C905   H908    1.107   .     S
C905   H906    1.107   .     S
O909   C910    1.408   .     S
C910   H913    1.106   .     S
C910   H911    1.107   .     S
C910   H912    1.115   .     S
O914   C915    1.413   .     S
C915   H916    1.105   .     S
C915   H917    1.117   .     S
C915   H918    1.104   .     S
C919   C930    1.432   .     S
C919   O965    1.293   .     A
C919   O1065   1.293   .     S
C920   C929    1.433   .     S
C920   O966    1.293   .     A
C920   O1168   1.294   1_455 S
C921   H957    1.081   .     S
C921   C950    1.412   .     A
C921   C923    1.392   .     A
C922   H958    1.082   .     S
C922   C924    1.392   .     A
C922   C949    1.409   .     A
C923   H953    1.083   .     S
C924   H954    1.083   .     S
C924   C30     1.402   1_556 S
C925   O991    1.384   .     S
C925   C1539   1.393   1_545 S
C925   C1134   1.400   1_455 S
C926   O996    1.383   .     S
C926   C1234   1.392   .     S
C926   C1031   1.401   .     S
C927   C929    1.396   .     A
C927   H959    1.084   .     S
C927   C1231   1.393   .     S
C928   H960    1.084   .     S
C928   C930    1.397   .     A
C928   C1538   1.392   1_545 S
C929   C1130   1.401   1_455 S
C930   C1027   1.400   .     S
C931   C933    1.444   .     A
C931   O1001   1.382   .     S
C931   N962    1.379   .     A
C932   C934    1.432   .     A
C932   O1006   1.384   .     S
C932   N961    1.378   .     A
C933   O1011   1.386   .     S
C933   N961    1.365   .     A
C934   N962    1.373   .     A
C934   O1016   1.382   .     S
C935   O969    1.307   .     A
C935   C937    1.479   .     S
C935   O1069   1.303   .     S
C936   O970    1.299   .     A
C936   C938    1.468   .     S
C936   O1172   1.305   1_455 S
C937   C941    1.403   .     A
C937   C943    1.407   .     A
C938   C942    1.399   .     A
C938   C944    1.405   .     A
C939   C947    1.407   .     A
C939   C941    1.398   .     A
C939   O1083   1.379   .     S
C940   C942    1.402   .     A
C940   O986    1.386   .     S
C940   C948    1.410   .     A
C941   H1058   1.079   .     S
C942   H1159   1.081   1_455 S
C943   O976    1.382   .     S
C943   C945    1.411   .     A
C944   O971    1.385   .     S
C944   C946    1.412   .     A
C945   C947    1.414   .     A
C945   C949    1.415   .     A
C946   C950    1.418   .     A
C946   C948    1.418   .     A
C947   C5      1.400   1_556 S
C949   C32     1.411   1_556 S
Cu951  O963    1.941   .     S
Cu951  O970    1.944   .     S
Cu951  O967    1.949   .     S
Cu951  N961    2.030   .     S
Cu951  O966    1.942   .     S
Cu951  Cu1156  2.702   1_455 S
Cu952  O969    1.944   .     S
Cu952  O964    1.941   .     S
Cu952  O968    1.949   .     S
Cu952  N962    2.030   .     S
Cu952  O965    1.942   .     S
Cu952  Cu1053  2.702   .     S
H955   C1044   1.081   .     S
H956   C1145   1.079   1_455 S
O963   C1123   1.293   1_455 S
O964   C1022   1.294   .     S
O967   C1139   1.303   1_455 S
O968   C1038   1.305   .     S
O971   C972    1.410   .     S
C972   H974    1.113   .     S
C972   H973    1.112   .     S
C972   H975    1.109   .     S
O976   C977    1.413   .     S
C977   H978    1.114   .     S
C977   H979    1.113   .     S
C977   H980    1.099   .     S
O981   C982    1.409   .     S
O981   C1143   1.379   1_455 S
C982   H984    1.111   .     S
C982   H269    1.114   1_456 S
C982   H67     1.110   1_556 S
O986   C1191   1.411   1_455 S
C987   H989    1.111   .     S
C987   H990    1.109   .     S
C987   O1088   1.411   .     S
C987   H1090   1.114   .     S
H988   C1191   1.114   1_455 S
O991   C1196   1.411   1_455 S
C992   H994    1.114   .     S
C992   H995    1.112   .     S
C992   H993    1.109   .     S
C992   O1093   1.411   .     S
O996   C997    1.410   .     S
C997   H999    1.114   .     S
C997   H998    1.109   .     S
C997   H1000   1.113   .     S
O1001  C1002   1.416   .     S
C1002  H1005   1.109   .     S
C1002  H1004   1.108   .     S
C1002  H1003   1.114   .     S
O1006  C1007   1.411   .     S
C1007  H1009   1.116   .     S
C1007  H1010   1.107   .     S
C1007  H1008   1.107   .     S
O1011  C1012   1.408   .     S
C1012  H1015   1.106   .     S
C1012  H1013   1.107   .     S
C1012  H1014   1.115   .     S
O1016  C1017   1.413   .     S
C1017  H1018   1.105   .     S
C1017  H1019   1.117   .     S
C1017  H1020   1.104   .     S
C1021  C1032   1.432   .     S
C1021  O1067   1.293   .     A
C1021  O1167   1.293   .     S
C1022  C1031   1.433   .     S
C1022  O1068   1.293   .     A
C1023  H1059   1.081   .     S
C1023  C1052   1.412   .     A
C1023  C1025   1.392   .     A
C1024  H1060   1.082   .     S
C1024  C1026   1.392   .     A
C1024  C1051   1.409   .     A
C1025  H1055   1.083   .     S
C1026  H1056   1.083   .     S
C1026  C132    1.402   1_556 S
C1027  O1093   1.384   .     S
C1027  C1641   1.393   1_545 S
C1028  O1098   1.383   .     S
C1028  C1336   1.392   .     S
C1028  C1133   1.401   .     S
C1029  C1031   1.396   .     A
C1029  H1061   1.084   .     S
C1029  C1333   1.393   .     S
C1030  H1062   1.084   .     S
C1030  C1032   1.397   .     A
C1030  C1640   1.392   1_545 S
C1032  C1129   1.400   .     S
C1033  C1035   1.444   .     A
C1033  O1103   1.382   .     S
C1033  N1064   1.379   .     A
C1034  C1036   1.432   .     A
C1034  O1108   1.384   .     S
C1034  N1063   1.378   .     A
C1035  O1113   1.386   .     S
C1035  N1063   1.365   .     A
C1036  N1064   1.373   .     A
C1036  O1118   1.382   .     S
C1037  O1071   1.307   .     A
C1037  C1039   1.479   .     S
C1037  O1171   1.303   .     S
C1038  O1072   1.299   .     A
C1038  C1040   1.468   .     S
C1039  C1043   1.403   .     A
C1039  C1045   1.407   .     A
C1040  C1044   1.399   .     A
C1040  C1046   1.405   .     A
C1041  C1049   1.407   .     A
C1041  C1043   1.398   .     A
C1041  O1185   1.379   .     S
C1042  C1044   1.402   .     A
C1042  O1088   1.386   .     S
C1042  C1050   1.410   .     A
C1043  H1160   1.079   .     S
C1045  O1078   1.382   .     S
C1045  C1047   1.411   .     A
C1046  O1073   1.385   .     S
C1046  C1048   1.412   .     A
C1047  C1049   1.414   .     A
C1047  C1051   1.415   .     A
C1048  C1052   1.418   .     A
C1048  C1050   1.418   .     A
C1049  C107    1.400   1_556 S
C1051  C134    1.411   1_556 S
Cu1053 O1065   1.941   .     S
Cu1053 O1072   1.944   .     S
Cu1053 O1069   1.949   .     S
Cu1053 N1063   2.030   .     S
Cu1053 O1068   1.942   .     S
Cu1054 O1071   1.944   .     S
Cu1054 O1066   1.941   .     S
Cu1054 O1070   1.949   .     S
Cu1054 N1064   2.030   .     S
Cu1054 O1067   1.942   .     S
Cu1054 Cu1155  2.702   .     S
H1057  C1146   1.081   .     S
O1066  C1124   1.294   .     S
O1070  C1140   1.305   .     S
O1073  C1074   1.410   .     S
C1074  H1076   1.113   .     S
C1074  H1075   1.112   .     S
C1074  H1077   1.109   .     S
O1078  C1079   1.413   .     S
C1079  H1080   1.114   .     S
C1079  H1081   1.113   .     S
C1079  H1082   1.099   .     S
O1083  C1084   1.409   .     S
C1084  H1086   1.111   .     S
C1084  H65     1.114   1_556 S
C1084  H169    1.110   1_556 S
C1089  H1091   1.111   .     S
C1089  H1092   1.109   .     S
C1089  O1190   1.411   .     S
C1089  H1192   1.114   .     S
C1094  H1096   1.114   .     S
C1094  H1097   1.112   .     S
C1094  H1095   1.109   .     S
C1094  O1195   1.411   .     S
O1098  C1099   1.410   .     S
C1099  H1101   1.114   .     S
C1099  H1100   1.109   .     S
C1099  H1102   1.113   .     S
O1103  C1104   1.416   .     S
C1104  H1107   1.109   .     S
C1104  H1106   1.108   .     S
C1104  H1105   1.114   .     S
O1108  C1109   1.411   .     S
C1109  H1111   1.116   .     S
C1109  H1112   1.107   .     S
C1109  H1110   1.107   .     S
O1113  C1114   1.408   .     S
C1114  H1117   1.106   .     S
C1114  H1115   1.107   .     S
C1114  H1116   1.115   .     S
O1118  C1119   1.413   .     S
C1119  H1120   1.105   .     S
C1119  H1121   1.117   .     S
C1119  H1122   1.104   .     S
C1123  C1134   1.432   .     S
C1123  O1169   1.293   .     A
C1123  O963    1.293   1_655 S
C1124  C1133   1.433   .     S
C1124  O1170   1.293   .     A
C1125  H1161   1.081   .     S
C1125  C1154   1.412   .     A
C1125  C1127   1.392   .     A
C1126  H1162   1.082   .     S
C1126  C1128   1.392   .     A
C1126  C1153   1.409   .     A
C1127  H1157   1.083   .     S
C1128  H1158   1.083   .     S
C1128  C234    1.402   1_556 S
C1129  O1195   1.384   .     S
C1129  C1743   1.393   1_545 S
C1130  O1200   1.383   .     S
C1130  C1438   1.392   .     S
C1130  C929    1.401   1_655 S
C1131  C1133   1.396   .     A
C1131  H1163   1.084   .     S
C1131  C1435   1.393   .     S
C1132  H1164   1.084   .     S
C1132  C1134   1.397   .     A
C1132  C1742   1.392   1_545 S
C1134  C925    1.400   1_655 S
C1135  C1137   1.444   .     A
C1135  O1205   1.382   .     S
C1135  N1166   1.379   .     A
C1136  C1138   1.432   .     A
C1136  O1210   1.384   .     S
C1136  N1165   1.378   .     A
C1137  O1215   1.386   .     S
C1137  N1165   1.365   .     A
C1138  N1166   1.373   .     A
C1138  O1220   1.382   .     S
C1139  O1173   1.307   .     A
C1139  C1141   1.479   .     S
C1139  O967    1.303   1_655 S
C1140  O1174   1.299   .     A
C1140  C1142   1.468   .     S
C1141  C1145   1.403   .     A
C1141  C1147   1.407   .     A
C1142  C1146   1.399   .     A
C1142  C1148   1.405   .     A
C1143  C1151   1.407   .     A
C1143  C1145   1.398   .     A
C1143  O981    1.379   1_655 S
C1144  C1146   1.402   .     A
C1144  O1190   1.386   .     S
C1144  C1152   1.410   .     A
C1145  H956    1.079   1_655 S
C1147  O1180   1.382   .     S
C1147  C1149   1.411   .     A
C1148  O1175   1.385   .     S
C1148  C1150   1.412   .     A
C1149  C1151   1.414   .     A
C1149  C1153   1.415   .     A
C1150  C1154   1.418   .     A
C1150  C1152   1.418   .     A
C1151  C209    1.400   1_556 S
C1153  C236    1.411   1_556 S
Cu1155 O1167   1.941   .     S
Cu1155 O1174   1.944   .     S
Cu1155 O1171   1.949   .     S
Cu1155 N1165   2.030   .     S
Cu1155 O1170   1.942   .     S
Cu1156 O1173   1.944   .     S
Cu1156 O1168   1.941   .     S
Cu1156 O1172   1.949   .     S
Cu1156 N1166   2.030   .     S
Cu1156 O1169   1.942   .     S
Cu1156 Cu951   2.702   1_655 S
H1159  C942    1.081   1_655 S
O1168  C920    1.294   1_655 S
O1172  C936    1.305   1_655 S
O1175  C1176   1.410   .     S
C1176  H1178   1.113   .     S
C1176  H1177   1.112   .     S
C1176  H1179   1.109   .     S
O1180  C1181   1.413   .     S
C1181  H1182   1.114   .     S
C1181  H1183   1.113   .     S
C1181  H1184   1.099   .     S
O1185  C1186   1.409   .     S
C1186  H1188   1.111   .     S
C1186  H167    1.114   1_556 S
C1186  H271    1.110   1_556 S
H1187  C64     1.114   1_655 S
C1191  H1193   1.111   .     S
C1191  H1194   1.109   .     S
C1191  O986    1.411   1_655 S
C1191  H988    1.114   1_655 S
C1196  H1198   1.114   .     S
C1196  H1199   1.112   .     S
C1196  H1197   1.109   .     S
C1196  O991    1.411   1_655 S
O1200  C1201   1.410   .     S
C1201  H1203   1.114   .     S
C1201  H1202   1.109   .     S
C1201  H1204   1.113   .     S
O1205  C1206   1.416   .     S
C1206  H1209   1.109   .     S
C1206  H1208   1.108   .     S
C1206  H1207   1.114   .     S
O1210  C1211   1.411   .     S
C1211  H1213   1.116   .     S
C1211  H1214   1.107   .     S
C1211  H1212   1.107   .     S
O1215  C1216   1.408   .     S
C1216  H1219   1.106   .     S
C1216  H1217   1.107   .     S
C1216  H1218   1.115   .     S
O1220  C1221   1.413   .     S
C1221  H1222   1.105   .     S
C1221  H1223   1.117   .     S
C1221  H1224   1.104   .     S
C1225  C1236   1.432   .     S
C1225  O1271   1.293   .     A
C1225  O1371   1.293   .     S
C1226  C1235   1.433   .     S
C1226  O1272   1.293   .     A
C1226  O1474   1.294   1_455 S
C1227  H1263   1.081   .     S
C1227  C1256   1.412   .     A
C1227  C1229   1.392   .     A
C1228  H1264   1.082   .     S
C1228  C1230   1.392   .     A
C1228  C1255   1.409   .     A
C1229  H1259   1.083   .     S
C1230  H1260   1.083   .     S
C1230  C336    1.402   1_556 S
C1231  O1297   1.384   .     S
C1231  C1440   1.400   1_455 S
C1232  O1302   1.383   .     S
C1232  C1540   1.392   .     S
C1232  C1337   1.401   .     S
C1233  C1235   1.396   .     A
C1233  H1265   1.084   .     S
C1233  C1537   1.393   .     S
C1234  H1266   1.084   .     S
C1234  C1236   1.397   .     A
C1235  C1436   1.401   1_455 S
C1236  C1333   1.400   .     S
C1237  C1239   1.444   .     A
C1237  O1307   1.382   .     S
C1237  N1268   1.379   .     A
C1238  C1240   1.432   .     A
C1238  O1312   1.384   .     S
C1238  N1267   1.378   .     A
C1239  O1317   1.386   .     S
C1239  N1267   1.365   .     A
C1240  N1268   1.373   .     A
C1240  O1322   1.382   .     S
C1241  O1275   1.307   .     A
C1241  C1243   1.479   .     S
C1241  O1375   1.303   .     S
C1242  O1276   1.299   .     A
C1242  C1244   1.468   .     S
C1242  O1478   1.305   1_455 S
C1243  C1247   1.403   .     A
C1243  C1249   1.407   .     A
C1244  C1248   1.399   .     A
C1244  C1250   1.405   .     A
C1245  C1253   1.407   .     A
C1245  C1247   1.398   .     A
C1245  O1389   1.379   .     S
C1246  C1248   1.402   .     A
C1246  O1292   1.386   .     S
C1246  C1254   1.410   .     A
C1247  H1364   1.079   .     S
C1248  H1465   1.081   1_455 S
C1249  O1282   1.382   .     S
C1249  C1251   1.411   .     A
C1250  O1277   1.385   .     S
C1250  C1252   1.412   .     A
C1251  C1253   1.414   .     A
C1251  C1255   1.415   .     A
C1252  C1256   1.418   .     A
C1252  C1254   1.418   .     A
C1253  C311    1.400   1_556 S
C1255  C338    1.411   1_556 S
Cu1257 O1269   1.941   .     S
Cu1257 O1276   1.944   .     S
Cu1257 O1273   1.949   .     S
Cu1257 N1267   2.030   .     S
Cu1257 O1272   1.942   .     S
Cu1257 Cu1462  2.702   1_455 S
Cu1258 O1275   1.944   .     S
Cu1258 O1270   1.941   .     S
Cu1258 O1274   1.949   .     S
Cu1258 N1268   2.030   .     S
Cu1258 O1271   1.942   .     S
Cu1258 Cu1359  2.702   .     S
H1261  C1350   1.081   .     S
H1262  C1451   1.079   1_455 S
O1269  C1429   1.293   1_455 S
O1270  C1328   1.294   .     S
O1273  C1445   1.303   1_455 S
O1274  C1344   1.305   .     S
O1277  C1278   1.410   .     S
C1278  H1280   1.113   .     S
C1278  H1279   1.112   .     S
C1278  H1281   1.109   .     S
O1282  C1283   1.413   .     S
C1283  H1284   1.114   .     S
C1283  H1285   1.113   .     S
C1283  H1286   1.099   .     S
O1287  C1288   1.409   .     S
O1287  C1449   1.379   1_455 S
C1288  H1290   1.111   .     S
C1288  H575    1.114   1_456 S
C1288  H373    1.110   1_556 S
O1292  C1497   1.411   1_455 S
C1293  H1295   1.111   .     S
C1293  H1296   1.109   .     S
C1293  O1394   1.411   .     S
C1293  H1396   1.114   .     S
H1294  C1497   1.114   1_455 S
O1297  C1502   1.411   1_455 S
C1298  H1300   1.114   .     S
C1298  H1301   1.112   .     S
C1298  H1299   1.109   .     S
C1298  O1399   1.411   .     S
O1302  C1303   1.410   .     S
C1303  H1305   1.114   .     S
C1303  H1304   1.109   .     S
C1303  H1306   1.113   .     S
O1307  C1308   1.416   .     S
C1308  H1311   1.109   .     S
C1308  H1310   1.108   .     S
C1308  H1309   1.114   .     S
O1312  C1313   1.411   .     S
C1313  H1315   1.116   .     S
C1313  H1316   1.107   .     S
C1313  H1314   1.107   .     S
O1317  C1318   1.408   .     S
C1318  H1321   1.106   .     S
C1318  H1319   1.107   .     S
C1318  H1320   1.115   .     S
O1322  C1323   1.413   .     S
C1323  H1324   1.105   .     S
C1323  H1325   1.117   .     S
C1323  H1326   1.104   .     S
C1327  C1338   1.432   .     S
C1327  O1373   1.293   .     A
C1327  O1473   1.293   .     S
C1328  C1337   1.433   .     S
C1328  O1374   1.293   .     A
C1329  H1365   1.081   .     S
C1329  C1358   1.412   .     A
C1329  C1331   1.392   .     A
C1330  H1366   1.082   .     S
C1330  C1332   1.392   .     A
C1330  C1357   1.409   .     A
C1331  H1361   1.083   .     S
C1332  H1362   1.083   .     S
C1332  C438    1.402   1_556 S
C1333  O1399   1.384   .     S
C1334  O1404   1.383   .     S
C1334  C1642   1.392   .     S
C1334  C1439   1.401   .     S
C1335  C1337   1.396   .     A
C1335  H1367   1.084   .     S
C1335  C1639   1.393   .     S
C1336  H1368   1.084   .     S
C1336  C1338   1.397   .     A
C1338  C1435   1.400   .     S
C1339  C1341   1.444   .     A
C1339  O1409   1.382   .     S
C1339  N1370   1.379   .     A
C1340  C1342   1.432   .     A
C1340  O1414   1.384   .     S
C1340  N1369   1.378   .     A
C1341  O1419   1.386   .     S
C1341  N1369   1.365   .     A
C1342  N1370   1.373   .     A
C1342  O1424   1.382   .     S
C1343  O1377   1.307   .     A
C1343  C1345   1.479   .     S
C1343  O1477   1.303   .     S
C1344  O1378   1.299   .     A
C1344  C1346   1.468   .     S
C1345  C1349   1.403   .     A
C1345  C1351   1.407   .     A
C1346  C1350   1.399   .     A
C1346  C1352   1.405   .     A
C1347  C1355   1.407   .     A
C1347  C1349   1.398   .     A
C1347  O1491   1.379   .     S
C1348  C1350   1.402   .     A
C1348  O1394   1.386   .     S
C1348  C1356   1.410   .     A
C1349  H1466   1.079   .     S
C1351  O1384   1.382   .     S
C1351  C1353   1.411   .     A
C1352  O1379   1.385   .     S
C1352  C1354   1.412   .     A
C1353  C1355   1.414   .     A
C1353  C1357   1.415   .     A
C1354  C1358   1.418   .     A
C1354  C1356   1.418   .     A
C1355  C413    1.400   1_556 S
C1357  C440    1.411   1_556 S
Cu1359 O1371   1.941   .     S
Cu1359 O1378   1.944   .     S
Cu1359 O1375   1.949   .     S
Cu1359 N1369   2.030   .     S
Cu1359 O1374   1.942   .     S
Cu1360 O1377   1.944   .     S
Cu1360 O1372   1.941   .     S
Cu1360 O1376   1.949   .     S
Cu1360 N1370   2.030   .     S
Cu1360 O1373   1.942   .     S
Cu1360 Cu1461  2.702   .     S
H1363  C1452   1.081   .     S
O1372  C1430   1.294   .     S
O1376  C1446   1.305   .     S
O1379  C1380   1.410   .     S
C1380  H1382   1.113   .     S
C1380  H1381   1.112   .     S
C1380  H1383   1.109   .     S
O1384  C1385   1.413   .     S
C1385  H1386   1.114   .     S
C1385  H1387   1.113   .     S
C1385  H1388   1.099   .     S
O1389  C1390   1.409   .     S
C1390  H1392   1.111   .     S
C1390  H371    1.114   1_556 S
C1390  H475    1.110   1_556 S
C1395  H1397   1.111   .     S
C1395  H1398   1.109   .     S
C1395  O1496   1.411   .     S
C1395  H1498   1.114   .     S
C1400  H1402   1.114   .     S
C1400  H1403   1.112   .     S
C1400  H1401   1.109   .     S
C1400  O1501   1.411   .     S
O1404  C1405   1.410   .     S
C1405  H1407   1.114   .     S
C1405  H1406   1.109   .     S
C1405  H1408   1.113   .     S
O1409  C1410   1.416   .     S
C1410  H1413   1.109   .     S
C1410  H1412   1.108   .     S
C1410  H1411   1.114   .     S
O1414  C1415   1.411   .     S
C1415  H1417   1.116   .     S
C1415  H1418   1.107   .     S
C1415  H1416   1.107   .     S
O1419  C1420   1.408   .     S
C1420  H1423   1.106   .     S
C1420  H1421   1.107   .     S
C1420  H1422   1.115   .     S
O1424  C1425   1.413   .     S
C1425  H1426   1.105   .     S
C1425  H1427   1.117   .     S
C1425  H1428   1.104   .     S
C1429  C1440   1.432   .     S
C1429  O1475   1.293   .     A
C1429  O1269   1.293   1_655 S
C1430  C1439   1.433   .     S
C1430  O1476   1.293   .     A
C1431  H1467   1.081   .     S
C1431  C1460   1.412   .     A
C1431  C1433   1.392   .     A
C1432  H1468   1.082   .     S
C1432  C1434   1.392   .     A
C1432  C1459   1.409   .     A
C1433  H1463   1.083   .     S
C1434  H1464   1.083   .     S
C1434  C540    1.402   1_556 S
C1435  O1501   1.384   .     S
C1436  O1506   1.383   .     S
C1436  C1744   1.392   .     S
C1436  C1235   1.401   1_655 S
C1437  C1439   1.396   .     A
C1437  H1469   1.084   .     S
C1437  C1741   1.393   .     S
C1438  H1470   1.084   .     S
C1438  C1440   1.397   .     A
C1440  C1231   1.400   1_655 S
C1441  C1443   1.444   .     A
C1441  O1511   1.382   .     S
C1441  N1472   1.379   .     A
C1442  C1444   1.432   .     A
C1442  O1516   1.384   .     S
C1442  N1471   1.378   .     A
C1443  O1521   1.386   .     S
C1443  N1471   1.365   .     A
C1444  N1472   1.373   .     A
C1444  O1526   1.382   .     S
C1445  O1479   1.307   .     A
C1445  C1447   1.479   .     S
C1445  O1273   1.303   1_655 S
C1446  O1480   1.299   .     A
C1446  C1448   1.468   .     S
C1447  C1451   1.403   .     A
C1447  C1453   1.407   .     A
C1448  C1452   1.399   .     A
C1448  C1454   1.405   .     A
C1449  C1457   1.407   .     A
C1449  C1451   1.398   .     A
C1449  O1287   1.379   1_655 S
C1450  C1452   1.402   .     A
C1450  O1496   1.386   .     S
C1450  C1458   1.410   .     A
C1451  H1262   1.079   1_655 S
C1453  O1486   1.382   .     S
C1453  C1455   1.411   .     A
C1454  O1481   1.385   .     S
C1454  C1456   1.412   .     A
C1455  C1457   1.414   .     A
C1455  C1459   1.415   .     A
C1456  C1460   1.418   .     A
C1456  C1458   1.418   .     A
C1457  C515    1.400   1_556 S
C1459  C542    1.411   1_556 S
Cu1461 O1473   1.941   .     S
Cu1461 O1480   1.944   .     S
Cu1461 O1477   1.949   .     S
Cu1461 N1471   2.030   .     S
Cu1461 O1476   1.942   .     S
Cu1462 O1479   1.944   .     S
Cu1462 O1474   1.941   .     S
Cu1462 O1478   1.949   .     S
Cu1462 N1472   2.030   .     S
Cu1462 O1475   1.942   .     S
Cu1462 Cu1257  2.702   1_655 S
H1465  C1248   1.081   1_655 S
O1474  C1226   1.294   1_655 S
O1478  C1242   1.305   1_655 S
O1481  C1482   1.410   .     S
C1482  H1484   1.113   .     S
C1482  H1483   1.112   .     S
C1482  H1485   1.109   .     S
O1486  C1487   1.413   .     S
C1487  H1488   1.114   .     S
C1487  H1489   1.113   .     S
C1487  H1490   1.099   .     S
O1491  C1492   1.409   .     S
C1492  H1494   1.111   .     S
C1492  H473    1.114   1_556 S
C1492  H577    1.110   1_556 S
H1493  C370    1.114   1_655 S
C1497  H1499   1.111   .     S
C1497  H1500   1.109   .     S
C1497  O1292   1.411   1_655 S
C1497  H1294   1.114   1_655 S
C1502  H1504   1.114   .     S
C1502  H1505   1.112   .     S
C1502  H1503   1.109   .     S
C1502  O1297   1.411   1_655 S
O1506  C1507   1.410   .     S
C1507  H1509   1.114   .     S
C1507  H1508   1.109   .     S
C1507  H1510   1.113   .     S
O1511  C1512   1.416   .     S
C1512  H1515   1.109   .     S
C1512  H1514   1.108   .     S
C1512  H1513   1.114   .     S
O1516  C1517   1.411   .     S
C1517  H1519   1.116   .     S
C1517  H1520   1.107   .     S
C1517  H1518   1.107   .     S
O1521  C1522   1.408   .     S
C1522  H1525   1.106   .     S
C1522  H1523   1.107   .     S
C1522  H1524   1.115   .     S
O1526  C1527   1.413   .     S
C1527  H1528   1.105   .     S
C1527  H1529   1.117   .     S
C1527  H1530   1.104   .     S
C1531  C1542   1.432   .     S
C1531  O1577   1.293   .     A
C1531  O1677   1.293   .     S
C1532  C1541   1.433   .     S
C1532  O1578   1.293   .     A
C1532  O1780   1.294   1_455 S
C1533  H1569   1.081   .     S
C1533  C1562   1.412   .     A
C1533  C1535   1.392   .     A
C1534  H1570   1.082   .     S
C1534  C1536   1.392   .     A
C1534  C1561   1.409   .     A
C1535  H1565   1.083   .     S
C1536  H1566   1.083   .     S
C1536  C642    1.402   1_556 S
C1537  O1603   1.384   .     S
C1537  C1746   1.400   1_455 S
C1538  O1608   1.383   .     S
C1538  C928    1.392   1_565 S
C1538  C1643   1.401   .     S
C1539  C1541   1.396   .     A
C1539  H1571   1.084   .     S
C1539  C925    1.393   1_565 S
C1540  H1572   1.084   .     S
C1540  C1542   1.397   .     A
C1541  C1742   1.401   1_455 S
C1542  C1639   1.400   .     S
C1543  C1545   1.444   .     A
C1543  O1613   1.382   .     S
C1543  N1574   1.379   .     A
C1544  C1546   1.432   .     A
C1544  O1618   1.384   .     S
C1544  N1573   1.378   .     A
C1545  O1623   1.386   .     S
C1545  N1573   1.365   .     A
C1546  N1574   1.373   .     A
C1546  O1628   1.382   .     S
C1547  O1581   1.307   .     A
C1547  C1549   1.479   .     S
C1547  O1681   1.303   .     S
C1548  O1582   1.299   .     A
C1548  C1550   1.468   .     S
C1548  O1784   1.305   1_455 S
C1549  C1553   1.403   .     A
C1549  C1555   1.407   .     A
C1550  C1554   1.399   .     A
C1550  C1556   1.405   .     A
C1551  C1559   1.407   .     A
C1551  C1553   1.398   .     A
C1551  O1695   1.379   .     S
C1552  C1554   1.402   .     A
C1552  O1598   1.386   .     S
C1552  C1560   1.410   .     A
C1553  H1670   1.079   .     S
C1554  H1771   1.081   1_455 S
C1555  O1588   1.382   .     S
C1555  C1557   1.411   .     A
C1556  O1583   1.385   .     S
C1556  C1558   1.412   .     A
C1557  C1559   1.414   .     A
C1557  C1561   1.415   .     A
C1558  C1562   1.418   .     A
C1558  C1560   1.418   .     A
C1559  C617    1.400   1_556 S
C1561  C644    1.411   1_556 S
Cu1563 O1575   1.941   .     S
Cu1563 O1582   1.944   .     S
Cu1563 O1579   1.949   .     S
Cu1563 N1573   2.030   .     S
Cu1563 O1578   1.942   .     S
Cu1563 Cu1768  2.702   1_455 S
Cu1564 O1581   1.944   .     S
Cu1564 O1576   1.941   .     S
Cu1564 O1580   1.949   .     S
Cu1564 N1574   2.030   .     S
Cu1564 O1577   1.942   .     S
Cu1564 Cu1665  2.702   .     S
H1567  C1656   1.081   .     S
H1568  C1757   1.079   1_455 S
O1575  C1735   1.293   1_455 S
O1576  C1634   1.294   .     S
O1579  C1751   1.303   1_455 S
O1580  C1650   1.305   .     S
O1583  C1584   1.410   .     S
C1584  H1586   1.113   .     S
C1584  H1585   1.112   .     S
C1584  H1587   1.109   .     S
O1588  C1589   1.413   .     S
C1589  H1590   1.114   .     S
C1589  H1591   1.113   .     S
C1589  H1592   1.099   .     S
O1593  C1594   1.409   .     S
O1593  C1755   1.379   1_455 S
C1594  H1596   1.111   .     S
C1594  H881    1.114   1_456 S
C1594  H679    1.110   1_556 S
O1598  C1803   1.411   1_455 S
C1599  H1601   1.111   .     S
C1599  H1602   1.109   .     S
C1599  O1700   1.411   .     S
C1599  H1702   1.114   .     S
H1600  C1803   1.114   1_455 S
O1603  C1808   1.411   1_455 S
C1604  H1606   1.114   .     S
C1604  H1607   1.112   .     S
C1604  H1605   1.109   .     S
C1604  O1705   1.411   .     S
O1608  C1609   1.410   .     S
C1609  H1611   1.114   .     S
C1609  H1610   1.109   .     S
C1609  H1612   1.113   .     S
O1613  C1614   1.416   .     S
C1614  H1617   1.109   .     S
C1614  H1616   1.108   .     S
C1614  H1615   1.114   .     S
O1618  C1619   1.411   .     S
C1619  H1621   1.116   .     S
C1619  H1622   1.107   .     S
C1619  H1620   1.107   .     S
O1623  C1624   1.408   .     S
C1624  H1627   1.106   .     S
C1624  H1625   1.107   .     S
C1624  H1626   1.115   .     S
O1628  C1629   1.413   .     S
C1629  H1630   1.105   .     S
C1629  H1631   1.117   .     S
C1629  H1632   1.104   .     S
C1633  C1644   1.432   .     S
C1633  O1679   1.293   .     A
C1633  O1779   1.293   .     S
C1634  C1643   1.433   .     S
C1634  O1680   1.293   .     A
C1635  H1671   1.081   .     S
C1635  C1664   1.412   .     A
C1635  C1637   1.392   .     A
C1636  H1672   1.082   .     S
C1636  C1638   1.392   .     A
C1636  C1663   1.409   .     A
C1637  H1667   1.083   .     S
C1638  H1668   1.083   .     S
C1638  C744    1.402   1_556 S
C1639  O1705   1.384   .     S
C1640  O1710   1.383   .     S
C1640  C1030   1.392   1_565 S
C1640  C1745   1.401   .     S
C1641  C1643   1.396   .     A
C1641  H1673   1.084   .     S
C1641  C1027   1.393   1_565 S
C1642  H1674   1.084   .     S
C1642  C1644   1.397   .     A
C1644  C1741   1.400   .     S
C1645  C1647   1.444   .     A
C1645  O1715   1.382   .     S
C1645  N1676   1.379   .     A
C1646  C1648   1.432   .     A
C1646  O1720   1.384   .     S
C1646  N1675   1.378   .     A
C1647  O1725   1.386   .     S
C1647  N1675   1.365   .     A
C1648  N1676   1.373   .     A
C1648  O1730   1.382   .     S
C1649  O1683   1.307   .     A
C1649  C1651   1.479   .     S
C1649  O1783   1.303   .     S
C1650  O1684   1.299   .     A
C1650  C1652   1.468   .     S
C1651  C1655   1.403   .     A
C1651  C1657   1.407   .     A
C1652  C1656   1.399   .     A
C1652  C1658   1.405   .     A
C1653  C1661   1.407   .     A
C1653  C1655   1.398   .     A
C1653  O1797   1.379   .     S
C1654  C1656   1.402   .     A
C1654  O1700   1.386   .     S
C1654  C1662   1.410   .     A
C1655  H1772   1.079   .     S
C1657  O1690   1.382   .     S
C1657  C1659   1.411   .     A
C1658  O1685   1.385   .     S
C1658  C1660   1.412   .     A
C1659  C1661   1.414   .     A
C1659  C1663   1.415   .     A
C1660  C1664   1.418   .     A
C1660  C1662   1.418   .     A
C1661  C719    1.400   1_556 S
C1663  C746    1.411   1_556 S
Cu1665 O1677   1.941   .     S
Cu1665 O1684   1.944   .     S
Cu1665 O1681   1.949   .     S
Cu1665 N1675   2.030   .     S
Cu1665 O1680   1.942   .     S
Cu1666 O1683   1.944   .     S
Cu1666 O1678   1.941   .     S
Cu1666 O1682   1.949   .     S
Cu1666 N1676   2.030   .     S
Cu1666 O1679   1.942   .     S
Cu1666 Cu1767  2.702   .     S
H1669  C1758   1.081   .     S
O1678  C1736   1.294   .     S
O1682  C1752   1.305   .     S
O1685  C1686   1.410   .     S
C1686  H1688   1.113   .     S
C1686  H1687   1.112   .     S
C1686  H1689   1.109   .     S
O1690  C1691   1.413   .     S
C1691  H1692   1.114   .     S
C1691  H1693   1.113   .     S
C1691  H1694   1.099   .     S
O1695  C1696   1.409   .     S
C1696  H1698   1.111   .     S
C1696  H677    1.114   1_556 S
C1696  H781    1.110   1_556 S
C1701  H1703   1.111   .     S
C1701  H1704   1.109   .     S
C1701  O1802   1.411   .     S
C1701  H1804   1.114   .     S
C1706  H1708   1.114   .     S
C1706  H1709   1.112   .     S
C1706  H1707   1.109   .     S
C1706  O1807   1.411   .     S
O1710  C1711   1.410   .     S
C1711  H1713   1.114   .     S
C1711  H1712   1.109   .     S
C1711  H1714   1.113   .     S
O1715  C1716   1.416   .     S
C1716  H1719   1.109   .     S
C1716  H1718   1.108   .     S
C1716  H1717   1.114   .     S
O1720  C1721   1.411   .     S
C1721  H1723   1.116   .     S
C1721  H1724   1.107   .     S
C1721  H1722   1.107   .     S
O1725  C1726   1.408   .     S
C1726  H1729   1.106   .     S
C1726  H1727   1.107   .     S
C1726  H1728   1.115   .     S
O1730  C1731   1.413   .     S
C1731  H1732   1.105   .     S
C1731  H1733   1.117   .     S
C1731  H1734   1.104   .     S
C1735  C1746   1.432   .     S
C1735  O1781   1.293   .     A
C1735  O1575   1.293   1_655 S
C1736  C1745   1.433   .     S
C1736  O1782   1.293   .     A
C1737  H1773   1.081   .     S
C1737  C1766   1.412   .     A
C1737  C1739   1.392   .     A
C1738  H1774   1.082   .     S
C1738  C1740   1.392   .     A
C1738  C1765   1.409   .     A
C1739  H1769   1.083   .     S
C1740  H1770   1.083   .     S
C1740  C846    1.402   1_556 S
C1741  O1807   1.384   .     S
C1742  O1812   1.383   .     S
C1742  C1132   1.392   1_565 S
C1742  C1541   1.401   1_655 S
C1743  C1745   1.396   .     A
C1743  H1775   1.084   .     S
C1743  C1129   1.393   1_565 S
C1744  H1776   1.084   .     S
C1744  C1746   1.397   .     A
C1746  C1537   1.400   1_655 S
C1747  C1749   1.444   .     A
C1747  O1817   1.382   .     S
C1747  N1778   1.379   .     A
C1748  C1750   1.432   .     A
C1748  O1822   1.384   .     S
C1748  N1777   1.378   .     A
C1749  O1827   1.386   .     S
C1749  N1777   1.365   .     A
C1750  N1778   1.373   .     A
C1750  O1832   1.382   .     S
C1751  O1785   1.307   .     A
C1751  C1753   1.479   .     S
C1751  O1579   1.303   1_655 S
C1752  O1786   1.299   .     A
C1752  C1754   1.468   .     S
C1753  C1757   1.403   .     A
C1753  C1759   1.407   .     A
C1754  C1758   1.399   .     A
C1754  C1760   1.405   .     A
C1755  C1763   1.407   .     A
C1755  C1757   1.398   .     A
C1755  O1593   1.379   1_655 S
C1756  C1758   1.402   .     A
C1756  O1802   1.386   .     S
C1756  C1764   1.410   .     A
C1757  H1568   1.079   1_655 S
C1759  O1792   1.382   .     S
C1759  C1761   1.411   .     A
C1760  O1787   1.385   .     S
C1760  C1762   1.412   .     A
C1761  C1763   1.414   .     A
C1761  C1765   1.415   .     A
C1762  C1766   1.418   .     A
C1762  C1764   1.418   .     A
C1763  C821    1.400   1_556 S
C1765  C848    1.411   1_556 S
Cu1767 O1779   1.941   .     S
Cu1767 O1786   1.944   .     S
Cu1767 O1783   1.949   .     S
Cu1767 N1777   2.030   .     S
Cu1767 O1782   1.942   .     S
Cu1768 O1785   1.944   .     S
Cu1768 O1780   1.941   .     S
Cu1768 O1784   1.949   .     S
Cu1768 N1778   2.030   .     S
Cu1768 O1781   1.942   .     S
Cu1768 Cu1563  2.702   1_655 S
H1771  C1554   1.081   1_655 S
O1780  C1532   1.294   1_655 S
O1784  C1548   1.305   1_655 S
O1787  C1788   1.410   .     S
C1788  H1790   1.113   .     S
C1788  H1789   1.112   .     S
C1788  H1791   1.109   .     S
O1792  C1793   1.413   .     S
C1793  H1794   1.114   .     S
C1793  H1795   1.113   .     S
C1793  H1796   1.099   .     S
O1797  C1798   1.409   .     S
C1798  H1800   1.111   .     S
C1798  H779    1.114   1_556 S
C1798  H883    1.110   1_556 S
H1799  C676    1.114   1_655 S
C1803  H1805   1.111   .     S
C1803  H1806   1.109   .     S
C1803  O1598   1.411   1_655 S
C1803  H1600   1.114   1_655 S
C1808  H1810   1.114   .     S
C1808  H1811   1.112   .     S
C1808  H1809   1.109   .     S
C1808  O1603   1.411   1_655 S
O1812  C1813   1.410   .     S
C1813  H1815   1.114   .     S
C1813  H1814   1.109   .     S
C1813  H1816   1.113   .     S
O1817  C1818   1.416   .     S
C1818  H1821   1.109   .     S
C1818  H1820   1.108   .     S
C1818  H1819   1.114   .     S
O1822  C1823   1.411   .     S
C1823  H1825   1.116   .     S
C1823  H1826   1.107   .     S
C1823  H1824   1.107   .     S
O1827  C1828   1.408   .     S
C1828  H1831   1.106   .     S
C1828  H1829   1.107   .     S
C1828  H1830   1.115   .     S
O1832  C1833   1.413   .     S
C1833  H1834   1.105   .     S
C1833  H1835   1.117   .     S
C1833  H1836   1.104   .     S
