data_str_m3_o10_o18_pcu_sym.78
_audit_creation_date              2020-01-03
_audit_creation_method            'Materials Studio'
_symmetry_space_group_name_H-M    'P1'
_symmetry_Int_Tables_number       1
_symmetry_cell_setting            triclinic
loop_
_symmetry_equiv_pos_as_xyz
  x,y,z
_cell_length_a                    23.7092
_cell_length_b                    25.6854
_cell_length_c                    28.3216
_cell_angle_alpha                 94.6691
_cell_angle_beta                  95.3404
_cell_angle_gamma                 92.9381
loop_
_atom_site_label
_atom_site_type_symbol
_atom_site_fract_x
_atom_site_fract_y
_atom_site_fract_z
_atom_site_U_iso_or_equiv
_atom_site_adp_type
_atom_site_occupancy
C1     C     0.01476   0.26470   0.24963   0.00000  Uiso   1.00
C2     C     0.31089   0.16085   0.15968   0.00000  Uiso   1.00
C3     C     0.03525   0.17902   0.39216   0.00000  Uiso   1.00
C4     C     0.29615   0.14705   0.10907   0.00000  Uiso   1.00
C5     C     0.00636   0.19504   0.47165   0.00000  Uiso   1.00
C6     C     0.30143   0.08781   0.03869   0.00000  Uiso   1.00
C7     C     0.32606   0.18946   0.42245   0.00000  Uiso   1.00
C8     C     0.32024   0.10462   0.08578   0.00000  Uiso   1.00
C9     C     0.09094   0.17452   0.41196   0.00000  Uiso   1.00
C10    C     0.25047   0.17021   0.08620   0.00000  Uiso   1.00
C11    C     0.10039   0.16594   0.45985   0.00000  Uiso   1.00
C12    C     0.31876   0.06870   0.25116   0.00000  Uiso   1.00
C13    C     0.22371   0.14543   0.04333   0.00000  Uiso   1.00
C14    C     0.06032   0.18292   0.49066   0.00000  Uiso   1.00
C15    C     0.25304   0.10836   0.01703   0.00000  Uiso   1.00
C16    C     0.15090   0.14504   0.47790   0.00000  Uiso   1.00
C17    C     0.16821   0.15599   0.02651   0.00000  Uiso   1.00
C18    C     0.25154   0.25846   0.08579   0.00000  Uiso   1.00
C19    C     0.16101   0.23375   0.39957   0.00000  Uiso   1.00
C20    C     0.13302   0.10415   0.10658   0.00000  Uiso   1.00
C21    C     0.12302   0.04598   0.40867   0.00000  Uiso   1.00
C22    C     0.15038   0.06612   0.22235   0.00000  Uiso   1.00
C23    C     0.12696   0.17032   0.05781   0.00000  Uiso   1.00
C24    C     0.19035   0.26502   0.28972   0.00000  Uiso   1.00
C25    C     0.18183   0.10959   0.45026   0.00000  Uiso   1.00
C26    C     0.07433   0.18563   0.03959   0.00000  Uiso   1.00
C27    C     0.23198   0.09087   0.47058   0.00000  Uiso   1.00
C28    C     0.02293   0.31926   0.25187   0.00000  Uiso   1.00
C29    C     0.31091   0.01426   0.25052   0.00000  Uiso   1.00
C30    C     0.02249   0.17277   0.34049   0.00000  Uiso   1.00
H31    H     0.04367   0.19734   0.06377   0.00000  Uiso   1.00
H32    H     0.28307   0.19487   0.40823   0.00000  Uiso   1.00
H33    H     0.30765   0.20650   0.49466   0.00000  Uiso   1.00
H34    H     0.32246   0.05681   0.02034   0.00000  Uiso   1.00
H35    H     0.11431   0.08054   0.07341   0.00000  Uiso   1.00
H36    H     0.10724   0.09297   0.13484   0.00000  Uiso   1.00
H37    H     0.17695   0.09269   0.11557   0.00000  Uiso   1.00
H38    H     0.08445   0.05861   0.42491   0.00000  Uiso   1.00
H39    H     0.14343   0.01587   0.42947   0.00000  Uiso   1.00
H40    H     0.10919   0.02756   0.37236   0.00000  Uiso   1.00
H41    H     0.06618   0.00257   0.25537   0.00000  Uiso   1.00
H42    H     0.25403   0.06235   0.45002   0.00000  Uiso   1.00
H43    H     0.26773   0.33093   0.24765   0.00000  Uiso   1.00
H44    H     0.10935   0.05234   0.20234   0.00000  Uiso   1.00
H45    H     0.14856   0.06583   0.26154   0.00000  Uiso   1.00
H46    H     0.18142   0.03751   0.21194   0.00000  Uiso   1.00
H47    H     0.19208   0.27291   0.25179   0.00000  Uiso   1.00
H48    H     0.23252   0.26987   0.31054   0.00000  Uiso   1.00
H49    H     0.16360   0.29471   0.30554   0.00000  Uiso   1.00
H50    H     0.23533   0.25676   0.04749   0.00000  Uiso   1.00
H51    H     0.23679   0.29460   0.10370   0.00000  Uiso   1.00
H52    H     0.29880   0.26156   0.08991   0.00000  Uiso   1.00
H53    H     0.17167   0.24132   0.43873   0.00000  Uiso   1.00
H54    H     0.13229   0.26332   0.38627   0.00000  Uiso   1.00
H55    H     0.20151   0.23858   0.38353   0.00000  Uiso   1.00
H56    H     0.01878   0.08351   0.10434   0.00000  Uiso   1.00
N57    N     0.14695   0.15216   0.23740   0.00000  Uiso   1.00
N58    N     0.18638   0.18117   0.26261   0.00000  Uiso   1.00
O59    O     0.29719   0.24631   0.25310   0.00000  Uiso   1.00
O60    O     0.13667   0.18276   0.38586   0.00000  Uiso   1.00
O61    O     0.13251   0.15915   0.10487   0.00000  Uiso   1.00
O62    O     0.16127   0.08899   0.40491   0.00000  Uiso   1.00
O63    O     0.16819   0.11528   0.20884   0.00000  Uiso   1.00
O64    O     0.16517   0.21532   0.29386   0.00000  Uiso   1.00
O65    O     0.03614   0.08702   0.24691   0.00000  Uiso   1.00
O66    O     0.05822   0.23702   0.24502   0.00000  Uiso   1.00
O67    O     0.27512   0.09632   0.25499   0.00000  Uiso   1.00
O68    O     0.30328   0.17397   0.32247   0.00000  Uiso   1.00
O69    O     0.03005   0.15937   0.17753   0.00000  Uiso   1.00
O70    O     0.06431   0.16467   0.31439   0.00000  Uiso   1.00
O71    O     0.26902   0.16866   0.18561   0.00000  Uiso   1.00
O72    O     0.23017   0.21507   0.10747   0.00000  Uiso   1.00
Zn73   Zn    0.27033   0.17287   0.25540   0.00000  Uiso   1.00
Zn74   Zn    0.06300   0.16046   0.24461   0.00000  Uiso   1.00
C75    C     0.34809   0.26470   0.24963   0.00000  Uiso   1.00
C76    C     0.64422   0.16085   0.15968   0.00000  Uiso   1.00
C77    C     0.36858   0.17902   0.39216   0.00000  Uiso   1.00
C78    C     0.62948   0.14705   0.10907   0.00000  Uiso   1.00
C79    C     0.33970   0.19504   0.47165   0.00000  Uiso   1.00
C80    C     0.63477   0.08781   0.03869   0.00000  Uiso   1.00
C81    C     0.65939   0.18946   0.42245   0.00000  Uiso   1.00
C82    C     0.65357   0.10462   0.08578   0.00000  Uiso   1.00
C83    C     0.42427   0.17452   0.41196   0.00000  Uiso   1.00
C84    C     0.58380   0.17021   0.08620   0.00000  Uiso   1.00
C85    C     0.43372   0.16594   0.45985   0.00000  Uiso   1.00
C86    C     0.65210   0.06870   0.25116   0.00000  Uiso   1.00
C87    C     0.55705   0.14543   0.04333   0.00000  Uiso   1.00
C88    C     0.39365   0.18292   0.49066   0.00000  Uiso   1.00
C89    C     0.58637   0.10836   0.01703   0.00000  Uiso   1.00
C90    C     0.48424   0.14504   0.47790   0.00000  Uiso   1.00
C91    C     0.50155   0.15599   0.02651   0.00000  Uiso   1.00
C92    C     0.58488   0.25846   0.08579   0.00000  Uiso   1.00
C93    C     0.49434   0.23375   0.39957   0.00000  Uiso   1.00
C94    C     0.46635   0.10415   0.10658   0.00000  Uiso   1.00
C95    C     0.45635   0.04598   0.40867   0.00000  Uiso   1.00
C96    C     0.48372   0.06612   0.22235   0.00000  Uiso   1.00
C97    C     0.46029   0.17032   0.05781   0.00000  Uiso   1.00
C98    C     0.52368   0.26502   0.28972   0.00000  Uiso   1.00
C99    C     0.51517   0.10959   0.45026   0.00000  Uiso   1.00
C100   C     0.40766   0.18563   0.03959   0.00000  Uiso   1.00
C101   C     0.56531   0.09087   0.47058   0.00000  Uiso   1.00
C102   C     0.35626   0.31926   0.25187   0.00000  Uiso   1.00
C103   C     0.64424   0.01426   0.25052   0.00000  Uiso   1.00
C104   C     0.35582   0.17277   0.34049   0.00000  Uiso   1.00
H105   H     0.37701   0.19734   0.06377   0.00000  Uiso   1.00
H106   H     0.61640   0.19487   0.40823   0.00000  Uiso   1.00
H107   H     0.64098   0.20650   0.49466   0.00000  Uiso   1.00
H108   H     0.65580   0.05681   0.02034   0.00000  Uiso   1.00
H109   H     0.44764   0.08054   0.07341   0.00000  Uiso   1.00
H110   H     0.44057   0.09297   0.13484   0.00000  Uiso   1.00
H111   H     0.51029   0.09269   0.11557   0.00000  Uiso   1.00
H112   H     0.41778   0.05861   0.42491   0.00000  Uiso   1.00
H113   H     0.47676   0.01587   0.42947   0.00000  Uiso   1.00
H114   H     0.44252   0.02756   0.37236   0.00000  Uiso   1.00
H115   H     0.39952   0.00257   0.25537   0.00000  Uiso   1.00
H116   H     0.58736   0.06235   0.45002   0.00000  Uiso   1.00
H117   H     0.60106   0.33093   0.24765   0.00000  Uiso   1.00
H118   H     0.44268   0.05234   0.20234   0.00000  Uiso   1.00
H119   H     0.48190   0.06583   0.26154   0.00000  Uiso   1.00
H120   H     0.51475   0.03751   0.21194   0.00000  Uiso   1.00
H121   H     0.52541   0.27291   0.25179   0.00000  Uiso   1.00
H122   H     0.56586   0.26987   0.31054   0.00000  Uiso   1.00
H123   H     0.49694   0.29471   0.30554   0.00000  Uiso   1.00
H124   H     0.56867   0.25676   0.04749   0.00000  Uiso   1.00
H125   H     0.57012   0.29460   0.10370   0.00000  Uiso   1.00
H126   H     0.63214   0.26156   0.08991   0.00000  Uiso   1.00
H127   H     0.50500   0.24132   0.43873   0.00000  Uiso   1.00
H128   H     0.46562   0.26332   0.38627   0.00000  Uiso   1.00
H129   H     0.53484   0.23858   0.38353   0.00000  Uiso   1.00
H130   H     0.35211   0.08351   0.10434   0.00000  Uiso   1.00
N131   N     0.48029   0.15216   0.23740   0.00000  Uiso   1.00
N132   N     0.51971   0.18117   0.26261   0.00000  Uiso   1.00
O133   O     0.63052   0.24631   0.25310   0.00000  Uiso   1.00
O134   O     0.47000   0.18276   0.38586   0.00000  Uiso   1.00
O135   O     0.46585   0.15915   0.10487   0.00000  Uiso   1.00
O136   O     0.49460   0.08899   0.40491   0.00000  Uiso   1.00
O137   O     0.50153   0.11528   0.20884   0.00000  Uiso   1.00
O138   O     0.49850   0.21532   0.29386   0.00000  Uiso   1.00
O139   O     0.36948   0.08702   0.24691   0.00000  Uiso   1.00
O140   O     0.39155   0.23702   0.24502   0.00000  Uiso   1.00
O141   O     0.60845   0.09632   0.25499   0.00000  Uiso   1.00
O142   O     0.63662   0.17397   0.32247   0.00000  Uiso   1.00
O143   O     0.36338   0.15937   0.17753   0.00000  Uiso   1.00
O144   O     0.39764   0.16467   0.31439   0.00000  Uiso   1.00
O145   O     0.60236   0.16866   0.18561   0.00000  Uiso   1.00
O146   O     0.56350   0.21507   0.10747   0.00000  Uiso   1.00
Zn147  Zn    0.60366   0.17287   0.25540   0.00000  Uiso   1.00
Zn148  Zn    0.39634   0.16046   0.24461   0.00000  Uiso   1.00
C149   C     0.68142   0.26470   0.24963   0.00000  Uiso   1.00
C150   C     0.97756   0.16085   0.15968   0.00000  Uiso   1.00
C151   C     0.70192   0.17902   0.39216   0.00000  Uiso   1.00
C152   C     0.96282   0.14705   0.10907   0.00000  Uiso   1.00
C153   C     0.67303   0.19504   0.47165   0.00000  Uiso   1.00
C154   C     0.96810   0.08781   0.03869   0.00000  Uiso   1.00
C155   C     0.99273   0.18946   0.42245   0.00000  Uiso   1.00
C156   C     0.98690   0.10462   0.08578   0.00000  Uiso   1.00
C157   C     0.75760   0.17452   0.41196   0.00000  Uiso   1.00
C158   C     0.91714   0.17021   0.08620   0.00000  Uiso   1.00
C159   C     0.76706   0.16594   0.45985   0.00000  Uiso   1.00
C160   C     0.98543   0.06870   0.25116   0.00000  Uiso   1.00
C161   C     0.89038   0.14543   0.04333   0.00000  Uiso   1.00
C162   C     0.72698   0.18292   0.49066   0.00000  Uiso   1.00
C163   C     0.91971   0.10836   0.01703   0.00000  Uiso   1.00
C164   C     0.81757   0.14504   0.47790   0.00000  Uiso   1.00
C165   C     0.83488   0.15599   0.02651   0.00000  Uiso   1.00
C166   C     0.91821   0.25846   0.08579   0.00000  Uiso   1.00
C167   C     0.82767   0.23375   0.39957   0.00000  Uiso   1.00
C168   C     0.79968   0.10415   0.10658   0.00000  Uiso   1.00
C169   C     0.78968   0.04598   0.40867   0.00000  Uiso   1.00
C170   C     0.81705   0.06612   0.22235   0.00000  Uiso   1.00
C171   C     0.79362   0.17032   0.05781   0.00000  Uiso   1.00
C172   C     0.85701   0.26502   0.28972   0.00000  Uiso   1.00
C173   C     0.84850   0.10959   0.45026   0.00000  Uiso   1.00
C174   C     0.74099   0.18563   0.03959   0.00000  Uiso   1.00
C175   C     0.89865   0.09087   0.47058   0.00000  Uiso   1.00
C176   C     0.68960   0.31926   0.25187   0.00000  Uiso   1.00
C177   C     0.97757   0.01426   0.25052   0.00000  Uiso   1.00
C178   C     0.68915   0.17277   0.34049   0.00000  Uiso   1.00
H179   H     0.71034   0.19734   0.06377   0.00000  Uiso   1.00
H180   H     0.94973   0.19487   0.40823   0.00000  Uiso   1.00
H181   H     0.97432   0.20650   0.49466   0.00000  Uiso   1.00
H182   H     0.98913   0.05681   0.02034   0.00000  Uiso   1.00
H183   H     0.78098   0.08054   0.07341   0.00000  Uiso   1.00
H184   H     0.77391   0.09297   0.13484   0.00000  Uiso   1.00
H185   H     0.84362   0.09269   0.11557   0.00000  Uiso   1.00
H186   H     0.75111   0.05861   0.42491   0.00000  Uiso   1.00
H187   H     0.81009   0.01587   0.42947   0.00000  Uiso   1.00
H188   H     0.77586   0.02756   0.37236   0.00000  Uiso   1.00
H189   H     0.73285   0.00257   0.25537   0.00000  Uiso   1.00
H190   H     0.92070   0.06235   0.45002   0.00000  Uiso   1.00
H191   H     0.93439   0.33093   0.24765   0.00000  Uiso   1.00
H192   H     0.77601   0.05234   0.20234   0.00000  Uiso   1.00
H193   H     0.81523   0.06583   0.26154   0.00000  Uiso   1.00
H194   H     0.84809   0.03751   0.21194   0.00000  Uiso   1.00
H195   H     0.85875   0.27291   0.25179   0.00000  Uiso   1.00
H196   H     0.89919   0.26987   0.31054   0.00000  Uiso   1.00
H197   H     0.83027   0.29471   0.30554   0.00000  Uiso   1.00
H198   H     0.90200   0.25676   0.04749   0.00000  Uiso   1.00
H199   H     0.90345   0.29460   0.10370   0.00000  Uiso   1.00
H200   H     0.96547   0.26156   0.08991   0.00000  Uiso   1.00
H201   H     0.83834   0.24132   0.43873   0.00000  Uiso   1.00
H202   H     0.79896   0.26332   0.38627   0.00000  Uiso   1.00
H203   H     0.86817   0.23858   0.38353   0.00000  Uiso   1.00
H204   H     0.68544   0.08351   0.10434   0.00000  Uiso   1.00
N205   N     0.81362   0.15216   0.23740   0.00000  Uiso   1.00
N206   N     0.85305   0.18117   0.26261   0.00000  Uiso   1.00
O207   O     0.96386   0.24631   0.25310   0.00000  Uiso   1.00
O208   O     0.80333   0.18276   0.38586   0.00000  Uiso   1.00
O209   O     0.79918   0.15915   0.10487   0.00000  Uiso   1.00
O210   O     0.82794   0.08899   0.40491   0.00000  Uiso   1.00
O211   O     0.83486   0.11528   0.20884   0.00000  Uiso   1.00
O212   O     0.83183   0.21532   0.29386   0.00000  Uiso   1.00
O213   O     0.70281   0.08702   0.24691   0.00000  Uiso   1.00
O214   O     0.72488   0.23702   0.24502   0.00000  Uiso   1.00
O215   O     0.94178   0.09632   0.25499   0.00000  Uiso   1.00
O216   O     0.96995   0.17397   0.32247   0.00000  Uiso   1.00
O217   O     0.69672   0.15937   0.17753   0.00000  Uiso   1.00
O218   O     0.73098   0.16467   0.31439   0.00000  Uiso   1.00
O219   O     0.93569   0.16866   0.18561   0.00000  Uiso   1.00
O220   O     0.89684   0.21507   0.10747   0.00000  Uiso   1.00
Zn221  Zn    0.93700   0.17287   0.25540   0.00000  Uiso   1.00
Zn222  Zn    0.72967   0.16046   0.24461   0.00000  Uiso   1.00
C223   C     0.01476   0.59803   0.24963   0.00000  Uiso   1.00
C224   C     0.31089   0.49419   0.15968   0.00000  Uiso   1.00
C225   C     0.03525   0.51236   0.39216   0.00000  Uiso   1.00
C226   C     0.29615   0.48039   0.10907   0.00000  Uiso   1.00
C227   C     0.00636   0.52837   0.47165   0.00000  Uiso   1.00
C228   C     0.30143   0.42115   0.03869   0.00000  Uiso   1.00
C229   C     0.32606   0.52279   0.42245   0.00000  Uiso   1.00
C230   C     0.32024   0.43796   0.08578   0.00000  Uiso   1.00
C231   C     0.09094   0.50785   0.41196   0.00000  Uiso   1.00
C232   C     0.25047   0.50354   0.08620   0.00000  Uiso   1.00
C233   C     0.10039   0.49927   0.45985   0.00000  Uiso   1.00
C234   C     0.31876   0.40203   0.25116   0.00000  Uiso   1.00
C235   C     0.22371   0.47877   0.04333   0.00000  Uiso   1.00
C236   C     0.06032   0.51626   0.49066   0.00000  Uiso   1.00
C237   C     0.25304   0.44170   0.01703   0.00000  Uiso   1.00
C238   C     0.15090   0.47838   0.47790   0.00000  Uiso   1.00
C239   C     0.16821   0.48933   0.02651   0.00000  Uiso   1.00
C240   C     0.25154   0.59179   0.08579   0.00000  Uiso   1.00
C241   C     0.16101   0.56709   0.39957   0.00000  Uiso   1.00
C242   C     0.13302   0.43748   0.10658   0.00000  Uiso   1.00
C243   C     0.12302   0.37931   0.40867   0.00000  Uiso   1.00
C244   C     0.15038   0.39945   0.22235   0.00000  Uiso   1.00
C245   C     0.12696   0.50366   0.05781   0.00000  Uiso   1.00
C246   C     0.19035   0.59836   0.28972   0.00000  Uiso   1.00
C247   C     0.18183   0.44292   0.45026   0.00000  Uiso   1.00
C248   C     0.07433   0.51896   0.03959   0.00000  Uiso   1.00
C249   C     0.23198   0.42420   0.47058   0.00000  Uiso   1.00
C250   C     0.02293   0.65259   0.25187   0.00000  Uiso   1.00
C251   C     0.31091   0.34759   0.25052   0.00000  Uiso   1.00
C252   C     0.02249   0.50610   0.34049   0.00000  Uiso   1.00
H253   H     0.04367   0.53068   0.06377   0.00000  Uiso   1.00
H254   H     0.28307   0.52820   0.40823   0.00000  Uiso   1.00
H255   H     0.30765   0.53983   0.49466   0.00000  Uiso   1.00
H256   H     0.32246   0.39014   0.02034   0.00000  Uiso   1.00
H257   H     0.11431   0.41387   0.07341   0.00000  Uiso   1.00
H258   H     0.10724   0.42630   0.13484   0.00000  Uiso   1.00
H259   H     0.17695   0.42602   0.11557   0.00000  Uiso   1.00
H260   H     0.08445   0.39194   0.42491   0.00000  Uiso   1.00
H261   H     0.14343   0.34920   0.42947   0.00000  Uiso   1.00
H262   H     0.10919   0.36090   0.37236   0.00000  Uiso   1.00
H263   H     0.06618   0.33590   0.25537   0.00000  Uiso   1.00
H264   H     0.25403   0.39568   0.45002   0.00000  Uiso   1.00
H265   H     0.26773   0.66426   0.24765   0.00000  Uiso   1.00
H266   H     0.10935   0.38567   0.20234   0.00000  Uiso   1.00
H267   H     0.14856   0.39917   0.26154   0.00000  Uiso   1.00
H268   H     0.18142   0.37085   0.21194   0.00000  Uiso   1.00
H269   H     0.19208   0.60624   0.25179   0.00000  Uiso   1.00
H270   H     0.23252   0.60320   0.31054   0.00000  Uiso   1.00
H271   H     0.16360   0.62804   0.30554   0.00000  Uiso   1.00
H272   H     0.23533   0.59010   0.04749   0.00000  Uiso   1.00
H273   H     0.23679   0.62793   0.10370   0.00000  Uiso   1.00
H274   H     0.29880   0.59489   0.08991   0.00000  Uiso   1.00
H275   H     0.17167   0.57465   0.43873   0.00000  Uiso   1.00
H276   H     0.13229   0.59666   0.38627   0.00000  Uiso   1.00
H277   H     0.20151   0.57192   0.38353   0.00000  Uiso   1.00
H278   H     0.01878   0.41684   0.10434   0.00000  Uiso   1.00
N279   N     0.14695   0.48550   0.23740   0.00000  Uiso   1.00
N280   N     0.18638   0.51450   0.26261   0.00000  Uiso   1.00
O281   O     0.29719   0.57964   0.25310   0.00000  Uiso   1.00
O282   O     0.13667   0.51610   0.38586   0.00000  Uiso   1.00
O283   O     0.13251   0.49249   0.10487   0.00000  Uiso   1.00
O284   O     0.16127   0.42232   0.40491   0.00000  Uiso   1.00
O285   O     0.16819   0.44861   0.20884   0.00000  Uiso   1.00
O286   O     0.16517   0.54865   0.29386   0.00000  Uiso   1.00
O287   O     0.03614   0.42036   0.24691   0.00000  Uiso   1.00
O288   O     0.05822   0.57035   0.24502   0.00000  Uiso   1.00
O289   O     0.27512   0.42965   0.25499   0.00000  Uiso   1.00
O290   O     0.30328   0.50730   0.32247   0.00000  Uiso   1.00
O291   O     0.03005   0.49270   0.17753   0.00000  Uiso   1.00
O292   O     0.06431   0.49801   0.31439   0.00000  Uiso   1.00
O293   O     0.26902   0.50199   0.18561   0.00000  Uiso   1.00
O294   O     0.23017   0.54841   0.10747   0.00000  Uiso   1.00
Zn295  Zn    0.27033   0.50621   0.25540   0.00000  Uiso   1.00
Zn296  Zn    0.06300   0.49379   0.24461   0.00000  Uiso   1.00
C297   C     0.34809   0.59803   0.24963   0.00000  Uiso   1.00
C298   C     0.64422   0.49419   0.15968   0.00000  Uiso   1.00
C299   C     0.36858   0.51236   0.39216   0.00000  Uiso   1.00
C300   C     0.62948   0.48039   0.10907   0.00000  Uiso   1.00
C301   C     0.33970   0.52837   0.47165   0.00000  Uiso   1.00
C302   C     0.63477   0.42115   0.03869   0.00000  Uiso   1.00
C303   C     0.65939   0.52279   0.42245   0.00000  Uiso   1.00
C304   C     0.65357   0.43796   0.08578   0.00000  Uiso   1.00
C305   C     0.42427   0.50785   0.41196   0.00000  Uiso   1.00
C306   C     0.58380   0.50354   0.08620   0.00000  Uiso   1.00
C307   C     0.43372   0.49927   0.45985   0.00000  Uiso   1.00
C308   C     0.65210   0.40203   0.25116   0.00000  Uiso   1.00
C309   C     0.55705   0.47877   0.04333   0.00000  Uiso   1.00
C310   C     0.39365   0.51626   0.49066   0.00000  Uiso   1.00
C311   C     0.58637   0.44170   0.01703   0.00000  Uiso   1.00
C312   C     0.48424   0.47838   0.47790   0.00000  Uiso   1.00
C313   C     0.50155   0.48933   0.02651   0.00000  Uiso   1.00
C314   C     0.58488   0.59179   0.08579   0.00000  Uiso   1.00
C315   C     0.49434   0.56709   0.39957   0.00000  Uiso   1.00
C316   C     0.46635   0.43748   0.10658   0.00000  Uiso   1.00
C317   C     0.45635   0.37931   0.40867   0.00000  Uiso   1.00
C318   C     0.48372   0.39945   0.22235   0.00000  Uiso   1.00
C319   C     0.46029   0.50366   0.05781   0.00000  Uiso   1.00
C320   C     0.52368   0.59836   0.28972   0.00000  Uiso   1.00
C321   C     0.51517   0.44292   0.45026   0.00000  Uiso   1.00
C322   C     0.40766   0.51896   0.03959   0.00000  Uiso   1.00
C323   C     0.56531   0.42420   0.47058   0.00000  Uiso   1.00
C324   C     0.35626   0.65259   0.25187   0.00000  Uiso   1.00
C325   C     0.64424   0.34759   0.25052   0.00000  Uiso   1.00
C326   C     0.35582   0.50610   0.34049   0.00000  Uiso   1.00
H327   H     0.37701   0.53068   0.06377   0.00000  Uiso   1.00
H328   H     0.61640   0.52820   0.40823   0.00000  Uiso   1.00
H329   H     0.64098   0.53983   0.49466   0.00000  Uiso   1.00
H330   H     0.65580   0.39014   0.02034   0.00000  Uiso   1.00
H331   H     0.44764   0.41387   0.07341   0.00000  Uiso   1.00
H332   H     0.44057   0.42630   0.13484   0.00000  Uiso   1.00
H333   H     0.51029   0.42602   0.11557   0.00000  Uiso   1.00
H334   H     0.41778   0.39194   0.42491   0.00000  Uiso   1.00
H335   H     0.47676   0.34920   0.42947   0.00000  Uiso   1.00
H336   H     0.44252   0.36090   0.37236   0.00000  Uiso   1.00
H337   H     0.39952   0.33590   0.25537   0.00000  Uiso   1.00
H338   H     0.58736   0.39568   0.45002   0.00000  Uiso   1.00
H339   H     0.60106   0.66426   0.24765   0.00000  Uiso   1.00
H340   H     0.44268   0.38567   0.20234   0.00000  Uiso   1.00
H341   H     0.48190   0.39917   0.26154   0.00000  Uiso   1.00
H342   H     0.51475   0.37085   0.21194   0.00000  Uiso   1.00
H343   H     0.52541   0.60624   0.25179   0.00000  Uiso   1.00
H344   H     0.56586   0.60320   0.31054   0.00000  Uiso   1.00
H345   H     0.49694   0.62804   0.30554   0.00000  Uiso   1.00
H346   H     0.56867   0.59010   0.04749   0.00000  Uiso   1.00
H347   H     0.57012   0.62793   0.10370   0.00000  Uiso   1.00
H348   H     0.63214   0.59489   0.08991   0.00000  Uiso   1.00
H349   H     0.50500   0.57465   0.43873   0.00000  Uiso   1.00
H350   H     0.46562   0.59666   0.38627   0.00000  Uiso   1.00
H351   H     0.53484   0.57192   0.38353   0.00000  Uiso   1.00
H352   H     0.35211   0.41684   0.10434   0.00000  Uiso   1.00
N353   N     0.48029   0.48550   0.23740   0.00000  Uiso   1.00
N354   N     0.51971   0.51450   0.26261   0.00000  Uiso   1.00
O355   O     0.63052   0.57964   0.25310   0.00000  Uiso   1.00
O356   O     0.47000   0.51610   0.38586   0.00000  Uiso   1.00
O357   O     0.46585   0.49249   0.10487   0.00000  Uiso   1.00
O358   O     0.49460   0.42232   0.40491   0.00000  Uiso   1.00
O359   O     0.50153   0.44861   0.20884   0.00000  Uiso   1.00
O360   O     0.49850   0.54865   0.29386   0.00000  Uiso   1.00
O361   O     0.36948   0.42036   0.24691   0.00000  Uiso   1.00
O362   O     0.39155   0.57035   0.24502   0.00000  Uiso   1.00
O363   O     0.60845   0.42965   0.25499   0.00000  Uiso   1.00
O364   O     0.63662   0.50730   0.32247   0.00000  Uiso   1.00
O365   O     0.36338   0.49270   0.17753   0.00000  Uiso   1.00
O366   O     0.39764   0.49801   0.31439   0.00000  Uiso   1.00
O367   O     0.60236   0.50199   0.18561   0.00000  Uiso   1.00
O368   O     0.56350   0.54841   0.10747   0.00000  Uiso   1.00
Zn369  Zn    0.60366   0.50621   0.25540   0.00000  Uiso   1.00
Zn370  Zn    0.39634   0.49379   0.24461   0.00000  Uiso   1.00
C371   C     0.68142   0.59803   0.24963   0.00000  Uiso   1.00
C372   C     0.97756   0.49419   0.15968   0.00000  Uiso   1.00
C373   C     0.70192   0.51236   0.39216   0.00000  Uiso   1.00
C374   C     0.96282   0.48039   0.10907   0.00000  Uiso   1.00
C375   C     0.67303   0.52837   0.47165   0.00000  Uiso   1.00
C376   C     0.96810   0.42115   0.03869   0.00000  Uiso   1.00
C377   C     0.99273   0.52279   0.42245   0.00000  Uiso   1.00
C378   C     0.98690   0.43796   0.08578   0.00000  Uiso   1.00
C379   C     0.75760   0.50785   0.41196   0.00000  Uiso   1.00
C380   C     0.91714   0.50354   0.08620   0.00000  Uiso   1.00
C381   C     0.76706   0.49927   0.45985   0.00000  Uiso   1.00
C382   C     0.98543   0.40203   0.25116   0.00000  Uiso   1.00
C383   C     0.89038   0.47877   0.04333   0.00000  Uiso   1.00
C384   C     0.72698   0.51626   0.49066   0.00000  Uiso   1.00
C385   C     0.91971   0.44170   0.01703   0.00000  Uiso   1.00
C386   C     0.81757   0.47838   0.47790   0.00000  Uiso   1.00
C387   C     0.83488   0.48933   0.02651   0.00000  Uiso   1.00
C388   C     0.91821   0.59179   0.08579   0.00000  Uiso   1.00
C389   C     0.82767   0.56709   0.39957   0.00000  Uiso   1.00
C390   C     0.79968   0.43748   0.10658   0.00000  Uiso   1.00
C391   C     0.78968   0.37931   0.40867   0.00000  Uiso   1.00
C392   C     0.81705   0.39945   0.22235   0.00000  Uiso   1.00
C393   C     0.79362   0.50366   0.05781   0.00000  Uiso   1.00
C394   C     0.85701   0.59836   0.28972   0.00000  Uiso   1.00
C395   C     0.84850   0.44292   0.45026   0.00000  Uiso   1.00
C396   C     0.74099   0.51896   0.03959   0.00000  Uiso   1.00
C397   C     0.89865   0.42420   0.47058   0.00000  Uiso   1.00
C398   C     0.68960   0.65259   0.25187   0.00000  Uiso   1.00
C399   C     0.97757   0.34759   0.25052   0.00000  Uiso   1.00
C400   C     0.68915   0.50610   0.34049   0.00000  Uiso   1.00
H401   H     0.71034   0.53068   0.06377   0.00000  Uiso   1.00
H402   H     0.94973   0.52820   0.40823   0.00000  Uiso   1.00
H403   H     0.97432   0.53983   0.49466   0.00000  Uiso   1.00
H404   H     0.98913   0.39014   0.02034   0.00000  Uiso   1.00
H405   H     0.78098   0.41387   0.07341   0.00000  Uiso   1.00
H406   H     0.77391   0.42630   0.13484   0.00000  Uiso   1.00
H407   H     0.84362   0.42602   0.11557   0.00000  Uiso   1.00
H408   H     0.75111   0.39194   0.42491   0.00000  Uiso   1.00
H409   H     0.81009   0.34920   0.42947   0.00000  Uiso   1.00
H410   H     0.77586   0.36090   0.37236   0.00000  Uiso   1.00
H411   H     0.73285   0.33590   0.25537   0.00000  Uiso   1.00
H412   H     0.92070   0.39568   0.45002   0.00000  Uiso   1.00
H413   H     0.93439   0.66426   0.24765   0.00000  Uiso   1.00
H414   H     0.77601   0.38567   0.20234   0.00000  Uiso   1.00
H415   H     0.81523   0.39917   0.26154   0.00000  Uiso   1.00
H416   H     0.84809   0.37085   0.21194   0.00000  Uiso   1.00
H417   H     0.85875   0.60624   0.25179   0.00000  Uiso   1.00
H418   H     0.89919   0.60320   0.31054   0.00000  Uiso   1.00
H419   H     0.83027   0.62804   0.30554   0.00000  Uiso   1.00
H420   H     0.90200   0.59010   0.04749   0.00000  Uiso   1.00
H421   H     0.90345   0.62793   0.10370   0.00000  Uiso   1.00
H422   H     0.96547   0.59489   0.08991   0.00000  Uiso   1.00
H423   H     0.83834   0.57465   0.43873   0.00000  Uiso   1.00
H424   H     0.79896   0.59666   0.38627   0.00000  Uiso   1.00
H425   H     0.86817   0.57192   0.38353   0.00000  Uiso   1.00
H426   H     0.68544   0.41684   0.10434   0.00000  Uiso   1.00
N427   N     0.81362   0.48550   0.23740   0.00000  Uiso   1.00
N428   N     0.85305   0.51450   0.26261   0.00000  Uiso   1.00
O429   O     0.96386   0.57964   0.25310   0.00000  Uiso   1.00
O430   O     0.80333   0.51610   0.38586   0.00000  Uiso   1.00
O431   O     0.79918   0.49249   0.10487   0.00000  Uiso   1.00
O432   O     0.82794   0.42232   0.40491   0.00000  Uiso   1.00
O433   O     0.83486   0.44861   0.20884   0.00000  Uiso   1.00
O434   O     0.83183   0.54865   0.29386   0.00000  Uiso   1.00
O435   O     0.70281   0.42036   0.24691   0.00000  Uiso   1.00
O436   O     0.72488   0.57035   0.24502   0.00000  Uiso   1.00
O437   O     0.94178   0.42965   0.25499   0.00000  Uiso   1.00
O438   O     0.96995   0.50730   0.32247   0.00000  Uiso   1.00
O439   O     0.69672   0.49270   0.17753   0.00000  Uiso   1.00
O440   O     0.73098   0.49801   0.31439   0.00000  Uiso   1.00
O441   O     0.93569   0.50199   0.18561   0.00000  Uiso   1.00
O442   O     0.89684   0.54841   0.10747   0.00000  Uiso   1.00
Zn443  Zn    0.93700   0.50621   0.25540   0.00000  Uiso   1.00
Zn444  Zn    0.72967   0.49379   0.24461   0.00000  Uiso   1.00
C445   C     0.01476   0.93137   0.24963   0.00000  Uiso   1.00
C446   C     0.31089   0.82752   0.15968   0.00000  Uiso   1.00
C447   C     0.03525   0.84569   0.39216   0.00000  Uiso   1.00
C448   C     0.29615   0.81372   0.10907   0.00000  Uiso   1.00
C449   C     0.00636   0.86170   0.47165   0.00000  Uiso   1.00
C450   C     0.30143   0.75448   0.03869   0.00000  Uiso   1.00
C451   C     0.32606   0.85613   0.42245   0.00000  Uiso   1.00
C452   C     0.32024   0.77129   0.08578   0.00000  Uiso   1.00
C453   C     0.09094   0.84119   0.41196   0.00000  Uiso   1.00
C454   C     0.25047   0.83688   0.08620   0.00000  Uiso   1.00
C455   C     0.10039   0.83261   0.45985   0.00000  Uiso   1.00
C456   C     0.31876   0.73537   0.25116   0.00000  Uiso   1.00
C457   C     0.22371   0.81210   0.04333   0.00000  Uiso   1.00
C458   C     0.06032   0.84959   0.49066   0.00000  Uiso   1.00
C459   C     0.25304   0.77503   0.01703   0.00000  Uiso   1.00
C460   C     0.15090   0.81171   0.47790   0.00000  Uiso   1.00
C461   C     0.16821   0.82266   0.02651   0.00000  Uiso   1.00
C462   C     0.25154   0.92513   0.08579   0.00000  Uiso   1.00
C463   C     0.16101   0.90042   0.39957   0.00000  Uiso   1.00
C464   C     0.13302   0.77082   0.10658   0.00000  Uiso   1.00
C465   C     0.12302   0.71265   0.40867   0.00000  Uiso   1.00
C466   C     0.15038   0.73278   0.22235   0.00000  Uiso   1.00
C467   C     0.12696   0.83699   0.05781   0.00000  Uiso   1.00
C468   C     0.19035   0.93169   0.28972   0.00000  Uiso   1.00
C469   C     0.18183   0.77625   0.45026   0.00000  Uiso   1.00
C470   C     0.07433   0.85230   0.03959   0.00000  Uiso   1.00
C471   C     0.23198   0.75753   0.47058   0.00000  Uiso   1.00
C472   C     0.02293   0.98593   0.25187   0.00000  Uiso   1.00
C473   C     0.31091   0.68093   0.25052   0.00000  Uiso   1.00
C474   C     0.02249   0.83944   0.34049   0.00000  Uiso   1.00
H475   H     0.04367   0.86401   0.06377   0.00000  Uiso   1.00
H476   H     0.28307   0.86154   0.40823   0.00000  Uiso   1.00
H477   H     0.30765   0.87317   0.49466   0.00000  Uiso   1.00
H478   H     0.32246   0.72348   0.02034   0.00000  Uiso   1.00
H479   H     0.11431   0.74720   0.07341   0.00000  Uiso   1.00
H480   H     0.10724   0.75963   0.13484   0.00000  Uiso   1.00
H481   H     0.17695   0.75935   0.11557   0.00000  Uiso   1.00
H482   H     0.08445   0.72527   0.42491   0.00000  Uiso   1.00
H483   H     0.14343   0.68253   0.42947   0.00000  Uiso   1.00
H484   H     0.10919   0.69423   0.37236   0.00000  Uiso   1.00
H485   H     0.06618   0.66924   0.25537   0.00000  Uiso   1.00
H486   H     0.25403   0.72901   0.45002   0.00000  Uiso   1.00
H487   H     0.26773   0.99760   0.24765   0.00000  Uiso   1.00
H488   H     0.10935   0.71901   0.20234   0.00000  Uiso   1.00
H489   H     0.14856   0.73250   0.26154   0.00000  Uiso   1.00
H490   H     0.18142   0.70418   0.21194   0.00000  Uiso   1.00
H491   H     0.19208   0.93958   0.25179   0.00000  Uiso   1.00
H492   H     0.23252   0.93653   0.31054   0.00000  Uiso   1.00
H493   H     0.16360   0.96137   0.30554   0.00000  Uiso   1.00
H494   H     0.23533   0.92343   0.04749   0.00000  Uiso   1.00
H495   H     0.23679   0.96126   0.10370   0.00000  Uiso   1.00
H496   H     0.29880   0.92822   0.08991   0.00000  Uiso   1.00
H497   H     0.17167   0.90798   0.43873   0.00000  Uiso   1.00
H498   H     0.13229   0.92999   0.38627   0.00000  Uiso   1.00
H499   H     0.20151   0.90525   0.38353   0.00000  Uiso   1.00
H500   H     0.01878   0.75017   0.10434   0.00000  Uiso   1.00
N501   N     0.14695   0.81883   0.23740   0.00000  Uiso   1.00
N502   N     0.18638   0.84784   0.26261   0.00000  Uiso   1.00
O503   O     0.29719   0.91298   0.25310   0.00000  Uiso   1.00
O504   O     0.13667   0.84943   0.38586   0.00000  Uiso   1.00
O505   O     0.13251   0.82582   0.10487   0.00000  Uiso   1.00
O506   O     0.16127   0.75566   0.40491   0.00000  Uiso   1.00
O507   O     0.16819   0.78194   0.20884   0.00000  Uiso   1.00
O508   O     0.16517   0.88199   0.29386   0.00000  Uiso   1.00
O509   O     0.03614   0.75369   0.24691   0.00000  Uiso   1.00
O510   O     0.05822   0.90368   0.24502   0.00000  Uiso   1.00
O511   O     0.27512   0.76298   0.25499   0.00000  Uiso   1.00
O512   O     0.30328   0.84063   0.32247   0.00000  Uiso   1.00
O513   O     0.03005   0.82603   0.17753   0.00000  Uiso   1.00
O514   O     0.06431   0.83134   0.31439   0.00000  Uiso   1.00
O515   O     0.26902   0.83533   0.18561   0.00000  Uiso   1.00
O516   O     0.23017   0.88174   0.10747   0.00000  Uiso   1.00
Zn517  Zn    0.27033   0.83954   0.25540   0.00000  Uiso   1.00
Zn518  Zn    0.06300   0.82713   0.24461   0.00000  Uiso   1.00
C519   C     0.34809   0.93137   0.24963   0.00000  Uiso   1.00
C520   C     0.64422   0.82752   0.15968   0.00000  Uiso   1.00
C521   C     0.36858   0.84569   0.39216   0.00000  Uiso   1.00
C522   C     0.62948   0.81372   0.10907   0.00000  Uiso   1.00
C523   C     0.33970   0.86170   0.47165   0.00000  Uiso   1.00
C524   C     0.63477   0.75448   0.03869   0.00000  Uiso   1.00
C525   C     0.65939   0.85613   0.42245   0.00000  Uiso   1.00
C526   C     0.65357   0.77129   0.08578   0.00000  Uiso   1.00
C527   C     0.42427   0.84119   0.41196   0.00000  Uiso   1.00
C528   C     0.58380   0.83688   0.08620   0.00000  Uiso   1.00
C529   C     0.43372   0.83261   0.45985   0.00000  Uiso   1.00
C530   C     0.65210   0.73537   0.25116   0.00000  Uiso   1.00
C531   C     0.55705   0.81210   0.04333   0.00000  Uiso   1.00
C532   C     0.39365   0.84959   0.49066   0.00000  Uiso   1.00
C533   C     0.58637   0.77503   0.01703   0.00000  Uiso   1.00
C534   C     0.48424   0.81171   0.47790   0.00000  Uiso   1.00
C535   C     0.50155   0.82266   0.02651   0.00000  Uiso   1.00
C536   C     0.58488   0.92513   0.08579   0.00000  Uiso   1.00
C537   C     0.49434   0.90042   0.39957   0.00000  Uiso   1.00
C538   C     0.46635   0.77082   0.10658   0.00000  Uiso   1.00
C539   C     0.45635   0.71265   0.40867   0.00000  Uiso   1.00
C540   C     0.48372   0.73278   0.22235   0.00000  Uiso   1.00
C541   C     0.46029   0.83699   0.05781   0.00000  Uiso   1.00
C542   C     0.52368   0.93169   0.28972   0.00000  Uiso   1.00
C543   C     0.51517   0.77625   0.45026   0.00000  Uiso   1.00
C544   C     0.40766   0.85230   0.03959   0.00000  Uiso   1.00
C545   C     0.56531   0.75753   0.47058   0.00000  Uiso   1.00
C546   C     0.35626   0.98593   0.25187   0.00000  Uiso   1.00
C547   C     0.64424   0.68093   0.25052   0.00000  Uiso   1.00
C548   C     0.35582   0.83944   0.34049   0.00000  Uiso   1.00
H549   H     0.37701   0.86401   0.06377   0.00000  Uiso   1.00
H550   H     0.61640   0.86154   0.40823   0.00000  Uiso   1.00
H551   H     0.64098   0.87317   0.49466   0.00000  Uiso   1.00
H552   H     0.65580   0.72348   0.02034   0.00000  Uiso   1.00
H553   H     0.44764   0.74720   0.07341   0.00000  Uiso   1.00
H554   H     0.44057   0.75963   0.13484   0.00000  Uiso   1.00
H555   H     0.51029   0.75935   0.11557   0.00000  Uiso   1.00
H556   H     0.41778   0.72527   0.42491   0.00000  Uiso   1.00
H557   H     0.47676   0.68253   0.42947   0.00000  Uiso   1.00
H558   H     0.44252   0.69423   0.37236   0.00000  Uiso   1.00
H559   H     0.39952   0.66924   0.25537   0.00000  Uiso   1.00
H560   H     0.58736   0.72901   0.45002   0.00000  Uiso   1.00
H561   H     0.60106   0.99760   0.24765   0.00000  Uiso   1.00
H562   H     0.44268   0.71901   0.20234   0.00000  Uiso   1.00
H563   H     0.48190   0.73250   0.26154   0.00000  Uiso   1.00
H564   H     0.51475   0.70418   0.21194   0.00000  Uiso   1.00
H565   H     0.52541   0.93958   0.25179   0.00000  Uiso   1.00
H566   H     0.56586   0.93653   0.31054   0.00000  Uiso   1.00
H567   H     0.49694   0.96137   0.30554   0.00000  Uiso   1.00
H568   H     0.56867   0.92343   0.04749   0.00000  Uiso   1.00
H569   H     0.57012   0.96126   0.10370   0.00000  Uiso   1.00
H570   H     0.63214   0.92822   0.08991   0.00000  Uiso   1.00
H571   H     0.50500   0.90798   0.43873   0.00000  Uiso   1.00
H572   H     0.46562   0.92999   0.38627   0.00000  Uiso   1.00
H573   H     0.53484   0.90525   0.38353   0.00000  Uiso   1.00
H574   H     0.35211   0.75017   0.10434   0.00000  Uiso   1.00
N575   N     0.48029   0.81883   0.23740   0.00000  Uiso   1.00
N576   N     0.51971   0.84784   0.26261   0.00000  Uiso   1.00
O577   O     0.63052   0.91298   0.25310   0.00000  Uiso   1.00
O578   O     0.47000   0.84943   0.38586   0.00000  Uiso   1.00
O579   O     0.46585   0.82582   0.10487   0.00000  Uiso   1.00
O580   O     0.49460   0.75566   0.40491   0.00000  Uiso   1.00
O581   O     0.50153   0.78194   0.20884   0.00000  Uiso   1.00
O582   O     0.49850   0.88199   0.29386   0.00000  Uiso   1.00
O583   O     0.36948   0.75369   0.24691   0.00000  Uiso   1.00
O584   O     0.39155   0.90368   0.24502   0.00000  Uiso   1.00
O585   O     0.60845   0.76298   0.25499   0.00000  Uiso   1.00
O586   O     0.63662   0.84063   0.32247   0.00000  Uiso   1.00
O587   O     0.36338   0.82603   0.17753   0.00000  Uiso   1.00
O588   O     0.39764   0.83134   0.31439   0.00000  Uiso   1.00
O589   O     0.60236   0.83533   0.18561   0.00000  Uiso   1.00
O590   O     0.56350   0.88174   0.10747   0.00000  Uiso   1.00
Zn591  Zn    0.60366   0.83954   0.25540   0.00000  Uiso   1.00
Zn592  Zn    0.39634   0.82713   0.24461   0.00000  Uiso   1.00
C593   C     0.68142   0.93137   0.24963   0.00000  Uiso   1.00
C594   C     0.97756   0.82752   0.15968   0.00000  Uiso   1.00
C595   C     0.70192   0.84569   0.39216   0.00000  Uiso   1.00
C596   C     0.96282   0.81372   0.10907   0.00000  Uiso   1.00
C597   C     0.67303   0.86170   0.47165   0.00000  Uiso   1.00
C598   C     0.96810   0.75448   0.03869   0.00000  Uiso   1.00
C599   C     0.99273   0.85613   0.42245   0.00000  Uiso   1.00
C600   C     0.98690   0.77129   0.08578   0.00000  Uiso   1.00
C601   C     0.75760   0.84119   0.41196   0.00000  Uiso   1.00
C602   C     0.91714   0.83688   0.08620   0.00000  Uiso   1.00
C603   C     0.76706   0.83261   0.45985   0.00000  Uiso   1.00
C604   C     0.98543   0.73537   0.25116   0.00000  Uiso   1.00
C605   C     0.89038   0.81210   0.04333   0.00000  Uiso   1.00
C606   C     0.72698   0.84959   0.49066   0.00000  Uiso   1.00
C607   C     0.91971   0.77503   0.01703   0.00000  Uiso   1.00
C608   C     0.81757   0.81171   0.47790   0.00000  Uiso   1.00
C609   C     0.83488   0.82266   0.02651   0.00000  Uiso   1.00
C610   C     0.91821   0.92513   0.08579   0.00000  Uiso   1.00
C611   C     0.82767   0.90042   0.39957   0.00000  Uiso   1.00
C612   C     0.79968   0.77082   0.10658   0.00000  Uiso   1.00
C613   C     0.78968   0.71265   0.40867   0.00000  Uiso   1.00
C614   C     0.81705   0.73278   0.22235   0.00000  Uiso   1.00
C615   C     0.79362   0.83699   0.05781   0.00000  Uiso   1.00
C616   C     0.85701   0.93169   0.28972   0.00000  Uiso   1.00
C617   C     0.84850   0.77625   0.45026   0.00000  Uiso   1.00
C618   C     0.74099   0.85230   0.03959   0.00000  Uiso   1.00
C619   C     0.89865   0.75753   0.47058   0.00000  Uiso   1.00
C620   C     0.68960   0.98593   0.25187   0.00000  Uiso   1.00
C621   C     0.97757   0.68093   0.25052   0.00000  Uiso   1.00
C622   C     0.68915   0.83944   0.34049   0.00000  Uiso   1.00
H623   H     0.71034   0.86401   0.06377   0.00000  Uiso   1.00
H624   H     0.94973   0.86154   0.40823   0.00000  Uiso   1.00
H625   H     0.97432   0.87317   0.49466   0.00000  Uiso   1.00
H626   H     0.98913   0.72348   0.02034   0.00000  Uiso   1.00
H627   H     0.78098   0.74720   0.07341   0.00000  Uiso   1.00
H628   H     0.77391   0.75963   0.13484   0.00000  Uiso   1.00
H629   H     0.84362   0.75935   0.11557   0.00000  Uiso   1.00
H630   H     0.75111   0.72527   0.42491   0.00000  Uiso   1.00
H631   H     0.81009   0.68253   0.42947   0.00000  Uiso   1.00
H632   H     0.77586   0.69423   0.37236   0.00000  Uiso   1.00
H633   H     0.73285   0.66924   0.25537   0.00000  Uiso   1.00
H634   H     0.92070   0.72901   0.45002   0.00000  Uiso   1.00
H635   H     0.93439   0.99760   0.24765   0.00000  Uiso   1.00
H636   H     0.77601   0.71901   0.20234   0.00000  Uiso   1.00
H637   H     0.81523   0.73250   0.26154   0.00000  Uiso   1.00
H638   H     0.84809   0.70418   0.21194   0.00000  Uiso   1.00
H639   H     0.85875   0.93958   0.25179   0.00000  Uiso   1.00
H640   H     0.89919   0.93653   0.31054   0.00000  Uiso   1.00
H641   H     0.83027   0.96137   0.30554   0.00000  Uiso   1.00
H642   H     0.90200   0.92343   0.04749   0.00000  Uiso   1.00
H643   H     0.90345   0.96126   0.10370   0.00000  Uiso   1.00
H644   H     0.96547   0.92822   0.08991   0.00000  Uiso   1.00
H645   H     0.83834   0.90798   0.43873   0.00000  Uiso   1.00
H646   H     0.79896   0.92999   0.38627   0.00000  Uiso   1.00
H647   H     0.86817   0.90525   0.38353   0.00000  Uiso   1.00
H648   H     0.68544   0.75017   0.10434   0.00000  Uiso   1.00
N649   N     0.81362   0.81883   0.23740   0.00000  Uiso   1.00
N650   N     0.85305   0.84784   0.26261   0.00000  Uiso   1.00
O651   O     0.96386   0.91298   0.25310   0.00000  Uiso   1.00
O652   O     0.80333   0.84943   0.38586   0.00000  Uiso   1.00
O653   O     0.79918   0.82582   0.10487   0.00000  Uiso   1.00
O654   O     0.82794   0.75566   0.40491   0.00000  Uiso   1.00
O655   O     0.83486   0.78194   0.20884   0.00000  Uiso   1.00
O656   O     0.83183   0.88199   0.29386   0.00000  Uiso   1.00
O657   O     0.70281   0.75369   0.24691   0.00000  Uiso   1.00
O658   O     0.72488   0.90368   0.24502   0.00000  Uiso   1.00
O659   O     0.94178   0.76298   0.25499   0.00000  Uiso   1.00
O660   O     0.96995   0.84063   0.32247   0.00000  Uiso   1.00
O661   O     0.69672   0.82603   0.17753   0.00000  Uiso   1.00
O662   O     0.73098   0.83134   0.31439   0.00000  Uiso   1.00
O663   O     0.93569   0.83533   0.18561   0.00000  Uiso   1.00
O664   O     0.89684   0.88174   0.10747   0.00000  Uiso   1.00
Zn665  Zn    0.93700   0.83954   0.25540   0.00000  Uiso   1.00
Zn666  Zn    0.72967   0.82713   0.24461   0.00000  Uiso   1.00
C667   C     0.01476   0.26470   0.74963   0.00000  Uiso   1.00
C668   C     0.31089   0.16085   0.65968   0.00000  Uiso   1.00
C669   C     0.03525   0.17902   0.89216   0.00000  Uiso   1.00
C670   C     0.29615   0.14705   0.60907   0.00000  Uiso   1.00
C671   C     0.00636   0.19504   0.97165   0.00000  Uiso   1.00
C672   C     0.30143   0.08781   0.53869   0.00000  Uiso   1.00
C673   C     0.32606   0.18946   0.92245   0.00000  Uiso   1.00
C674   C     0.32024   0.10462   0.58578   0.00000  Uiso   1.00
C675   C     0.09094   0.17452   0.91196   0.00000  Uiso   1.00
C676   C     0.25047   0.17021   0.58620   0.00000  Uiso   1.00
C677   C     0.10039   0.16594   0.95985   0.00000  Uiso   1.00
C678   C     0.31876   0.06870   0.75116   0.00000  Uiso   1.00
C679   C     0.22371   0.14543   0.54333   0.00000  Uiso   1.00
C680   C     0.06032   0.18292   0.99066   0.00000  Uiso   1.00
C681   C     0.25304   0.10836   0.51703   0.00000  Uiso   1.00
C682   C     0.15090   0.14504   0.97790   0.00000  Uiso   1.00
C683   C     0.16821   0.15599   0.52651   0.00000  Uiso   1.00
C684   C     0.25154   0.25846   0.58579   0.00000  Uiso   1.00
C685   C     0.16101   0.23375   0.89957   0.00000  Uiso   1.00
C686   C     0.13302   0.10415   0.60658   0.00000  Uiso   1.00
C687   C     0.12302   0.04598   0.90867   0.00000  Uiso   1.00
C688   C     0.15038   0.06612   0.72235   0.00000  Uiso   1.00
C689   C     0.12696   0.17032   0.55781   0.00000  Uiso   1.00
C690   C     0.19035   0.26502   0.78972   0.00000  Uiso   1.00
C691   C     0.18183   0.10959   0.95026   0.00000  Uiso   1.00
C692   C     0.07433   0.18563   0.53959   0.00000  Uiso   1.00
C693   C     0.23198   0.09087   0.97058   0.00000  Uiso   1.00
C694   C     0.02293   0.31926   0.75187   0.00000  Uiso   1.00
C695   C     0.31091   0.01426   0.75052   0.00000  Uiso   1.00
C696   C     0.02249   0.17277   0.84049   0.00000  Uiso   1.00
H697   H     0.04367   0.19734   0.56377   0.00000  Uiso   1.00
H698   H     0.28307   0.19487   0.90823   0.00000  Uiso   1.00
H699   H     0.30765   0.20650   0.99466   0.00000  Uiso   1.00
H700   H     0.32246   0.05681   0.52034   0.00000  Uiso   1.00
H701   H     0.11431   0.08054   0.57341   0.00000  Uiso   1.00
H702   H     0.10724   0.09297   0.63484   0.00000  Uiso   1.00
H703   H     0.17695   0.09269   0.61557   0.00000  Uiso   1.00
H704   H     0.08445   0.05861   0.92491   0.00000  Uiso   1.00
H705   H     0.14343   0.01587   0.92947   0.00000  Uiso   1.00
H706   H     0.10919   0.02756   0.87236   0.00000  Uiso   1.00
H707   H     0.06618   0.00257   0.75537   0.00000  Uiso   1.00
H708   H     0.25403   0.06235   0.95002   0.00000  Uiso   1.00
H709   H     0.26773   0.33093   0.74765   0.00000  Uiso   1.00
H710   H     0.10935   0.05234   0.70234   0.00000  Uiso   1.00
H711   H     0.14856   0.06583   0.76154   0.00000  Uiso   1.00
H712   H     0.18142   0.03751   0.71194   0.00000  Uiso   1.00
H713   H     0.19208   0.27291   0.75179   0.00000  Uiso   1.00
H714   H     0.23252   0.26987   0.81054   0.00000  Uiso   1.00
H715   H     0.16360   0.29471   0.80554   0.00000  Uiso   1.00
H716   H     0.23533   0.25676   0.54749   0.00000  Uiso   1.00
H717   H     0.23679   0.29460   0.60370   0.00000  Uiso   1.00
H718   H     0.29880   0.26156   0.58991   0.00000  Uiso   1.00
H719   H     0.17167   0.24132   0.93873   0.00000  Uiso   1.00
H720   H     0.13229   0.26332   0.88627   0.00000  Uiso   1.00
H721   H     0.20151   0.23858   0.88353   0.00000  Uiso   1.00
H722   H     0.01878   0.08351   0.60434   0.00000  Uiso   1.00
N723   N     0.14695   0.15216   0.73740   0.00000  Uiso   1.00
N724   N     0.18638   0.18117   0.76261   0.00000  Uiso   1.00
O725   O     0.29719   0.24631   0.75310   0.00000  Uiso   1.00
O726   O     0.13667   0.18276   0.88586   0.00000  Uiso   1.00
O727   O     0.13251   0.15915   0.60487   0.00000  Uiso   1.00
O728   O     0.16127   0.08899   0.90491   0.00000  Uiso   1.00
O729   O     0.16819   0.11528   0.70884   0.00000  Uiso   1.00
O730   O     0.16517   0.21532   0.79386   0.00000  Uiso   1.00
O731   O     0.03614   0.08702   0.74691   0.00000  Uiso   1.00
O732   O     0.05822   0.23702   0.74502   0.00000  Uiso   1.00
O733   O     0.27512   0.09632   0.75499   0.00000  Uiso   1.00
O734   O     0.30328   0.17397   0.82247   0.00000  Uiso   1.00
O735   O     0.03005   0.15937   0.67753   0.00000  Uiso   1.00
O736   O     0.06431   0.16467   0.81439   0.00000  Uiso   1.00
O737   O     0.26902   0.16866   0.68561   0.00000  Uiso   1.00
O738   O     0.23017   0.21507   0.60747   0.00000  Uiso   1.00
Zn739  Zn    0.27033   0.17287   0.75540   0.00000  Uiso   1.00
Zn740  Zn    0.06300   0.16046   0.74461   0.00000  Uiso   1.00
C741   C     0.34809   0.26470   0.74963   0.00000  Uiso   1.00
C742   C     0.64422   0.16085   0.65968   0.00000  Uiso   1.00
C743   C     0.36858   0.17902   0.89216   0.00000  Uiso   1.00
C744   C     0.62948   0.14705   0.60907   0.00000  Uiso   1.00
C745   C     0.33970   0.19504   0.97165   0.00000  Uiso   1.00
C746   C     0.63477   0.08781   0.53869   0.00000  Uiso   1.00
C747   C     0.65939   0.18946   0.92245   0.00000  Uiso   1.00
C748   C     0.65357   0.10462   0.58578   0.00000  Uiso   1.00
C749   C     0.42427   0.17452   0.91196   0.00000  Uiso   1.00
C750   C     0.58380   0.17021   0.58620   0.00000  Uiso   1.00
C751   C     0.43372   0.16594   0.95985   0.00000  Uiso   1.00
C752   C     0.65210   0.06870   0.75116   0.00000  Uiso   1.00
C753   C     0.55705   0.14543   0.54333   0.00000  Uiso   1.00
C754   C     0.39365   0.18292   0.99066   0.00000  Uiso   1.00
C755   C     0.58637   0.10836   0.51703   0.00000  Uiso   1.00
C756   C     0.48424   0.14504   0.97790   0.00000  Uiso   1.00
C757   C     0.50155   0.15599   0.52651   0.00000  Uiso   1.00
C758   C     0.58488   0.25846   0.58579   0.00000  Uiso   1.00
C759   C     0.49434   0.23375   0.89957   0.00000  Uiso   1.00
C760   C     0.46635   0.10415   0.60658   0.00000  Uiso   1.00
C761   C     0.45635   0.04598   0.90867   0.00000  Uiso   1.00
C762   C     0.48372   0.06612   0.72235   0.00000  Uiso   1.00
C763   C     0.46029   0.17032   0.55781   0.00000  Uiso   1.00
C764   C     0.52368   0.26502   0.78972   0.00000  Uiso   1.00
C765   C     0.51517   0.10959   0.95026   0.00000  Uiso   1.00
C766   C     0.40766   0.18563   0.53959   0.00000  Uiso   1.00
C767   C     0.56531   0.09087   0.97058   0.00000  Uiso   1.00
C768   C     0.35626   0.31926   0.75187   0.00000  Uiso   1.00
C769   C     0.64424   0.01426   0.75052   0.00000  Uiso   1.00
C770   C     0.35582   0.17277   0.84049   0.00000  Uiso   1.00
H771   H     0.37701   0.19734   0.56377   0.00000  Uiso   1.00
H772   H     0.61640   0.19487   0.90823   0.00000  Uiso   1.00
H773   H     0.64098   0.20650   0.99466   0.00000  Uiso   1.00
H774   H     0.65580   0.05681   0.52034   0.00000  Uiso   1.00
H775   H     0.44764   0.08054   0.57341   0.00000  Uiso   1.00
H776   H     0.44057   0.09297   0.63484   0.00000  Uiso   1.00
H777   H     0.51029   0.09269   0.61557   0.00000  Uiso   1.00
H778   H     0.41778   0.05861   0.92491   0.00000  Uiso   1.00
H779   H     0.47676   0.01587   0.92947   0.00000  Uiso   1.00
H780   H     0.44252   0.02756   0.87236   0.00000  Uiso   1.00
H781   H     0.39952   0.00257   0.75537   0.00000  Uiso   1.00
H782   H     0.58736   0.06235   0.95002   0.00000  Uiso   1.00
H783   H     0.60106   0.33093   0.74765   0.00000  Uiso   1.00
H784   H     0.44268   0.05234   0.70234   0.00000  Uiso   1.00
H785   H     0.48190   0.06583   0.76154   0.00000  Uiso   1.00
H786   H     0.51475   0.03751   0.71194   0.00000  Uiso   1.00
H787   H     0.52541   0.27291   0.75179   0.00000  Uiso   1.00
H788   H     0.56586   0.26987   0.81054   0.00000  Uiso   1.00
H789   H     0.49694   0.29471   0.80554   0.00000  Uiso   1.00
H790   H     0.56867   0.25676   0.54749   0.00000  Uiso   1.00
H791   H     0.57012   0.29460   0.60370   0.00000  Uiso   1.00
H792   H     0.63214   0.26156   0.58991   0.00000  Uiso   1.00
H793   H     0.50500   0.24132   0.93873   0.00000  Uiso   1.00
H794   H     0.46562   0.26332   0.88627   0.00000  Uiso   1.00
H795   H     0.53484   0.23858   0.88353   0.00000  Uiso   1.00
H796   H     0.35211   0.08351   0.60434   0.00000  Uiso   1.00
N797   N     0.48029   0.15216   0.73740   0.00000  Uiso   1.00
N798   N     0.51971   0.18117   0.76261   0.00000  Uiso   1.00
O799   O     0.63052   0.24631   0.75310   0.00000  Uiso   1.00
O800   O     0.47000   0.18276   0.88586   0.00000  Uiso   1.00
O801   O     0.46585   0.15915   0.60487   0.00000  Uiso   1.00
O802   O     0.49460   0.08899   0.90491   0.00000  Uiso   1.00
O803   O     0.50153   0.11528   0.70884   0.00000  Uiso   1.00
O804   O     0.49850   0.21532   0.79386   0.00000  Uiso   1.00
O805   O     0.36948   0.08702   0.74691   0.00000  Uiso   1.00
O806   O     0.39155   0.23702   0.74502   0.00000  Uiso   1.00
O807   O     0.60845   0.09632   0.75499   0.00000  Uiso   1.00
O808   O     0.63662   0.17397   0.82247   0.00000  Uiso   1.00
O809   O     0.36338   0.15937   0.67753   0.00000  Uiso   1.00
O810   O     0.39764   0.16467   0.81439   0.00000  Uiso   1.00
O811   O     0.60236   0.16866   0.68561   0.00000  Uiso   1.00
O812   O     0.56350   0.21507   0.60747   0.00000  Uiso   1.00
Zn813  Zn    0.60366   0.17287   0.75540   0.00000  Uiso   1.00
Zn814  Zn    0.39634   0.16046   0.74461   0.00000  Uiso   1.00
C815   C     0.68142   0.26470   0.74963   0.00000  Uiso   1.00
C816   C     0.97756   0.16085   0.65968   0.00000  Uiso   1.00
C817   C     0.70192   0.17902   0.89216   0.00000  Uiso   1.00
C818   C     0.96282   0.14705   0.60907   0.00000  Uiso   1.00
C819   C     0.67303   0.19504   0.97165   0.00000  Uiso   1.00
C820   C     0.96810   0.08781   0.53869   0.00000  Uiso   1.00
C821   C     0.99273   0.18946   0.92245   0.00000  Uiso   1.00
C822   C     0.98690   0.10462   0.58578   0.00000  Uiso   1.00
C823   C     0.75760   0.17452   0.91196   0.00000  Uiso   1.00
C824   C     0.91714   0.17021   0.58620   0.00000  Uiso   1.00
C825   C     0.76706   0.16594   0.95985   0.00000  Uiso   1.00
C826   C     0.98543   0.06870   0.75116   0.00000  Uiso   1.00
C827   C     0.89038   0.14543   0.54333   0.00000  Uiso   1.00
C828   C     0.72698   0.18292   0.99066   0.00000  Uiso   1.00
C829   C     0.91971   0.10836   0.51703   0.00000  Uiso   1.00
C830   C     0.81757   0.14504   0.97790   0.00000  Uiso   1.00
C831   C     0.83488   0.15599   0.52651   0.00000  Uiso   1.00
C832   C     0.91821   0.25846   0.58579   0.00000  Uiso   1.00
C833   C     0.82767   0.23375   0.89957   0.00000  Uiso   1.00
C834   C     0.79968   0.10415   0.60658   0.00000  Uiso   1.00
C835   C     0.78968   0.04598   0.90867   0.00000  Uiso   1.00
C836   C     0.81705   0.06612   0.72235   0.00000  Uiso   1.00
C837   C     0.79362   0.17032   0.55781   0.00000  Uiso   1.00
C838   C     0.85701   0.26502   0.78972   0.00000  Uiso   1.00
C839   C     0.84850   0.10959   0.95026   0.00000  Uiso   1.00
C840   C     0.74099   0.18563   0.53959   0.00000  Uiso   1.00
C841   C     0.89865   0.09087   0.97058   0.00000  Uiso   1.00
C842   C     0.68960   0.31926   0.75187   0.00000  Uiso   1.00
C843   C     0.97757   0.01426   0.75052   0.00000  Uiso   1.00
C844   C     0.68915   0.17277   0.84049   0.00000  Uiso   1.00
H845   H     0.71034   0.19734   0.56377   0.00000  Uiso   1.00
H846   H     0.94973   0.19487   0.90823   0.00000  Uiso   1.00
H847   H     0.97432   0.20650   0.99466   0.00000  Uiso   1.00
H848   H     0.98913   0.05681   0.52034   0.00000  Uiso   1.00
H849   H     0.78098   0.08054   0.57341   0.00000  Uiso   1.00
H850   H     0.77391   0.09297   0.63484   0.00000  Uiso   1.00
H851   H     0.84362   0.09269   0.61557   0.00000  Uiso   1.00
H852   H     0.75111   0.05861   0.92491   0.00000  Uiso   1.00
H853   H     0.81009   0.01587   0.92947   0.00000  Uiso   1.00
H854   H     0.77586   0.02756   0.87236   0.00000  Uiso   1.00
H855   H     0.73285   0.00257   0.75537   0.00000  Uiso   1.00
H856   H     0.92070   0.06235   0.95002   0.00000  Uiso   1.00
H857   H     0.93439   0.33093   0.74765   0.00000  Uiso   1.00
H858   H     0.77601   0.05234   0.70234   0.00000  Uiso   1.00
H859   H     0.81523   0.06583   0.76154   0.00000  Uiso   1.00
H860   H     0.84809   0.03751   0.71194   0.00000  Uiso   1.00
H861   H     0.85875   0.27291   0.75179   0.00000  Uiso   1.00
H862   H     0.89919   0.26987   0.81054   0.00000  Uiso   1.00
H863   H     0.83027   0.29471   0.80554   0.00000  Uiso   1.00
H864   H     0.90200   0.25676   0.54749   0.00000  Uiso   1.00
H865   H     0.90345   0.29460   0.60370   0.00000  Uiso   1.00
H866   H     0.96547   0.26156   0.58991   0.00000  Uiso   1.00
H867   H     0.83834   0.24132   0.93873   0.00000  Uiso   1.00
H868   H     0.79896   0.26332   0.88627   0.00000  Uiso   1.00
H869   H     0.86817   0.23858   0.88353   0.00000  Uiso   1.00
H870   H     0.68544   0.08351   0.60434   0.00000  Uiso   1.00
N871   N     0.81362   0.15216   0.73740   0.00000  Uiso   1.00
N872   N     0.85305   0.18117   0.76261   0.00000  Uiso   1.00
O873   O     0.96386   0.24631   0.75310   0.00000  Uiso   1.00
O874   O     0.80333   0.18276   0.88586   0.00000  Uiso   1.00
O875   O     0.79918   0.15915   0.60487   0.00000  Uiso   1.00
O876   O     0.82794   0.08899   0.90491   0.00000  Uiso   1.00
O877   O     0.83486   0.11528   0.70884   0.00000  Uiso   1.00
O878   O     0.83183   0.21532   0.79386   0.00000  Uiso   1.00
O879   O     0.70281   0.08702   0.74691   0.00000  Uiso   1.00
O880   O     0.72488   0.23702   0.74502   0.00000  Uiso   1.00
O881   O     0.94178   0.09632   0.75499   0.00000  Uiso   1.00
O882   O     0.96995   0.17397   0.82247   0.00000  Uiso   1.00
O883   O     0.69672   0.15937   0.67753   0.00000  Uiso   1.00
O884   O     0.73098   0.16467   0.81439   0.00000  Uiso   1.00
O885   O     0.93569   0.16866   0.68561   0.00000  Uiso   1.00
O886   O     0.89684   0.21507   0.60747   0.00000  Uiso   1.00
Zn887  Zn    0.93700   0.17287   0.75540   0.00000  Uiso   1.00
Zn888  Zn    0.72967   0.16046   0.74461   0.00000  Uiso   1.00
C889   C     0.01476   0.59803   0.74963   0.00000  Uiso   1.00
C890   C     0.31089   0.49419   0.65968   0.00000  Uiso   1.00
C891   C     0.03525   0.51236   0.89216   0.00000  Uiso   1.00
C892   C     0.29615   0.48039   0.60907   0.00000  Uiso   1.00
C893   C     0.00636   0.52837   0.97165   0.00000  Uiso   1.00
C894   C     0.30143   0.42115   0.53869   0.00000  Uiso   1.00
C895   C     0.32606   0.52279   0.92245   0.00000  Uiso   1.00
C896   C     0.32024   0.43796   0.58578   0.00000  Uiso   1.00
C897   C     0.09094   0.50785   0.91196   0.00000  Uiso   1.00
C898   C     0.25047   0.50354   0.58620   0.00000  Uiso   1.00
C899   C     0.10039   0.49927   0.95985   0.00000  Uiso   1.00
C900   C     0.31876   0.40203   0.75116   0.00000  Uiso   1.00
C901   C     0.22371   0.47877   0.54333   0.00000  Uiso   1.00
C902   C     0.06032   0.51626   0.99066   0.00000  Uiso   1.00
C903   C     0.25304   0.44170   0.51703   0.00000  Uiso   1.00
C904   C     0.15090   0.47838   0.97790   0.00000  Uiso   1.00
C905   C     0.16821   0.48933   0.52651   0.00000  Uiso   1.00
C906   C     0.25154   0.59179   0.58579   0.00000  Uiso   1.00
C907   C     0.16101   0.56709   0.89957   0.00000  Uiso   1.00
C908   C     0.13302   0.43748   0.60658   0.00000  Uiso   1.00
C909   C     0.12302   0.37931   0.90867   0.00000  Uiso   1.00
C910   C     0.15038   0.39945   0.72235   0.00000  Uiso   1.00
C911   C     0.12696   0.50366   0.55781   0.00000  Uiso   1.00
C912   C     0.19035   0.59836   0.78972   0.00000  Uiso   1.00
C913   C     0.18183   0.44292   0.95026   0.00000  Uiso   1.00
C914   C     0.07433   0.51896   0.53959   0.00000  Uiso   1.00
C915   C     0.23198   0.42420   0.97058   0.00000  Uiso   1.00
C916   C     0.02293   0.65259   0.75187   0.00000  Uiso   1.00
C917   C     0.31091   0.34759   0.75052   0.00000  Uiso   1.00
C918   C     0.02249   0.50610   0.84049   0.00000  Uiso   1.00
H919   H     0.04367   0.53068   0.56377   0.00000  Uiso   1.00
H920   H     0.28307   0.52820   0.90823   0.00000  Uiso   1.00
H921   H     0.30765   0.53983   0.99466   0.00000  Uiso   1.00
H922   H     0.32246   0.39014   0.52034   0.00000  Uiso   1.00
H923   H     0.11431   0.41387   0.57341   0.00000  Uiso   1.00
H924   H     0.10724   0.42630   0.63484   0.00000  Uiso   1.00
H925   H     0.17695   0.42602   0.61557   0.00000  Uiso   1.00
H926   H     0.08445   0.39194   0.92491   0.00000  Uiso   1.00
H927   H     0.14343   0.34920   0.92947   0.00000  Uiso   1.00
H928   H     0.10919   0.36090   0.87236   0.00000  Uiso   1.00
H929   H     0.06618   0.33590   0.75537   0.00000  Uiso   1.00
H930   H     0.25403   0.39568   0.95002   0.00000  Uiso   1.00
H931   H     0.26773   0.66426   0.74765   0.00000  Uiso   1.00
H932   H     0.10935   0.38567   0.70234   0.00000  Uiso   1.00
H933   H     0.14856   0.39917   0.76154   0.00000  Uiso   1.00
H934   H     0.18142   0.37085   0.71194   0.00000  Uiso   1.00
H935   H     0.19208   0.60624   0.75179   0.00000  Uiso   1.00
H936   H     0.23252   0.60320   0.81054   0.00000  Uiso   1.00
H937   H     0.16360   0.62804   0.80554   0.00000  Uiso   1.00
H938   H     0.23533   0.59010   0.54749   0.00000  Uiso   1.00
H939   H     0.23679   0.62793   0.60370   0.00000  Uiso   1.00
H940   H     0.29880   0.59489   0.58991   0.00000  Uiso   1.00
H941   H     0.17167   0.57465   0.93873   0.00000  Uiso   1.00
H942   H     0.13229   0.59666   0.88627   0.00000  Uiso   1.00
H943   H     0.20151   0.57192   0.88353   0.00000  Uiso   1.00
H944   H     0.01878   0.41684   0.60434   0.00000  Uiso   1.00
N945   N     0.14695   0.48550   0.73740   0.00000  Uiso   1.00
N946   N     0.18638   0.51450   0.76261   0.00000  Uiso   1.00
O947   O     0.29719   0.57964   0.75310   0.00000  Uiso   1.00
O948   O     0.13667   0.51610   0.88586   0.00000  Uiso   1.00
O949   O     0.13251   0.49249   0.60487   0.00000  Uiso   1.00
O950   O     0.16127   0.42232   0.90491   0.00000  Uiso   1.00
O951   O     0.16819   0.44861   0.70884   0.00000  Uiso   1.00
O952   O     0.16517   0.54865   0.79386   0.00000  Uiso   1.00
O953   O     0.03614   0.42036   0.74691   0.00000  Uiso   1.00
O954   O     0.05822   0.57035   0.74502   0.00000  Uiso   1.00
O955   O     0.27512   0.42965   0.75499   0.00000  Uiso   1.00
O956   O     0.30328   0.50730   0.82247   0.00000  Uiso   1.00
O957   O     0.03005   0.49270   0.67753   0.00000  Uiso   1.00
O958   O     0.06431   0.49801   0.81439   0.00000  Uiso   1.00
O959   O     0.26902   0.50199   0.68561   0.00000  Uiso   1.00
O960   O     0.23017   0.54841   0.60747   0.00000  Uiso   1.00
Zn961  Zn    0.27033   0.50621   0.75540   0.00000  Uiso   1.00
Zn962  Zn    0.06300   0.49379   0.74461   0.00000  Uiso   1.00
C963   C     0.34809   0.59803   0.74963   0.00000  Uiso   1.00
C964   C     0.64422   0.49419   0.65968   0.00000  Uiso   1.00
C965   C     0.36858   0.51236   0.89216   0.00000  Uiso   1.00
C966   C     0.62948   0.48039   0.60907   0.00000  Uiso   1.00
C967   C     0.33970   0.52837   0.97165   0.00000  Uiso   1.00
C968   C     0.63477   0.42115   0.53869   0.00000  Uiso   1.00
C969   C     0.65939   0.52279   0.92245   0.00000  Uiso   1.00
C970   C     0.65357   0.43796   0.58578   0.00000  Uiso   1.00
C971   C     0.42427   0.50785   0.91196   0.00000  Uiso   1.00
C972   C     0.58380   0.50354   0.58620   0.00000  Uiso   1.00
C973   C     0.43372   0.49927   0.95985   0.00000  Uiso   1.00
C974   C     0.65210   0.40203   0.75116   0.00000  Uiso   1.00
C975   C     0.55705   0.47877   0.54333   0.00000  Uiso   1.00
C976   C     0.39365   0.51626   0.99066   0.00000  Uiso   1.00
C977   C     0.58637   0.44170   0.51703   0.00000  Uiso   1.00
C978   C     0.48424   0.47838   0.97790   0.00000  Uiso   1.00
C979   C     0.50155   0.48933   0.52651   0.00000  Uiso   1.00
C980   C     0.58488   0.59179   0.58579   0.00000  Uiso   1.00
C981   C     0.49434   0.56709   0.89957   0.00000  Uiso   1.00
C982   C     0.46635   0.43748   0.60658   0.00000  Uiso   1.00
C983   C     0.45635   0.37931   0.90867   0.00000  Uiso   1.00
C984   C     0.48372   0.39945   0.72235   0.00000  Uiso   1.00
C985   C     0.46029   0.50366   0.55781   0.00000  Uiso   1.00
C986   C     0.52368   0.59836   0.78972   0.00000  Uiso   1.00
C987   C     0.51517   0.44292   0.95026   0.00000  Uiso   1.00
C988   C     0.40766   0.51896   0.53959   0.00000  Uiso   1.00
C989   C     0.56531   0.42420   0.97058   0.00000  Uiso   1.00
C990   C     0.35626   0.65259   0.75187   0.00000  Uiso   1.00
C991   C     0.64424   0.34759   0.75052   0.00000  Uiso   1.00
C992   C     0.35582   0.50610   0.84049   0.00000  Uiso   1.00
H993   H     0.37701   0.53068   0.56377   0.00000  Uiso   1.00
H994   H     0.61640   0.52820   0.90823   0.00000  Uiso   1.00
H995   H     0.64098   0.53983   0.99466   0.00000  Uiso   1.00
H996   H     0.65580   0.39014   0.52034   0.00000  Uiso   1.00
H997   H     0.44764   0.41387   0.57341   0.00000  Uiso   1.00
H998   H     0.44057   0.42630   0.63484   0.00000  Uiso   1.00
H999   H     0.51029   0.42602   0.61557   0.00000  Uiso   1.00
H1000  H     0.41778   0.39194   0.92491   0.00000  Uiso   1.00
H1001  H     0.47676   0.34920   0.92947   0.00000  Uiso   1.00
H1002  H     0.44252   0.36090   0.87236   0.00000  Uiso   1.00
H1003  H     0.39952   0.33590   0.75537   0.00000  Uiso   1.00
H1004  H     0.58736   0.39568   0.95002   0.00000  Uiso   1.00
H1005  H     0.60106   0.66426   0.74765   0.00000  Uiso   1.00
H1006  H     0.44268   0.38567   0.70234   0.00000  Uiso   1.00
H1007  H     0.48190   0.39917   0.76154   0.00000  Uiso   1.00
H1008  H     0.51475   0.37085   0.71194   0.00000  Uiso   1.00
H1009  H     0.52541   0.60624   0.75179   0.00000  Uiso   1.00
H1010  H     0.56586   0.60320   0.81054   0.00000  Uiso   1.00
H1011  H     0.49694   0.62804   0.80554   0.00000  Uiso   1.00
H1012  H     0.56867   0.59010   0.54749   0.00000  Uiso   1.00
H1013  H     0.57012   0.62793   0.60370   0.00000  Uiso   1.00
H1014  H     0.63214   0.59489   0.58991   0.00000  Uiso   1.00
H1015  H     0.50500   0.57465   0.93873   0.00000  Uiso   1.00
H1016  H     0.46562   0.59666   0.88627   0.00000  Uiso   1.00
H1017  H     0.53484   0.57192   0.88353   0.00000  Uiso   1.00
H1018  H     0.35211   0.41684   0.60434   0.00000  Uiso   1.00
N1019  N     0.48029   0.48550   0.73740   0.00000  Uiso   1.00
N1020  N     0.51971   0.51450   0.76261   0.00000  Uiso   1.00
O1021  O     0.63052   0.57964   0.75310   0.00000  Uiso   1.00
O1022  O     0.47000   0.51610   0.88586   0.00000  Uiso   1.00
O1023  O     0.46585   0.49249   0.60487   0.00000  Uiso   1.00
O1024  O     0.49460   0.42232   0.90491   0.00000  Uiso   1.00
O1025  O     0.50153   0.44861   0.70884   0.00000  Uiso   1.00
O1026  O     0.49850   0.54865   0.79386   0.00000  Uiso   1.00
O1027  O     0.36948   0.42036   0.74691   0.00000  Uiso   1.00
O1028  O     0.39155   0.57035   0.74502   0.00000  Uiso   1.00
O1029  O     0.60845   0.42965   0.75499   0.00000  Uiso   1.00
O1030  O     0.63662   0.50730   0.82247   0.00000  Uiso   1.00
O1031  O     0.36338   0.49270   0.67753   0.00000  Uiso   1.00
O1032  O     0.39764   0.49801   0.81439   0.00000  Uiso   1.00
O1033  O     0.60236   0.50199   0.68561   0.00000  Uiso   1.00
O1034  O     0.56350   0.54841   0.60747   0.00000  Uiso   1.00
Zn1035 Zn    0.60366   0.50621   0.75540   0.00000  Uiso   1.00
Zn1036 Zn    0.39634   0.49379   0.74461   0.00000  Uiso   1.00
C1037  C     0.68142   0.59803   0.74963   0.00000  Uiso   1.00
C1038  C     0.97756   0.49419   0.65968   0.00000  Uiso   1.00
C1039  C     0.70192   0.51236   0.89216   0.00000  Uiso   1.00
C1040  C     0.96282   0.48039   0.60907   0.00000  Uiso   1.00
C1041  C     0.67303   0.52837   0.97165   0.00000  Uiso   1.00
C1042  C     0.96810   0.42115   0.53869   0.00000  Uiso   1.00
C1043  C     0.99273   0.52279   0.92245   0.00000  Uiso   1.00
C1044  C     0.98690   0.43796   0.58578   0.00000  Uiso   1.00
C1045  C     0.75760   0.50785   0.91196   0.00000  Uiso   1.00
C1046  C     0.91714   0.50354   0.58620   0.00000  Uiso   1.00
C1047  C     0.76706   0.49927   0.95985   0.00000  Uiso   1.00
C1048  C     0.98543   0.40203   0.75116   0.00000  Uiso   1.00
C1049  C     0.89038   0.47877   0.54333   0.00000  Uiso   1.00
C1050  C     0.72698   0.51626   0.99066   0.00000  Uiso   1.00
C1051  C     0.91971   0.44170   0.51703   0.00000  Uiso   1.00
C1052  C     0.81757   0.47838   0.97790   0.00000  Uiso   1.00
C1053  C     0.83488   0.48933   0.52651   0.00000  Uiso   1.00
C1054  C     0.91821   0.59179   0.58579   0.00000  Uiso   1.00
C1055  C     0.82767   0.56709   0.89957   0.00000  Uiso   1.00
C1056  C     0.79968   0.43748   0.60658   0.00000  Uiso   1.00
C1057  C     0.78968   0.37931   0.90867   0.00000  Uiso   1.00
C1058  C     0.81705   0.39945   0.72235   0.00000  Uiso   1.00
C1059  C     0.79362   0.50366   0.55781   0.00000  Uiso   1.00
C1060  C     0.85701   0.59836   0.78972   0.00000  Uiso   1.00
C1061  C     0.84850   0.44292   0.95026   0.00000  Uiso   1.00
C1062  C     0.74099   0.51896   0.53959   0.00000  Uiso   1.00
C1063  C     0.89865   0.42420   0.97058   0.00000  Uiso   1.00
C1064  C     0.68960   0.65259   0.75187   0.00000  Uiso   1.00
C1065  C     0.97757   0.34759   0.75052   0.00000  Uiso   1.00
C1066  C     0.68915   0.50610   0.84049   0.00000  Uiso   1.00
H1067  H     0.71034   0.53068   0.56377   0.00000  Uiso   1.00
H1068  H     0.94973   0.52820   0.90823   0.00000  Uiso   1.00
H1069  H     0.97432   0.53983   0.99466   0.00000  Uiso   1.00
H1070  H     0.98913   0.39014   0.52034   0.00000  Uiso   1.00
H1071  H     0.78098   0.41387   0.57341   0.00000  Uiso   1.00
H1072  H     0.77391   0.42630   0.63484   0.00000  Uiso   1.00
H1073  H     0.84362   0.42602   0.61557   0.00000  Uiso   1.00
H1074  H     0.75111   0.39194   0.92491   0.00000  Uiso   1.00
H1075  H     0.81009   0.34920   0.92947   0.00000  Uiso   1.00
H1076  H     0.77586   0.36090   0.87236   0.00000  Uiso   1.00
H1077  H     0.73285   0.33590   0.75537   0.00000  Uiso   1.00
H1078  H     0.92070   0.39568   0.95002   0.00000  Uiso   1.00
H1079  H     0.93439   0.66426   0.74765   0.00000  Uiso   1.00
H1080  H     0.77601   0.38567   0.70234   0.00000  Uiso   1.00
H1081  H     0.81523   0.39917   0.76154   0.00000  Uiso   1.00
H1082  H     0.84809   0.37085   0.71194   0.00000  Uiso   1.00
H1083  H     0.85875   0.60624   0.75179   0.00000  Uiso   1.00
H1084  H     0.89919   0.60320   0.81054   0.00000  Uiso   1.00
H1085  H     0.83027   0.62804   0.80554   0.00000  Uiso   1.00
H1086  H     0.90200   0.59010   0.54749   0.00000  Uiso   1.00
H1087  H     0.90345   0.62793   0.60370   0.00000  Uiso   1.00
H1088  H     0.96547   0.59489   0.58991   0.00000  Uiso   1.00
H1089  H     0.83834   0.57465   0.93873   0.00000  Uiso   1.00
H1090  H     0.79896   0.59666   0.88627   0.00000  Uiso   1.00
H1091  H     0.86817   0.57192   0.88353   0.00000  Uiso   1.00
H1092  H     0.68544   0.41684   0.60434   0.00000  Uiso   1.00
N1093  N     0.81362   0.48550   0.73740   0.00000  Uiso   1.00
N1094  N     0.85305   0.51450   0.76261   0.00000  Uiso   1.00
O1095  O     0.96386   0.57964   0.75310   0.00000  Uiso   1.00
O1096  O     0.80333   0.51610   0.88586   0.00000  Uiso   1.00
O1097  O     0.79918   0.49249   0.60487   0.00000  Uiso   1.00
O1098  O     0.82794   0.42232   0.90491   0.00000  Uiso   1.00
O1099  O     0.83486   0.44861   0.70884   0.00000  Uiso   1.00
O1100  O     0.83183   0.54865   0.79386   0.00000  Uiso   1.00
O1101  O     0.70281   0.42036   0.74691   0.00000  Uiso   1.00
O1102  O     0.72488   0.57035   0.74502   0.00000  Uiso   1.00
O1103  O     0.94178   0.42965   0.75499   0.00000  Uiso   1.00
O1104  O     0.96995   0.50730   0.82247   0.00000  Uiso   1.00
O1105  O     0.69672   0.49270   0.67753   0.00000  Uiso   1.00
O1106  O     0.73098   0.49801   0.81439   0.00000  Uiso   1.00
O1107  O     0.93569   0.50199   0.68561   0.00000  Uiso   1.00
O1108  O     0.89684   0.54841   0.60747   0.00000  Uiso   1.00
Zn1109 Zn    0.93700   0.50621   0.75540   0.00000  Uiso   1.00
Zn1110 Zn    0.72967   0.49379   0.74461   0.00000  Uiso   1.00
C1111  C     0.01476   0.93137   0.74963   0.00000  Uiso   1.00
C1112  C     0.31089   0.82752   0.65968   0.00000  Uiso   1.00
C1113  C     0.03525   0.84569   0.89216   0.00000  Uiso   1.00
C1114  C     0.29615   0.81372   0.60907   0.00000  Uiso   1.00
C1115  C     0.00636   0.86170   0.97165   0.00000  Uiso   1.00
C1116  C     0.30143   0.75448   0.53869   0.00000  Uiso   1.00
C1117  C     0.32606   0.85613   0.92245   0.00000  Uiso   1.00
C1118  C     0.32024   0.77129   0.58578   0.00000  Uiso   1.00
C1119  C     0.09094   0.84119   0.91196   0.00000  Uiso   1.00
C1120  C     0.25047   0.83688   0.58620   0.00000  Uiso   1.00
C1121  C     0.10039   0.83261   0.95985   0.00000  Uiso   1.00
C1122  C     0.31876   0.73537   0.75116   0.00000  Uiso   1.00
C1123  C     0.22371   0.81210   0.54333   0.00000  Uiso   1.00
C1124  C     0.06032   0.84959   0.99066   0.00000  Uiso   1.00
C1125  C     0.25304   0.77503   0.51703   0.00000  Uiso   1.00
C1126  C     0.15090   0.81171   0.97790   0.00000  Uiso   1.00
C1127  C     0.16821   0.82266   0.52651   0.00000  Uiso   1.00
C1128  C     0.25154   0.92513   0.58579   0.00000  Uiso   1.00
C1129  C     0.16101   0.90042   0.89957   0.00000  Uiso   1.00
C1130  C     0.13302   0.77082   0.60658   0.00000  Uiso   1.00
C1131  C     0.12302   0.71265   0.90867   0.00000  Uiso   1.00
C1132  C     0.15038   0.73278   0.72235   0.00000  Uiso   1.00
C1133  C     0.12696   0.83699   0.55781   0.00000  Uiso   1.00
C1134  C     0.19035   0.93169   0.78972   0.00000  Uiso   1.00
C1135  C     0.18183   0.77625   0.95026   0.00000  Uiso   1.00
C1136  C     0.07433   0.85230   0.53959   0.00000  Uiso   1.00
C1137  C     0.23198   0.75753   0.97058   0.00000  Uiso   1.00
C1138  C     0.02293   0.98593   0.75187   0.00000  Uiso   1.00
C1139  C     0.31091   0.68093   0.75052   0.00000  Uiso   1.00
C1140  C     0.02249   0.83944   0.84049   0.00000  Uiso   1.00
H1141  H     0.04367   0.86401   0.56377   0.00000  Uiso   1.00
H1142  H     0.28307   0.86154   0.90823   0.00000  Uiso   1.00
H1143  H     0.30765   0.87317   0.99466   0.00000  Uiso   1.00
H1144  H     0.32246   0.72348   0.52034   0.00000  Uiso   1.00
H1145  H     0.11431   0.74720   0.57341   0.00000  Uiso   1.00
H1146  H     0.10724   0.75963   0.63484   0.00000  Uiso   1.00
H1147  H     0.17695   0.75935   0.61557   0.00000  Uiso   1.00
H1148  H     0.08445   0.72527   0.92491   0.00000  Uiso   1.00
H1149  H     0.14343   0.68253   0.92947   0.00000  Uiso   1.00
H1150  H     0.10919   0.69423   0.87236   0.00000  Uiso   1.00
H1151  H     0.06618   0.66924   0.75537   0.00000  Uiso   1.00
H1152  H     0.25403   0.72901   0.95002   0.00000  Uiso   1.00
H1153  H     0.26773   0.99760   0.74765   0.00000  Uiso   1.00
H1154  H     0.10935   0.71901   0.70234   0.00000  Uiso   1.00
H1155  H     0.14856   0.73250   0.76154   0.00000  Uiso   1.00
H1156  H     0.18142   0.70418   0.71194   0.00000  Uiso   1.00
H1157  H     0.19208   0.93958   0.75179   0.00000  Uiso   1.00
H1158  H     0.23252   0.93653   0.81054   0.00000  Uiso   1.00
H1159  H     0.16360   0.96137   0.80554   0.00000  Uiso   1.00
H1160  H     0.23533   0.92343   0.54749   0.00000  Uiso   1.00
H1161  H     0.23679   0.96126   0.60370   0.00000  Uiso   1.00
H1162  H     0.29880   0.92822   0.58991   0.00000  Uiso   1.00
H1163  H     0.17167   0.90798   0.93873   0.00000  Uiso   1.00
H1164  H     0.13229   0.92999   0.88627   0.00000  Uiso   1.00
H1165  H     0.20151   0.90525   0.88353   0.00000  Uiso   1.00
H1166  H     0.01878   0.75017   0.60434   0.00000  Uiso   1.00
N1167  N     0.14695   0.81883   0.73740   0.00000  Uiso   1.00
N1168  N     0.18638   0.84784   0.76261   0.00000  Uiso   1.00
O1169  O     0.29719   0.91298   0.75310   0.00000  Uiso   1.00
O1170  O     0.13667   0.84943   0.88586   0.00000  Uiso   1.00
O1171  O     0.13251   0.82582   0.60487   0.00000  Uiso   1.00
O1172  O     0.16127   0.75566   0.90491   0.00000  Uiso   1.00
O1173  O     0.16819   0.78194   0.70884   0.00000  Uiso   1.00
O1174  O     0.16517   0.88199   0.79386   0.00000  Uiso   1.00
O1175  O     0.03614   0.75369   0.74691   0.00000  Uiso   1.00
O1176  O     0.05822   0.90368   0.74502   0.00000  Uiso   1.00
O1177  O     0.27512   0.76298   0.75499   0.00000  Uiso   1.00
O1178  O     0.30328   0.84063   0.82247   0.00000  Uiso   1.00
O1179  O     0.03005   0.82603   0.67753   0.00000  Uiso   1.00
O1180  O     0.06431   0.83134   0.81439   0.00000  Uiso   1.00
O1181  O     0.26902   0.83533   0.68561   0.00000  Uiso   1.00
O1182  O     0.23017   0.88174   0.60747   0.00000  Uiso   1.00
Zn1183 Zn    0.27033   0.83954   0.75540   0.00000  Uiso   1.00
Zn1184 Zn    0.06300   0.82713   0.74461   0.00000  Uiso   1.00
C1185  C     0.34809   0.93137   0.74963   0.00000  Uiso   1.00
C1186  C     0.64422   0.82752   0.65968   0.00000  Uiso   1.00
C1187  C     0.36858   0.84569   0.89216   0.00000  Uiso   1.00
C1188  C     0.62948   0.81372   0.60907   0.00000  Uiso   1.00
C1189  C     0.33970   0.86170   0.97165   0.00000  Uiso   1.00
C1190  C     0.63477   0.75448   0.53869   0.00000  Uiso   1.00
C1191  C     0.65939   0.85613   0.92245   0.00000  Uiso   1.00
C1192  C     0.65357   0.77129   0.58578   0.00000  Uiso   1.00
C1193  C     0.42427   0.84119   0.91196   0.00000  Uiso   1.00
C1194  C     0.58380   0.83688   0.58620   0.00000  Uiso   1.00
C1195  C     0.43372   0.83261   0.95985   0.00000  Uiso   1.00
C1196  C     0.65210   0.73537   0.75116   0.00000  Uiso   1.00
C1197  C     0.55705   0.81210   0.54333   0.00000  Uiso   1.00
C1198  C     0.39365   0.84959   0.99066   0.00000  Uiso   1.00
C1199  C     0.58637   0.77503   0.51703   0.00000  Uiso   1.00
C1200  C     0.48424   0.81171   0.97790   0.00000  Uiso   1.00
C1201  C     0.50155   0.82266   0.52651   0.00000  Uiso   1.00
C1202  C     0.58488   0.92513   0.58579   0.00000  Uiso   1.00
C1203  C     0.49434   0.90042   0.89957   0.00000  Uiso   1.00
C1204  C     0.46635   0.77082   0.60658   0.00000  Uiso   1.00
C1205  C     0.45635   0.71265   0.90867   0.00000  Uiso   1.00
C1206  C     0.48372   0.73278   0.72235   0.00000  Uiso   1.00
C1207  C     0.46029   0.83699   0.55781   0.00000  Uiso   1.00
C1208  C     0.52368   0.93169   0.78972   0.00000  Uiso   1.00
C1209  C     0.51517   0.77625   0.95026   0.00000  Uiso   1.00
C1210  C     0.40766   0.85230   0.53959   0.00000  Uiso   1.00
C1211  C     0.56531   0.75753   0.97058   0.00000  Uiso   1.00
C1212  C     0.35626   0.98593   0.75187   0.00000  Uiso   1.00
C1213  C     0.64424   0.68093   0.75052   0.00000  Uiso   1.00
C1214  C     0.35582   0.83944   0.84049   0.00000  Uiso   1.00
H1215  H     0.37701   0.86401   0.56377   0.00000  Uiso   1.00
H1216  H     0.61640   0.86154   0.90823   0.00000  Uiso   1.00
H1217  H     0.64098   0.87317   0.99466   0.00000  Uiso   1.00
H1218  H     0.65580   0.72348   0.52034   0.00000  Uiso   1.00
H1219  H     0.44764   0.74720   0.57341   0.00000  Uiso   1.00
H1220  H     0.44057   0.75963   0.63484   0.00000  Uiso   1.00
H1221  H     0.51029   0.75935   0.61557   0.00000  Uiso   1.00
H1222  H     0.41778   0.72527   0.92491   0.00000  Uiso   1.00
H1223  H     0.47676   0.68253   0.92947   0.00000  Uiso   1.00
H1224  H     0.44252   0.69423   0.87236   0.00000  Uiso   1.00
H1225  H     0.39952   0.66924   0.75537   0.00000  Uiso   1.00
H1226  H     0.58736   0.72901   0.95002   0.00000  Uiso   1.00
H1227  H     0.60106   0.99760   0.74765   0.00000  Uiso   1.00
H1228  H     0.44268   0.71901   0.70234   0.00000  Uiso   1.00
H1229  H     0.48190   0.73250   0.76154   0.00000  Uiso   1.00
H1230  H     0.51475   0.70418   0.71194   0.00000  Uiso   1.00
H1231  H     0.52541   0.93958   0.75179   0.00000  Uiso   1.00
H1232  H     0.56586   0.93653   0.81054   0.00000  Uiso   1.00
H1233  H     0.49694   0.96137   0.80554   0.00000  Uiso   1.00
H1234  H     0.56867   0.92343   0.54749   0.00000  Uiso   1.00
H1235  H     0.57012   0.96126   0.60370   0.00000  Uiso   1.00
H1236  H     0.63214   0.92822   0.58991   0.00000  Uiso   1.00
H1237  H     0.50500   0.90798   0.93873   0.00000  Uiso   1.00
H1238  H     0.46562   0.92999   0.88627   0.00000  Uiso   1.00
H1239  H     0.53484   0.90525   0.88353   0.00000  Uiso   1.00
H1240  H     0.35211   0.75017   0.60434   0.00000  Uiso   1.00
N1241  N     0.48029   0.81883   0.73740   0.00000  Uiso   1.00
N1242  N     0.51971   0.84784   0.76261   0.00000  Uiso   1.00
O1243  O     0.63052   0.91298   0.75310   0.00000  Uiso   1.00
O1244  O     0.47000   0.84943   0.88586   0.00000  Uiso   1.00
O1245  O     0.46585   0.82582   0.60487   0.00000  Uiso   1.00
O1246  O     0.49460   0.75566   0.90491   0.00000  Uiso   1.00
O1247  O     0.50153   0.78194   0.70884   0.00000  Uiso   1.00
O1248  O     0.49850   0.88199   0.79386   0.00000  Uiso   1.00
O1249  O     0.36948   0.75369   0.74691   0.00000  Uiso   1.00
O1250  O     0.39155   0.90368   0.74502   0.00000  Uiso   1.00
O1251  O     0.60845   0.76298   0.75499   0.00000  Uiso   1.00
O1252  O     0.63662   0.84063   0.82247   0.00000  Uiso   1.00
O1253  O     0.36338   0.82603   0.67753   0.00000  Uiso   1.00
O1254  O     0.39764   0.83134   0.81439   0.00000  Uiso   1.00
O1255  O     0.60236   0.83533   0.68561   0.00000  Uiso   1.00
O1256  O     0.56350   0.88174   0.60747   0.00000  Uiso   1.00
Zn1257 Zn    0.60366   0.83954   0.75540   0.00000  Uiso   1.00
Zn1258 Zn    0.39634   0.82713   0.74461   0.00000  Uiso   1.00
C1259  C     0.68142   0.93137   0.74963   0.00000  Uiso   1.00
C1260  C     0.97756   0.82752   0.65968   0.00000  Uiso   1.00
C1261  C     0.70192   0.84569   0.89216   0.00000  Uiso   1.00
C1262  C     0.96282   0.81372   0.60907   0.00000  Uiso   1.00
C1263  C     0.67303   0.86170   0.97165   0.00000  Uiso   1.00
C1264  C     0.96810   0.75448   0.53869   0.00000  Uiso   1.00
C1265  C     0.99273   0.85613   0.92245   0.00000  Uiso   1.00
C1266  C     0.98690   0.77129   0.58578   0.00000  Uiso   1.00
C1267  C     0.75760   0.84119   0.91196   0.00000  Uiso   1.00
C1268  C     0.91714   0.83688   0.58620   0.00000  Uiso   1.00
C1269  C     0.76706   0.83261   0.95985   0.00000  Uiso   1.00
C1270  C     0.98543   0.73537   0.75116   0.00000  Uiso   1.00
C1271  C     0.89038   0.81210   0.54333   0.00000  Uiso   1.00
C1272  C     0.72698   0.84959   0.99066   0.00000  Uiso   1.00
C1273  C     0.91971   0.77503   0.51703   0.00000  Uiso   1.00
C1274  C     0.81757   0.81171   0.97790   0.00000  Uiso   1.00
C1275  C     0.83488   0.82266   0.52651   0.00000  Uiso   1.00
C1276  C     0.91821   0.92513   0.58579   0.00000  Uiso   1.00
C1277  C     0.82767   0.90042   0.89957   0.00000  Uiso   1.00
C1278  C     0.79968   0.77082   0.60658   0.00000  Uiso   1.00
C1279  C     0.78968   0.71265   0.90867   0.00000  Uiso   1.00
C1280  C     0.81705   0.73278   0.72235   0.00000  Uiso   1.00
C1281  C     0.79362   0.83699   0.55781   0.00000  Uiso   1.00
C1282  C     0.85701   0.93169   0.78972   0.00000  Uiso   1.00
C1283  C     0.84850   0.77625   0.95026   0.00000  Uiso   1.00
C1284  C     0.74099   0.85230   0.53959   0.00000  Uiso   1.00
C1285  C     0.89865   0.75753   0.97058   0.00000  Uiso   1.00
C1286  C     0.68960   0.98593   0.75187   0.00000  Uiso   1.00
C1287  C     0.97757   0.68093   0.75052   0.00000  Uiso   1.00
C1288  C     0.68915   0.83944   0.84049   0.00000  Uiso   1.00
H1289  H     0.71034   0.86401   0.56377   0.00000  Uiso   1.00
H1290  H     0.94973   0.86154   0.90823   0.00000  Uiso   1.00
H1291  H     0.97432   0.87317   0.99466   0.00000  Uiso   1.00
H1292  H     0.98913   0.72348   0.52034   0.00000  Uiso   1.00
H1293  H     0.78098   0.74720   0.57341   0.00000  Uiso   1.00
H1294  H     0.77391   0.75963   0.63484   0.00000  Uiso   1.00
H1295  H     0.84362   0.75935   0.61557   0.00000  Uiso   1.00
H1296  H     0.75111   0.72527   0.92491   0.00000  Uiso   1.00
H1297  H     0.81009   0.68253   0.92947   0.00000  Uiso   1.00
H1298  H     0.77586   0.69423   0.87236   0.00000  Uiso   1.00
H1299  H     0.73285   0.66924   0.75537   0.00000  Uiso   1.00
H1300  H     0.92070   0.72901   0.95002   0.00000  Uiso   1.00
H1301  H     0.93439   0.99760   0.74765   0.00000  Uiso   1.00
H1302  H     0.77601   0.71901   0.70234   0.00000  Uiso   1.00
H1303  H     0.81523   0.73250   0.76154   0.00000  Uiso   1.00
H1304  H     0.84809   0.70418   0.71194   0.00000  Uiso   1.00
H1305  H     0.85875   0.93958   0.75179   0.00000  Uiso   1.00
H1306  H     0.89919   0.93653   0.81054   0.00000  Uiso   1.00
H1307  H     0.83027   0.96137   0.80554   0.00000  Uiso   1.00
H1308  H     0.90200   0.92343   0.54749   0.00000  Uiso   1.00
H1309  H     0.90345   0.96126   0.60370   0.00000  Uiso   1.00
H1310  H     0.96547   0.92822   0.58991   0.00000  Uiso   1.00
H1311  H     0.83834   0.90798   0.93873   0.00000  Uiso   1.00
H1312  H     0.79896   0.92999   0.88627   0.00000  Uiso   1.00
H1313  H     0.86817   0.90525   0.88353   0.00000  Uiso   1.00
H1314  H     0.68544   0.75017   0.60434   0.00000  Uiso   1.00
N1315  N     0.81362   0.81883   0.73740   0.00000  Uiso   1.00
N1316  N     0.85305   0.84784   0.76261   0.00000  Uiso   1.00
O1317  O     0.96386   0.91298   0.75310   0.00000  Uiso   1.00
O1318  O     0.80333   0.84943   0.88586   0.00000  Uiso   1.00
O1319  O     0.79918   0.82582   0.60487   0.00000  Uiso   1.00
O1320  O     0.82794   0.75566   0.90491   0.00000  Uiso   1.00
O1321  O     0.83486   0.78194   0.70884   0.00000  Uiso   1.00
O1322  O     0.83183   0.88199   0.79386   0.00000  Uiso   1.00
O1323  O     0.70281   0.75369   0.74691   0.00000  Uiso   1.00
O1324  O     0.72488   0.90368   0.74502   0.00000  Uiso   1.00
O1325  O     0.94178   0.76298   0.75499   0.00000  Uiso   1.00
O1326  O     0.96995   0.84063   0.82247   0.00000  Uiso   1.00
O1327  O     0.69672   0.82603   0.67753   0.00000  Uiso   1.00
O1328  O     0.73098   0.83134   0.81439   0.00000  Uiso   1.00
O1329  O     0.93569   0.83533   0.68561   0.00000  Uiso   1.00
O1330  O     0.89684   0.88174   0.60747   0.00000  Uiso   1.00
Zn1331 Zn    0.93700   0.83954   0.75540   0.00000  Uiso   1.00
Zn1332 Zn    0.72967   0.82713   0.74461   0.00000  Uiso   1.00
loop_
_geom_bond_atom_site_label_1
_geom_bond_atom_site_label_2
_geom_bond_distance
_geom_bond_site_symmetry_2
_ccdc_geom_bond_type
C1     C28     1.400   .     S
C1     O66     1.292   .     A
C1     O207    1.289   1_455 S
C2     C4      1.454   .     S
C2     O71     1.303   .     A
C2     O143    1.303   .     S
C3     C9      1.400   .     A
C3     C30     1.460   .     S
C3     C155    1.406   1_455 S
C4     C8      1.402   .     A
C4     C10     1.394   .     A
C5     C14     1.401   .     A
C5     C155    1.395   1_455 S
C5     H181    1.083   1_455 S
C6     H34     1.084   .     S
C6     C8      1.393   .     A
C6     C15     1.398   .     A
C7     H32     1.081   .     S
C7     C77     1.406   .     S
C7     C79     1.395   .     S
C8     H130    1.075   .     S
C9     O60     1.385   .     S
C9     C11     1.391   .     A
C10    O72     1.386   .     S
C10    C13     1.404   .     A
C11    C16     1.407   .     A
C11    C14     1.410   .     A
C12    C29     1.400   .     S
C12    O67     1.292   .     A
C12    O139    1.288   .     S
C13    C17     1.405   .     A
C13    C15     1.412   .     A
C14    C692    1.390   .     S
C15    C693    1.393   1_554 S
C16    C25     1.428   .     A
C16    C683    1.401   .     S
C17    C23     1.422   .     A
C17    C682    1.401   1_554 S
C18    H52     1.114   .     S
C18    H51     1.109   .     S
C18    O72     1.410   .     S
C18    H50     1.113   .     S
C19    O60     1.413   .     S
C19    H53     1.113   .     S
C19    H55     1.105   .     S
C19    H54     1.111   .     S
C20    H36     1.099   .     S
C20    H37     1.109   .     S
C20    O61     1.418   .     S
C20    H35     1.118   .     S
C21    H39     1.113   .     S
C21    H40     1.110   .     S
C21    H38     1.112   .     S
C21    O62     1.410   .     S
C22    H46     1.108   .     S
C22    H44     1.106   .     S
C22    H45     1.115   .     S
C22    O63     1.405   .     S
C23    C26     1.393   .     A
C23    O61     1.382   .     S
C24    O64     1.400   .     S
C24    H47     1.113   .     S
C24    H49     1.109   .     S
C24    H48     1.109   .     S
C25    C27     1.397   .     A
C25    O62     1.383   .     S
C26    H31     1.081   .     S
C26    C680    1.390   1_554 S
C27    H42     1.084   .     S
C27    C681    1.393   .     S
C28    C399    1.328   1_455 S
C28    H263    1.083   .     S
C29    C546    1.328   1_545 S
C29    H487    1.082   1_545 S
C30    O70     1.306   .     A
C30    O216    1.304   1_455 S
H33    C79     1.083   .     S
H41    C472    1.083   1_545 S
H43    C251    1.082   .     S
H56    C156    1.075   1_455 S
N57    Zn74    2.040   .     S
N57    N58     1.287   .     D
N57    O63     1.344   .     S
N58    O64     1.345   .     S
N58    Zn73    2.040   .     S
O59    Zn73    1.968   .     S
O59    C75     1.289   .     S
O65    Zn74    1.968   .     S
O65    C160    1.288   1_455 S
O66    Zn74    1.975   .     S
O67    Zn73    1.975   .     S
O68    Zn73    1.983   .     S
O68    C104    1.304   .     S
O69    Zn74    1.983   .     S
O69    C150    1.303   1_455 S
O70    Zn74    1.968   .     S
O71    Zn73    1.968   .     S
C75    C102    1.400   .     S
C75    O140    1.292   .     A
C76    C78     1.454   .     S
C76    O145    1.303   .     A
C76    O217    1.303   .     S
C77    C83     1.400   .     A
C77    C104    1.460   .     S
C78    C82     1.402   .     A
C78    C84     1.394   .     A
C79    C88     1.401   .     A
C80    H108    1.084   .     S
C80    C82     1.393   .     A
C80    C89     1.398   .     A
C81    H106    1.081   .     S
C81    C151    1.406   .     S
C81    C153    1.395   .     S
C82    H204    1.075   .     S
C83    O134    1.385   .     S
C83    C85     1.391   .     A
C84    O146    1.386   .     S
C84    C87     1.404   .     A
C85    C90     1.407   .     A
C85    C88     1.410   .     A
C86    C103    1.400   .     S
C86    O141    1.292   .     A
C86    O213    1.288   .     S
C87    C91     1.405   .     A
C87    C89     1.412   .     A
C88    C766    1.390   .     S
C89    C767    1.393   1_554 S
C90    C99     1.428   .     A
C90    C757    1.401   .     S
C91    C97     1.422   .     A
C91    C756    1.401   1_554 S
C92    H126    1.114   .     S
C92    H125    1.109   .     S
C92    O146    1.410   .     S
C92    H124    1.113   .     S
C93    O134    1.413   .     S
C93    H127    1.113   .     S
C93    H129    1.105   .     S
C93    H128    1.111   .     S
C94    H110    1.099   .     S
C94    H111    1.109   .     S
C94    O135    1.418   .     S
C94    H109    1.118   .     S
C95    H113    1.113   .     S
C95    H114    1.110   .     S
C95    H112    1.112   .     S
C95    O136    1.410   .     S
C96    H120    1.108   .     S
C96    H118    1.106   .     S
C96    H119    1.115   .     S
C96    O137    1.405   .     S
C97    C100    1.393   .     A
C97    O135    1.382   .     S
C98    O138    1.400   .     S
C98    H121    1.113   .     S
C98    H123    1.109   .     S
C98    H122    1.109   .     S
C99    C101    1.397   .     A
C99    O136    1.383   .     S
C100   H105    1.081   .     S
C100   C754    1.390   1_554 S
C101   H116    1.084   .     S
C101   C755    1.393   .     S
C102   C251    1.328   .     S
C102   H337    1.083   .     S
C103   C620    1.328   1_545 S
C103   H561    1.082   1_545 S
C104   O144    1.306   .     A
H107   C153    1.083   .     S
H115   C546    1.083   1_545 S
H117   C325    1.082   .     S
N131   Zn148   2.040   .     S
N131   N132    1.287   .     D
N131   O137    1.344   .     S
N132   O138    1.345   .     S
N132   Zn147   2.040   .     S
O133   Zn147   1.968   .     S
O133   C149    1.289   .     S
O139   Zn148   1.968   .     S
O140   Zn148   1.975   .     S
O141   Zn147   1.975   .     S
O142   Zn147   1.983   .     S
O142   C178    1.304   .     S
O143   Zn148   1.983   .     S
O144   Zn148   1.968   .     S
O145   Zn147   1.968   .     S
C149   C176    1.400   .     S
C149   O214    1.292   .     A
C150   C152    1.454   .     S
C150   O219    1.303   .     A
C150   O69     1.303   1_655 S
C151   C157    1.400   .     A
C151   C178    1.460   .     S
C152   C156    1.402   .     A
C152   C158    1.394   .     A
C153   C162    1.401   .     A
C154   H182    1.084   .     S
C154   C156    1.393   .     A
C154   C163    1.398   .     A
C155   H180    1.081   .     S
C155   C3      1.406   1_655 S
C155   C5      1.395   1_655 S
C156   H56     1.075   1_655 S
C157   O208    1.385   .     S
C157   C159    1.391   .     A
C158   O220    1.386   .     S
C158   C161    1.404   .     A
C159   C164    1.407   .     A
C159   C162    1.410   .     A
C160   C177    1.400   .     S
C160   O215    1.292   .     A
C160   O65     1.288   1_655 S
C161   C165    1.405   .     A
C161   C163    1.412   .     A
C162   C840    1.390   .     S
C163   C841    1.393   1_554 S
C164   C173    1.428   .     A
C164   C831    1.401   .     S
C165   C171    1.422   .     A
C165   C830    1.401   1_554 S
C166   H200    1.114   .     S
C166   H199    1.109   .     S
C166   O220    1.410   .     S
C166   H198    1.113   .     S
C167   O208    1.413   .     S
C167   H201    1.113   .     S
C167   H203    1.105   .     S
C167   H202    1.111   .     S
C168   H184    1.099   .     S
C168   H185    1.109   .     S
C168   O209    1.418   .     S
C168   H183    1.118   .     S
C169   H187    1.113   .     S
C169   H188    1.110   .     S
C169   H186    1.112   .     S
C169   O210    1.410   .     S
C170   H194    1.108   .     S
C170   H192    1.106   .     S
C170   H193    1.115   .     S
C170   O211    1.405   .     S
C171   C174    1.393   .     A
C171   O209    1.382   .     S
C172   O212    1.400   .     S
C172   H195    1.113   .     S
C172   H197    1.109   .     S
C172   H196    1.109   .     S
C173   C175    1.397   .     A
C173   O210    1.383   .     S
C174   H179    1.081   .     S
C174   C828    1.390   1_554 S
C175   H190    1.084   .     S
C175   C829    1.393   .     S
C176   C325    1.328   .     S
C176   H411    1.083   .     S
C177   C472    1.328   1_645 S
C177   H635    1.082   1_545 S
C178   O218    1.306   .     A
H181   C5      1.083   1_655 S
H189   C620    1.083   1_545 S
H191   C399    1.082   .     S
N205   Zn222   2.040   .     S
N205   N206    1.287   .     D
N205   O211    1.344   .     S
N206   O212    1.345   .     S
N206   Zn221   2.040   .     S
O207   Zn221   1.968   .     S
O207   C1      1.289   1_655 S
O213   Zn222   1.968   .     S
O214   Zn222   1.975   .     S
O215   Zn221   1.975   .     S
O216   Zn221   1.983   .     S
O216   C30     1.304   1_655 S
O217   Zn222   1.983   .     S
O218   Zn222   1.968   .     S
O219   Zn221   1.968   .     S
C223   C250    1.400   .     S
C223   O288    1.292   .     A
C223   O429    1.289   1_455 S
C224   C226    1.454   .     S
C224   O293    1.303   .     A
C224   O365    1.303   .     S
C225   C231    1.400   .     A
C225   C252    1.460   .     S
C225   C377    1.406   1_455 S
C226   C230    1.402   .     A
C226   C232    1.394   .     A
C227   C236    1.401   .     A
C227   C377    1.395   1_455 S
C227   H403    1.083   1_455 S
C228   H256    1.084   .     S
C228   C230    1.393   .     A
C228   C237    1.398   .     A
C229   H254    1.081   .     S
C229   C299    1.406   .     S
C229   C301    1.395   .     S
C230   H352    1.075   .     S
C231   O282    1.385   .     S
C231   C233    1.391   .     A
C232   O294    1.386   .     S
C232   C235    1.404   .     A
C233   C238    1.407   .     A
C233   C236    1.410   .     A
C234   C251    1.400   .     S
C234   O289    1.292   .     A
C234   O361    1.288   .     S
C235   C239    1.405   .     A
C235   C237    1.412   .     A
C236   C914    1.390   .     S
C237   C915    1.393   1_554 S
C238   C247    1.428   .     A
C238   C905    1.401   .     S
C239   C245    1.422   .     A
C239   C904    1.401   1_554 S
C240   H274    1.114   .     S
C240   H273    1.109   .     S
C240   O294    1.410   .     S
C240   H272    1.113   .     S
C241   O282    1.413   .     S
C241   H275    1.113   .     S
C241   H277    1.105   .     S
C241   H276    1.111   .     S
C242   H258    1.099   .     S
C242   H259    1.109   .     S
C242   O283    1.418   .     S
C242   H257    1.118   .     S
C243   H261    1.113   .     S
C243   H262    1.110   .     S
C243   H260    1.112   .     S
C243   O284    1.410   .     S
C244   H268    1.108   .     S
C244   H266    1.106   .     S
C244   H267    1.115   .     S
C244   O285    1.405   .     S
C245   C248    1.393   .     A
C245   O283    1.382   .     S
C246   O286    1.400   .     S
C246   H269    1.113   .     S
C246   H271    1.109   .     S
C246   H270    1.109   .     S
C247   C249    1.397   .     A
C247   O284    1.383   .     S
C248   H253    1.081   .     S
C248   C902    1.390   1_554 S
C249   H264    1.084   .     S
C249   C903    1.393   .     S
C250   C621    1.328   1_455 S
C250   H485    1.083   .     S
C252   O292    1.306   .     A
C252   O438    1.304   1_455 S
H255   C301    1.083   .     S
H265   C473    1.082   .     S
H278   C378    1.075   1_455 S
N279   Zn296   2.040   .     S
N279   N280    1.287   .     D
N279   O285    1.344   .     S
N280   O286    1.345   .     S
N280   Zn295   2.040   .     S
O281   Zn295   1.968   .     S
O281   C297    1.289   .     S
O287   Zn296   1.968   .     S
O287   C382    1.288   1_455 S
O288   Zn296   1.975   .     S
O289   Zn295   1.975   .     S
O290   Zn295   1.983   .     S
O290   C326    1.304   .     S
O291   Zn296   1.983   .     S
O291   C372    1.303   1_455 S
O292   Zn296   1.968   .     S
O293   Zn295   1.968   .     S
C297   C324    1.400   .     S
C297   O362    1.292   .     A
C298   C300    1.454   .     S
C298   O367    1.303   .     A
C298   O439    1.303   .     S
C299   C305    1.400   .     A
C299   C326    1.460   .     S
C300   C304    1.402   .     A
C300   C306    1.394   .     A
C301   C310    1.401   .     A
C302   H330    1.084   .     S
C302   C304    1.393   .     A
C302   C311    1.398   .     A
C303   H328    1.081   .     S
C303   C373    1.406   .     S
C303   C375    1.395   .     S
C304   H426    1.075   .     S
C305   O356    1.385   .     S
C305   C307    1.391   .     A
C306   O368    1.386   .     S
C306   C309    1.404   .     A
C307   C312    1.407   .     A
C307   C310    1.410   .     A
C308   C325    1.400   .     S
C308   O363    1.292   .     A
C308   O435    1.288   .     S
C309   C313    1.405   .     A
C309   C311    1.412   .     A
C310   C988    1.390   .     S
C311   C989    1.393   1_554 S
C312   C321    1.428   .     A
C312   C979    1.401   .     S
C313   C319    1.422   .     A
C313   C978    1.401   1_554 S
C314   H348    1.114   .     S
C314   H347    1.109   .     S
C314   O368    1.410   .     S
C314   H346    1.113   .     S
C315   O356    1.413   .     S
C315   H349    1.113   .     S
C315   H351    1.105   .     S
C315   H350    1.111   .     S
C316   H332    1.099   .     S
C316   H333    1.109   .     S
C316   O357    1.418   .     S
C316   H331    1.118   .     S
C317   H335    1.113   .     S
C317   H336    1.110   .     S
C317   H334    1.112   .     S
C317   O358    1.410   .     S
C318   H342    1.108   .     S
C318   H340    1.106   .     S
C318   H341    1.115   .     S
C318   O359    1.405   .     S
C319   C322    1.393   .     A
C319   O357    1.382   .     S
C320   O360    1.400   .     S
C320   H343    1.113   .     S
C320   H345    1.109   .     S
C320   H344    1.109   .     S
C321   C323    1.397   .     A
C321   O358    1.383   .     S
C322   H327    1.081   .     S
C322   C976    1.390   1_554 S
C323   H338    1.084   .     S
C323   C977    1.393   .     S
C324   C473    1.328   .     S
C324   H559    1.083   .     S
C326   O366    1.306   .     A
H329   C375    1.083   .     S
H339   C547    1.082   .     S
N353   Zn370   2.040   .     S
N353   N354    1.287   .     D
N353   O359    1.344   .     S
N354   O360    1.345   .     S
N354   Zn369   2.040   .     S
O355   Zn369   1.968   .     S
O355   C371    1.289   .     S
O361   Zn370   1.968   .     S
O362   Zn370   1.975   .     S
O363   Zn369   1.975   .     S
O364   Zn369   1.983   .     S
O364   C400    1.304   .     S
O365   Zn370   1.983   .     S
O366   Zn370   1.968   .     S
O367   Zn369   1.968   .     S
C371   C398    1.400   .     S
C371   O436    1.292   .     A
C372   C374    1.454   .     S
C372   O441    1.303   .     A
C372   O291    1.303   1_655 S
C373   C379    1.400   .     A
C373   C400    1.460   .     S
C374   C378    1.402   .     A
C374   C380    1.394   .     A
C375   C384    1.401   .     A
C376   H404    1.084   .     S
C376   C378    1.393   .     A
C376   C385    1.398   .     A
C377   H402    1.081   .     S
C377   C225    1.406   1_655 S
C377   C227    1.395   1_655 S
C378   H278    1.075   1_655 S
C379   O430    1.385   .     S
C379   C381    1.391   .     A
C380   O442    1.386   .     S
C380   C383    1.404   .     A
C381   C386    1.407   .     A
C381   C384    1.410   .     A
C382   C399    1.400   .     S
C382   O437    1.292   .     A
C382   O287    1.288   1_655 S
C383   C387    1.405   .     A
C383   C385    1.412   .     A
C384   C1062   1.390   .     S
C385   C1063   1.393   1_554 S
C386   C395    1.428   .     A
C386   C1053   1.401   .     S
C387   C393    1.422   .     A
C387   C1052   1.401   1_554 S
C388   H422    1.114   .     S
C388   H421    1.109   .     S
C388   O442    1.410   .     S
C388   H420    1.113   .     S
C389   O430    1.413   .     S
C389   H423    1.113   .     S
C389   H425    1.105   .     S
C389   H424    1.111   .     S
C390   H406    1.099   .     S
C390   H407    1.109   .     S
C390   O431    1.418   .     S
C390   H405    1.118   .     S
C391   H409    1.113   .     S
C391   H410    1.110   .     S
C391   H408    1.112   .     S
C391   O432    1.410   .     S
C392   H416    1.108   .     S
C392   H414    1.106   .     S
C392   H415    1.115   .     S
C392   O433    1.405   .     S
C393   C396    1.393   .     A
C393   O431    1.382   .     S
C394   O434    1.400   .     S
C394   H417    1.113   .     S
C394   H419    1.109   .     S
C394   H418    1.109   .     S
C395   C397    1.397   .     A
C395   O432    1.383   .     S
C396   H401    1.081   .     S
C396   C1050   1.390   1_554 S
C397   H412    1.084   .     S
C397   C1051   1.393   .     S
C398   C547    1.328   .     S
C398   H633    1.083   .     S
C399   C28     1.328   1_655 S
C400   O440    1.306   .     A
H403   C227    1.083   1_655 S
H413   C621    1.082   .     S
N427   Zn444   2.040   .     S
N427   N428    1.287   .     D
N427   O433    1.344   .     S
N428   O434    1.345   .     S
N428   Zn443   2.040   .     S
O429   Zn443   1.968   .     S
O429   C223    1.289   1_655 S
O435   Zn444   1.968   .     S
O436   Zn444   1.975   .     S
O437   Zn443   1.975   .     S
O438   Zn443   1.983   .     S
O438   C252    1.304   1_655 S
O439   Zn444   1.983   .     S
O440   Zn444   1.968   .     S
O441   Zn443   1.968   .     S
C445   C472    1.400   .     S
C445   O510    1.292   .     A
C445   O651    1.289   1_455 S
C446   C448    1.454   .     S
C446   O515    1.303   .     A
C446   O587    1.303   .     S
C447   C453    1.400   .     A
C447   C474    1.460   .     S
C447   C599    1.406   1_455 S
C448   C452    1.402   .     A
C448   C454    1.394   .     A
C449   C458    1.401   .     A
C449   C599    1.395   1_455 S
C449   H625    1.083   1_455 S
C450   H478    1.084   .     S
C450   C452    1.393   .     A
C450   C459    1.398   .     A
C451   H476    1.081   .     S
C451   C521    1.406   .     S
C451   C523    1.395   .     S
C452   H574    1.075   .     S
C453   O504    1.385   .     S
C453   C455    1.391   .     A
C454   O516    1.386   .     S
C454   C457    1.404   .     A
C455   C460    1.407   .     A
C455   C458    1.410   .     A
C456   C473    1.400   .     S
C456   O511    1.292   .     A
C456   O583    1.288   .     S
C457   C461    1.405   .     A
C457   C459    1.412   .     A
C458   C1136   1.390   .     S
C459   C1137   1.393   1_554 S
C460   C469    1.428   .     A
C460   C1127   1.401   .     S
C461   C467    1.422   .     A
C461   C1126   1.401   1_554 S
C462   H496    1.114   .     S
C462   H495    1.109   .     S
C462   O516    1.410   .     S
C462   H494    1.113   .     S
C463   O504    1.413   .     S
C463   H497    1.113   .     S
C463   H499    1.105   .     S
C463   H498    1.111   .     S
C464   H480    1.099   .     S
C464   H481    1.109   .     S
C464   O505    1.418   .     S
C464   H479    1.118   .     S
C465   H483    1.113   .     S
C465   H484    1.110   .     S
C465   H482    1.112   .     S
C465   O506    1.410   .     S
C466   H490    1.108   .     S
C466   H488    1.106   .     S
C466   H489    1.115   .     S
C466   O507    1.405   .     S
C467   C470    1.393   .     A
C467   O505    1.382   .     S
C468   O508    1.400   .     S
C468   H491    1.113   .     S
C468   H493    1.109   .     S
C468   H492    1.109   .     S
C469   C471    1.397   .     A
C469   O506    1.383   .     S
C470   H475    1.081   .     S
C470   C1124   1.390   1_554 S
C471   H486    1.084   .     S
C471   C1125   1.393   .     S
C472   C177    1.328   1_465 S
C472   H41     1.083   1_565 S
C474   O514    1.306   .     A
C474   O660    1.304   1_455 S
H477   C523    1.083   .     S
H487   C29     1.082   1_565 S
H500   C600    1.075   1_455 S
N501   Zn518   2.040   .     S
N501   N502    1.287   .     D
N501   O507    1.344   .     S
N502   O508    1.345   .     S
N502   Zn517   2.040   .     S
O503   Zn517   1.968   .     S
O503   C519    1.289   .     S
O509   Zn518   1.968   .     S
O509   C604    1.288   1_455 S
O510   Zn518   1.975   .     S
O511   Zn517   1.975   .     S
O512   Zn517   1.983   .     S
O512   C548    1.304   .     S
O513   Zn518   1.983   .     S
O513   C594    1.303   1_455 S
O514   Zn518   1.968   .     S
O515   Zn517   1.968   .     S
C519   C546    1.400   .     S
C519   O584    1.292   .     A
C520   C522    1.454   .     S
C520   O589    1.303   .     A
C520   O661    1.303   .     S
C521   C527    1.400   .     A
C521   C548    1.460   .     S
C522   C526    1.402   .     A
C522   C528    1.394   .     A
C523   C532    1.401   .     A
C524   H552    1.084   .     S
C524   C526    1.393   .     A
C524   C533    1.398   .     A
C525   H550    1.081   .     S
C525   C595    1.406   .     S
C525   C597    1.395   .     S
C526   H648    1.075   .     S
C527   O578    1.385   .     S
C527   C529    1.391   .     A
C528   O590    1.386   .     S
C528   C531    1.404   .     A
C529   C534    1.407   .     A
C529   C532    1.410   .     A
C530   C547    1.400   .     S
C530   O585    1.292   .     A
C530   O657    1.288   .     S
C531   C535    1.405   .     A
C531   C533    1.412   .     A
C532   C1210   1.390   .     S
C533   C1211   1.393   1_554 S
C534   C543    1.428   .     A
C534   C1201   1.401   .     S
C535   C541    1.422   .     A
C535   C1200   1.401   1_554 S
C536   H570    1.114   .     S
C536   H569    1.109   .     S
C536   O590    1.410   .     S
C536   H568    1.113   .     S
C537   O578    1.413   .     S
C537   H571    1.113   .     S
C537   H573    1.105   .     S
C537   H572    1.111   .     S
C538   H554    1.099   .     S
C538   H555    1.109   .     S
C538   O579    1.418   .     S
C538   H553    1.118   .     S
C539   H557    1.113   .     S
C539   H558    1.110   .     S
C539   H556    1.112   .     S
C539   O580    1.410   .     S
C540   H564    1.108   .     S
C540   H562    1.106   .     S
C540   H563    1.115   .     S
C540   O581    1.405   .     S
C541   C544    1.393   .     A
C541   O579    1.382   .     S
C542   O582    1.400   .     S
C542   H565    1.113   .     S
C542   H567    1.109   .     S
C542   H566    1.109   .     S
C543   C545    1.397   .     A
C543   O580    1.383   .     S
C544   H549    1.081   .     S
C544   C1198   1.390   1_554 S
C545   H560    1.084   .     S
C545   C1199   1.393   .     S
C546   C29     1.328   1_565 S
C546   H115    1.083   1_565 S
C548   O588    1.306   .     A
H551   C597    1.083   .     S
H561   C103    1.082   1_565 S
N575   Zn592   2.040   .     S
N575   N576    1.287   .     D
N575   O581    1.344   .     S
N576   O582    1.345   .     S
N576   Zn591   2.040   .     S
O577   Zn591   1.968   .     S
O577   C593    1.289   .     S
O583   Zn592   1.968   .     S
O584   Zn592   1.975   .     S
O585   Zn591   1.975   .     S
O586   Zn591   1.983   .     S
O586   C622    1.304   .     S
O587   Zn592   1.983   .     S
O588   Zn592   1.968   .     S
O589   Zn591   1.968   .     S
C593   C620    1.400   .     S
C593   O658    1.292   .     A
C594   C596    1.454   .     S
C594   O663    1.303   .     A
C594   O513    1.303   1_655 S
C595   C601    1.400   .     A
C595   C622    1.460   .     S
C596   C600    1.402   .     A
C596   C602    1.394   .     A
C597   C606    1.401   .     A
C598   H626    1.084   .     S
C598   C600    1.393   .     A
C598   C607    1.398   .     A
C599   H624    1.081   .     S
C599   C447    1.406   1_655 S
C599   C449    1.395   1_655 S
C600   H500    1.075   1_655 S
C601   O652    1.385   .     S
C601   C603    1.391   .     A
C602   O664    1.386   .     S
C602   C605    1.404   .     A
C603   C608    1.407   .     A
C603   C606    1.410   .     A
C604   C621    1.400   .     S
C604   O659    1.292   .     A
C604   O509    1.288   1_655 S
C605   C609    1.405   .     A
C605   C607    1.412   .     A
C606   C1284   1.390   .     S
C607   C1285   1.393   1_554 S
C608   C617    1.428   .     A
C608   C1275   1.401   .     S
C609   C615    1.422   .     A
C609   C1274   1.401   1_554 S
C610   H644    1.114   .     S
C610   H643    1.109   .     S
C610   O664    1.410   .     S
C610   H642    1.113   .     S
C611   O652    1.413   .     S
C611   H645    1.113   .     S
C611   H647    1.105   .     S
C611   H646    1.111   .     S
C612   H628    1.099   .     S
C612   H629    1.109   .     S
C612   O653    1.418   .     S
C612   H627    1.118   .     S
C613   H631    1.113   .     S
C613   H632    1.110   .     S
C613   H630    1.112   .     S
C613   O654    1.410   .     S
C614   H638    1.108   .     S
C614   H636    1.106   .     S
C614   H637    1.115   .     S
C614   O655    1.405   .     S
C615   C618    1.393   .     A
C615   O653    1.382   .     S
C616   O656    1.400   .     S
C616   H639    1.113   .     S
C616   H641    1.109   .     S
C616   H640    1.109   .     S
C617   C619    1.397   .     A
C617   O654    1.383   .     S
C618   H623    1.081   .     S
C618   C1272   1.390   1_554 S
C619   H634    1.084   .     S
C619   C1273   1.393   .     S
C620   C103    1.328   1_565 S
C620   H189    1.083   1_565 S
C621   C250    1.328   1_655 S
C622   O662    1.306   .     A
H625   C449    1.083   1_655 S
H635   C177    1.082   1_565 S
N649   Zn666   2.040   .     S
N649   N650    1.287   .     D
N649   O655    1.344   .     S
N650   O656    1.345   .     S
N650   Zn665   2.040   .     S
O651   Zn665   1.968   .     S
O651   C445    1.289   1_655 S
O657   Zn666   1.968   .     S
O658   Zn666   1.975   .     S
O659   Zn665   1.975   .     S
O660   Zn665   1.983   .     S
O660   C474    1.304   1_655 S
O661   Zn666   1.983   .     S
O662   Zn666   1.968   .     S
O663   Zn665   1.968   .     S
C667   C694    1.400   .     S
C667   O732    1.292   .     A
C667   O873    1.289   1_455 S
C668   C670    1.454   .     S
C668   O737    1.303   .     A
C668   O809    1.303   .     S
C669   C675    1.400   .     A
C669   C696    1.460   .     S
C669   C821    1.406   1_455 S
C670   C674    1.402   .     A
C670   C676    1.394   .     A
C671   C680    1.401   .     A
C671   C821    1.395   1_455 S
C671   H847    1.083   1_455 S
C672   H700    1.084   .     S
C672   C674    1.393   .     A
C672   C681    1.398   .     A
C673   H698    1.081   .     S
C673   C743    1.406   .     S
C673   C745    1.395   .     S
C674   H796    1.075   .     S
C675   O726    1.385   .     S
C675   C677    1.391   .     A
C676   O738    1.386   .     S
C676   C679    1.404   .     A
C677   C682    1.407   .     A
C677   C680    1.410   .     A
C678   C695    1.400   .     S
C678   O733    1.292   .     A
C678   O805    1.288   .     S
C679   C683    1.405   .     A
C679   C681    1.412   .     A
C680   C26     1.390   1_556 S
C682   C691    1.428   .     A
C682   C17     1.401   1_556 S
C683   C689    1.422   .     A
C684   H718    1.114   .     S
C684   H717    1.109   .     S
C684   O738    1.410   .     S
C684   H716    1.113   .     S
C685   O726    1.413   .     S
C685   H719    1.113   .     S
C685   H721    1.105   .     S
C685   H720    1.111   .     S
C686   H702    1.099   .     S
C686   H703    1.109   .     S
C686   O727    1.418   .     S
C686   H701    1.118   .     S
C687   H705    1.113   .     S
C687   H706    1.110   .     S
C687   H704    1.112   .     S
C687   O728    1.410   .     S
C688   H712    1.108   .     S
C688   H710    1.106   .     S
C688   H711    1.115   .     S
C688   O729    1.405   .     S
C689   C692    1.393   .     A
C689   O727    1.382   .     S
C690   O730    1.400   .     S
C690   H713    1.113   .     S
C690   H715    1.109   .     S
C690   H714    1.109   .     S
C691   C693    1.397   .     A
C691   O728    1.383   .     S
C692   H697    1.081   .     S
C693   H708    1.084   .     S
C693   C15     1.393   1_556 S
C694   C1065   1.328   1_455 S
C694   H929    1.083   .     S
C695   C1212   1.328   1_545 S
C695   H1153   1.082   1_545 S
C696   O736    1.306   .     A
C696   O882    1.304   1_455 S
H699   C745    1.083   .     S
H707   C1138   1.083   1_545 S
H709   C917    1.082   .     S
H722   C822    1.075   1_455 S
N723   Zn740   2.040   .     S
N723   N724    1.287   .     D
N723   O729    1.344   .     S
N724   O730    1.345   .     S
N724   Zn739   2.040   .     S
O725   Zn739   1.968   .     S
O725   C741    1.289   .     S
O731   Zn740   1.968   .     S
O731   C826    1.288   1_455 S
O732   Zn740   1.975   .     S
O733   Zn739   1.975   .     S
O734   Zn739   1.983   .     S
O734   C770    1.304   .     S
O735   Zn740   1.983   .     S
O735   C816    1.303   1_455 S
O736   Zn740   1.968   .     S
O737   Zn739   1.968   .     S
C741   C768    1.400   .     S
C741   O806    1.292   .     A
C742   C744    1.454   .     S
C742   O811    1.303   .     A
C742   O883    1.303   .     S
C743   C749    1.400   .     A
C743   C770    1.460   .     S
C744   C748    1.402   .     A
C744   C750    1.394   .     A
C745   C754    1.401   .     A
C746   H774    1.084   .     S
C746   C748    1.393   .     A
C746   C755    1.398   .     A
C747   H772    1.081   .     S
C747   C817    1.406   .     S
C747   C819    1.395   .     S
C748   H870    1.075   .     S
C749   O800    1.385   .     S
C749   C751    1.391   .     A
C750   O812    1.386   .     S
C750   C753    1.404   .     A
C751   C756    1.407   .     A
C751   C754    1.410   .     A
C752   C769    1.400   .     S
C752   O807    1.292   .     A
C752   O879    1.288   .     S
C753   C757    1.405   .     A
C753   C755    1.412   .     A
C754   C100    1.390   1_556 S
C756   C765    1.428   .     A
C756   C91     1.401   1_556 S
C757   C763    1.422   .     A
C758   H792    1.114   .     S
C758   H791    1.109   .     S
C758   O812    1.410   .     S
C758   H790    1.113   .     S
C759   O800    1.413   .     S
C759   H793    1.113   .     S
C759   H795    1.105   .     S
C759   H794    1.111   .     S
C760   H776    1.099   .     S
C760   H777    1.109   .     S
C760   O801    1.418   .     S
C760   H775    1.118   .     S
C761   H779    1.113   .     S
C761   H780    1.110   .     S
C761   H778    1.112   .     S
C761   O802    1.410   .     S
C762   H786    1.108   .     S
C762   H784    1.106   .     S
C762   H785    1.115   .     S
C762   O803    1.405   .     S
C763   C766    1.393   .     A
C763   O801    1.382   .     S
C764   O804    1.400   .     S
C764   H787    1.113   .     S
C764   H789    1.109   .     S
C764   H788    1.109   .     S
C765   C767    1.397   .     A
C765   O802    1.383   .     S
C766   H771    1.081   .     S
C767   H782    1.084   .     S
C767   C89     1.393   1_556 S
C768   C917    1.328   .     S
C768   H1003   1.083   .     S
C769   C1286   1.328   1_545 S
C769   H1227   1.082   1_545 S
C770   O810    1.306   .     A
H773   C819    1.083   .     S
H781   C1212   1.083   1_545 S
H783   C991    1.082   .     S
N797   Zn814   2.040   .     S
N797   N798    1.287   .     D
N797   O803    1.344   .     S
N798   O804    1.345   .     S
N798   Zn813   2.040   .     S
O799   Zn813   1.968   .     S
O799   C815    1.289   .     S
O805   Zn814   1.968   .     S
O806   Zn814   1.975   .     S
O807   Zn813   1.975   .     S
O808   Zn813   1.983   .     S
O808   C844    1.304   .     S
O809   Zn814   1.983   .     S
O810   Zn814   1.968   .     S
O811   Zn813   1.968   .     S
C815   C842    1.400   .     S
C815   O880    1.292   .     A
C816   C818    1.454   .     S
C816   O885    1.303   .     A
C816   O735    1.303   1_655 S
C817   C823    1.400   .     A
C817   C844    1.460   .     S
C818   C822    1.402   .     A
C818   C824    1.394   .     A
C819   C828    1.401   .     A
C820   H848    1.084   .     S
C820   C822    1.393   .     A
C820   C829    1.398   .     A
C821   H846    1.081   .     S
C821   C669    1.406   1_655 S
C821   C671    1.395   1_655 S
C822   H722    1.075   1_655 S
C823   O874    1.385   .     S
C823   C825    1.391   .     A
C824   O886    1.386   .     S
C824   C827    1.404   .     A
C825   C830    1.407   .     A
C825   C828    1.410   .     A
C826   C843    1.400   .     S
C826   O881    1.292   .     A
C826   O731    1.288   1_655 S
C827   C831    1.405   .     A
C827   C829    1.412   .     A
C828   C174    1.390   1_556 S
C830   C839    1.428   .     A
C830   C165    1.401   1_556 S
C831   C837    1.422   .     A
C832   H866    1.114   .     S
C832   H865    1.109   .     S
C832   O886    1.410   .     S
C832   H864    1.113   .     S
C833   O874    1.413   .     S
C833   H867    1.113   .     S
C833   H869    1.105   .     S
C833   H868    1.111   .     S
C834   H850    1.099   .     S
C834   H851    1.109   .     S
C834   O875    1.418   .     S
C834   H849    1.118   .     S
C835   H853    1.113   .     S
C835   H854    1.110   .     S
C835   H852    1.112   .     S
C835   O876    1.410   .     S
C836   H860    1.108   .     S
C836   H858    1.106   .     S
C836   H859    1.115   .     S
C836   O877    1.405   .     S
C837   C840    1.393   .     A
C837   O875    1.382   .     S
C838   O878    1.400   .     S
C838   H861    1.113   .     S
C838   H863    1.109   .     S
C838   H862    1.109   .     S
C839   C841    1.397   .     A
C839   O876    1.383   .     S
C840   H845    1.081   .     S
C841   H856    1.084   .     S
C841   C163    1.393   1_556 S
C842   C991    1.328   .     S
C842   H1077   1.083   .     S
C843   C1138   1.328   1_645 S
C843   H1301   1.082   1_545 S
C844   O884    1.306   .     A
H847   C671    1.083   1_655 S
H855   C1286   1.083   1_545 S
H857   C1065   1.082   .     S
N871   Zn888   2.040   .     S
N871   N872    1.287   .     D
N871   O877    1.344   .     S
N872   O878    1.345   .     S
N872   Zn887   2.040   .     S
O873   Zn887   1.968   .     S
O873   C667    1.289   1_655 S
O879   Zn888   1.968   .     S
O880   Zn888   1.975   .     S
O881   Zn887   1.975   .     S
O882   Zn887   1.983   .     S
O882   C696    1.304   1_655 S
O883   Zn888   1.983   .     S
O884   Zn888   1.968   .     S
O885   Zn887   1.968   .     S
C889   C916    1.400   .     S
C889   O954    1.292   .     A
C889   O1095   1.289   1_455 S
C890   C892    1.454   .     S
C890   O959    1.303   .     A
C890   O1031   1.303   .     S
C891   C897    1.400   .     A
C891   C918    1.460   .     S
C891   C1043   1.406   1_455 S
C892   C896    1.402   .     A
C892   C898    1.394   .     A
C893   C902    1.401   .     A
C893   C1043   1.395   1_455 S
C893   H1069   1.083   1_455 S
C894   H922    1.084   .     S
C894   C896    1.393   .     A
C894   C903    1.398   .     A
C895   H920    1.081   .     S
C895   C965    1.406   .     S
C895   C967    1.395   .     S
C896   H1018   1.075   .     S
C897   O948    1.385   .     S
C897   C899    1.391   .     A
C898   O960    1.386   .     S
C898   C901    1.404   .     A
C899   C904    1.407   .     A
C899   C902    1.410   .     A
C900   C917    1.400   .     S
C900   O955    1.292   .     A
C900   O1027   1.288   .     S
C901   C905    1.405   .     A
C901   C903    1.412   .     A
C902   C248    1.390   1_556 S
C904   C913    1.428   .     A
C904   C239    1.401   1_556 S
C905   C911    1.422   .     A
C906   H940    1.114   .     S
C906   H939    1.109   .     S
C906   O960    1.410   .     S
C906   H938    1.113   .     S
C907   O948    1.413   .     S
C907   H941    1.113   .     S
C907   H943    1.105   .     S
C907   H942    1.111   .     S
C908   H924    1.099   .     S
C908   H925    1.109   .     S
C908   O949    1.418   .     S
C908   H923    1.118   .     S
C909   H927    1.113   .     S
C909   H928    1.110   .     S
C909   H926    1.112   .     S
C909   O950    1.410   .     S
C910   H934    1.108   .     S
C910   H932    1.106   .     S
C910   H933    1.115   .     S
C910   O951    1.405   .     S
C911   C914    1.393   .     A
C911   O949    1.382   .     S
C912   O952    1.400   .     S
C912   H935    1.113   .     S
C912   H937    1.109   .     S
C912   H936    1.109   .     S
C913   C915    1.397   .     A
C913   O950    1.383   .     S
C914   H919    1.081   .     S
C915   H930    1.084   .     S
C915   C237    1.393   1_556 S
C916   C1287   1.328   1_455 S
C916   H1151   1.083   .     S
C918   O958    1.306   .     A
C918   O1104   1.304   1_455 S
H921   C967    1.083   .     S
H931   C1139   1.082   .     S
H944   C1044   1.075   1_455 S
N945   Zn962   2.040   .     S
N945   N946    1.287   .     D
N945   O951    1.344   .     S
N946   O952    1.345   .     S
N946   Zn961   2.040   .     S
O947   Zn961   1.968   .     S
O947   C963    1.289   .     S
O953   Zn962   1.968   .     S
O953   C1048   1.288   1_455 S
O954   Zn962   1.975   .     S
O955   Zn961   1.975   .     S
O956   Zn961   1.983   .     S
O956   C992    1.304   .     S
O957   Zn962   1.983   .     S
O957   C1038   1.303   1_455 S
O958   Zn962   1.968   .     S
O959   Zn961   1.968   .     S
C963   C990    1.400   .     S
C963   O1028   1.292   .     A
C964   C966    1.454   .     S
C964   O1033   1.303   .     A
C964   O1105   1.303   .     S
C965   C971    1.400   .     A
C965   C992    1.460   .     S
C966   C970    1.402   .     A
C966   C972    1.394   .     A
C967   C976    1.401   .     A
C968   H996    1.084   .     S
C968   C970    1.393   .     A
C968   C977    1.398   .     A
C969   H994    1.081   .     S
C969   C1039   1.406   .     S
C969   C1041   1.395   .     S
C970   H1092   1.075   .     S
C971   O1022   1.385   .     S
C971   C973    1.391   .     A
C972   O1034   1.386   .     S
C972   C975    1.404   .     A
C973   C978    1.407   .     A
C973   C976    1.410   .     A
C974   C991    1.400   .     S
C974   O1029   1.292   .     A
C974   O1101   1.288   .     S
C975   C979    1.405   .     A
C975   C977    1.412   .     A
C976   C322    1.390   1_556 S
C978   C987    1.428   .     A
C978   C313    1.401   1_556 S
C979   C985    1.422   .     A
C980   H1014   1.114   .     S
C980   H1013   1.109   .     S
C980   O1034   1.410   .     S
C980   H1012   1.113   .     S
C981   O1022   1.413   .     S
C981   H1015   1.113   .     S
C981   H1017   1.105   .     S
C981   H1016   1.111   .     S
C982   H998    1.099   .     S
C982   H999    1.109   .     S
C982   O1023   1.418   .     S
C982   H997    1.118   .     S
C983   H1001   1.113   .     S
C983   H1002   1.110   .     S
C983   H1000   1.112   .     S
C983   O1024   1.410   .     S
C984   H1008   1.108   .     S
C984   H1006   1.106   .     S
C984   H1007   1.115   .     S
C984   O1025   1.405   .     S
C985   C988    1.393   .     A
C985   O1023   1.382   .     S
C986   O1026   1.400   .     S
C986   H1009   1.113   .     S
C986   H1011   1.109   .     S
C986   H1010   1.109   .     S
C987   C989    1.397   .     A
C987   O1024   1.383   .     S
C988   H993    1.081   .     S
C989   H1004   1.084   .     S
C989   C311    1.393   1_556 S
C990   C1139   1.328   .     S
C990   H1225   1.083   .     S
C992   O1032   1.306   .     A
H995   C1041   1.083   .     S
H1005  C1213   1.082   .     S
N1019  Zn1036  2.040   .     S
N1019  N1020   1.287   .     D
N1019  O1025   1.344   .     S
N1020  O1026   1.345   .     S
N1020  Zn1035  2.040   .     S
O1021  Zn1035  1.968   .     S
O1021  C1037   1.289   .     S
O1027  Zn1036  1.968   .     S
O1028  Zn1036  1.975   .     S
O1029  Zn1035  1.975   .     S
O1030  Zn1035  1.983   .     S
O1030  C1066   1.304   .     S
O1031  Zn1036  1.983   .     S
O1032  Zn1036  1.968   .     S
O1033  Zn1035  1.968   .     S
C1037  C1064   1.400   .     S
C1037  O1102   1.292   .     A
C1038  C1040   1.454   .     S
C1038  O1107   1.303   .     A
C1038  O957    1.303   1_655 S
C1039  C1045   1.400   .     A
C1039  C1066   1.460   .     S
C1040  C1044   1.402   .     A
C1040  C1046   1.394   .     A
C1041  C1050   1.401   .     A
C1042  H1070   1.084   .     S
C1042  C1044   1.393   .     A
C1042  C1051   1.398   .     A
C1043  H1068   1.081   .     S
C1043  C891    1.406   1_655 S
C1043  C893    1.395   1_655 S
C1044  H944    1.075   1_655 S
C1045  O1096   1.385   .     S
C1045  C1047   1.391   .     A
C1046  O1108   1.386   .     S
C1046  C1049   1.404   .     A
C1047  C1052   1.407   .     A
C1047  C1050   1.410   .     A
C1048  C1065   1.400   .     S
C1048  O1103   1.292   .     A
C1048  O953    1.288   1_655 S
C1049  C1053   1.405   .     A
C1049  C1051   1.412   .     A
C1050  C396    1.390   1_556 S
C1052  C1061   1.428   .     A
C1052  C387    1.401   1_556 S
C1053  C1059   1.422   .     A
C1054  H1088   1.114   .     S
C1054  H1087   1.109   .     S
C1054  O1108   1.410   .     S
C1054  H1086   1.113   .     S
C1055  O1096   1.413   .     S
C1055  H1089   1.113   .     S
C1055  H1091   1.105   .     S
C1055  H1090   1.111   .     S
C1056  H1072   1.099   .     S
C1056  H1073   1.109   .     S
C1056  O1097   1.418   .     S
C1056  H1071   1.118   .     S
C1057  H1075   1.113   .     S
C1057  H1076   1.110   .     S
C1057  H1074   1.112   .     S
C1057  O1098   1.410   .     S
C1058  H1082   1.108   .     S
C1058  H1080   1.106   .     S
C1058  H1081   1.115   .     S
C1058  O1099   1.405   .     S
C1059  C1062   1.393   .     A
C1059  O1097   1.382   .     S
C1060  O1100   1.400   .     S
C1060  H1083   1.113   .     S
C1060  H1085   1.109   .     S
C1060  H1084   1.109   .     S
C1061  C1063   1.397   .     A
C1061  O1098   1.383   .     S
C1062  H1067   1.081   .     S
C1063  H1078   1.084   .     S
C1063  C385    1.393   1_556 S
C1064  C1213   1.328   .     S
C1064  H1299   1.083   .     S
C1065  C694    1.328   1_655 S
C1066  O1106   1.306   .     A
H1069  C893    1.083   1_655 S
H1079  C1287   1.082   .     S
N1093  Zn1110  2.040   .     S
N1093  N1094   1.287   .     D
N1093  O1099   1.344   .     S
N1094  O1100   1.345   .     S
N1094  Zn1109  2.040   .     S
O1095  Zn1109  1.968   .     S
O1095  C889    1.289   1_655 S
O1101  Zn1110  1.968   .     S
O1102  Zn1110  1.975   .     S
O1103  Zn1109  1.975   .     S
O1104  Zn1109  1.983   .     S
O1104  C918    1.304   1_655 S
O1105  Zn1110  1.983   .     S
O1106  Zn1110  1.968   .     S
O1107  Zn1109  1.968   .     S
C1111  C1138   1.400   .     S
C1111  O1176   1.292   .     A
C1111  O1317   1.289   1_455 S
C1112  C1114   1.454   .     S
C1112  O1181   1.303   .     A
C1112  O1253   1.303   .     S
C1113  C1119   1.400   .     A
C1113  C1140   1.460   .     S
C1113  C1265   1.406   1_455 S
C1114  C1118   1.402   .     A
C1114  C1120   1.394   .     A
C1115  C1124   1.401   .     A
C1115  C1265   1.395   1_455 S
C1115  H1291   1.083   1_455 S
C1116  H1144   1.084   .     S
C1116  C1118   1.393   .     A
C1116  C1125   1.398   .     A
C1117  H1142   1.081   .     S
C1117  C1187   1.406   .     S
C1117  C1189   1.395   .     S
C1118  H1240   1.075   .     S
C1119  O1170   1.385   .     S
C1119  C1121   1.391   .     A
C1120  O1182   1.386   .     S
C1120  C1123   1.404   .     A
C1121  C1126   1.407   .     A
C1121  C1124   1.410   .     A
C1122  C1139   1.400   .     S
C1122  O1177   1.292   .     A
C1122  O1249   1.288   .     S
C1123  C1127   1.405   .     A
C1123  C1125   1.412   .     A
C1124  C470    1.390   1_556 S
C1126  C1135   1.428   .     A
C1126  C461    1.401   1_556 S
C1127  C1133   1.422   .     A
C1128  H1162   1.114   .     S
C1128  H1161   1.109   .     S
C1128  O1182   1.410   .     S
C1128  H1160   1.113   .     S
C1129  O1170   1.413   .     S
C1129  H1163   1.113   .     S
C1129  H1165   1.105   .     S
C1129  H1164   1.111   .     S
C1130  H1146   1.099   .     S
C1130  H1147   1.109   .     S
C1130  O1171   1.418   .     S
C1130  H1145   1.118   .     S
C1131  H1149   1.113   .     S
C1131  H1150   1.110   .     S
C1131  H1148   1.112   .     S
C1131  O1172   1.410   .     S
C1132  H1156   1.108   .     S
C1132  H1154   1.106   .     S
C1132  H1155   1.115   .     S
C1132  O1173   1.405   .     S
C1133  C1136   1.393   .     A
C1133  O1171   1.382   .     S
C1134  O1174   1.400   .     S
C1134  H1157   1.113   .     S
C1134  H1159   1.109   .     S
C1134  H1158   1.109   .     S
C1135  C1137   1.397   .     A
C1135  O1172   1.383   .     S
C1136  H1141   1.081   .     S
C1137  H1152   1.084   .     S
C1137  C459    1.393   1_556 S
C1138  C843    1.328   1_465 S
C1138  H707    1.083   1_565 S
C1140  O1180   1.306   .     A
C1140  O1326   1.304   1_455 S
H1143  C1189   1.083   .     S
H1153  C695    1.082   1_565 S
H1166  C1266   1.075   1_455 S
N1167  Zn1184  2.040   .     S
N1167  N1168   1.287   .     D
N1167  O1173   1.344   .     S
N1168  O1174   1.345   .     S
N1168  Zn1183  2.040   .     S
O1169  Zn1183  1.968   .     S
O1169  C1185   1.289   .     S
O1175  Zn1184  1.968   .     S
O1175  C1270   1.288   1_455 S
O1176  Zn1184  1.975   .     S
O1177  Zn1183  1.975   .     S
O1178  Zn1183  1.983   .     S
O1178  C1214   1.304   .     S
O1179  Zn1184  1.983   .     S
O1179  C1260   1.303   1_455 S
O1180  Zn1184  1.968   .     S
O1181  Zn1183  1.968   .     S
C1185  C1212   1.400   .     S
C1185  O1250   1.292   .     A
C1186  C1188   1.454   .     S
C1186  O1255   1.303   .     A
C1186  O1327   1.303   .     S
C1187  C1193   1.400   .     A
C1187  C1214   1.460   .     S
C1188  C1192   1.402   .     A
C1188  C1194   1.394   .     A
C1189  C1198   1.401   .     A
C1190  H1218   1.084   .     S
C1190  C1192   1.393   .     A
C1190  C1199   1.398   .     A
C1191  H1216   1.081   .     S
C1191  C1261   1.406   .     S
C1191  C1263   1.395   .     S
C1192  H1314   1.075   .     S
C1193  O1244   1.385   .     S
C1193  C1195   1.391   .     A
C1194  O1256   1.386   .     S
C1194  C1197   1.404   .     A
C1195  C1200   1.407   .     A
C1195  C1198   1.410   .     A
C1196  C1213   1.400   .     S
C1196  O1251   1.292   .     A
C1196  O1323   1.288   .     S
C1197  C1201   1.405   .     A
C1197  C1199   1.412   .     A
C1198  C544    1.390   1_556 S
C1200  C1209   1.428   .     A
C1200  C535    1.401   1_556 S
C1201  C1207   1.422   .     A
C1202  H1236   1.114   .     S
C1202  H1235   1.109   .     S
C1202  O1256   1.410   .     S
C1202  H1234   1.113   .     S
C1203  O1244   1.413   .     S
C1203  H1237   1.113   .     S
C1203  H1239   1.105   .     S
C1203  H1238   1.111   .     S
C1204  H1220   1.099   .     S
C1204  H1221   1.109   .     S
C1204  O1245   1.418   .     S
C1204  H1219   1.118   .     S
C1205  H1223   1.113   .     S
C1205  H1224   1.110   .     S
C1205  H1222   1.112   .     S
C1205  O1246   1.410   .     S
C1206  H1230   1.108   .     S
C1206  H1228   1.106   .     S
C1206  H1229   1.115   .     S
C1206  O1247   1.405   .     S
C1207  C1210   1.393   .     A
C1207  O1245   1.382   .     S
C1208  O1248   1.400   .     S
C1208  H1231   1.113   .     S
C1208  H1233   1.109   .     S
C1208  H1232   1.109   .     S
C1209  C1211   1.397   .     A
C1209  O1246   1.383   .     S
C1210  H1215   1.081   .     S
C1211  H1226   1.084   .     S
C1211  C533    1.393   1_556 S
C1212  C695    1.328   1_565 S
C1212  H781    1.083   1_565 S
C1214  O1254   1.306   .     A
H1217  C1263   1.083   .     S
H1227  C769    1.082   1_565 S
N1241  Zn1258  2.040   .     S
N1241  N1242   1.287   .     D
N1241  O1247   1.344   .     S
N1242  O1248   1.345   .     S
N1242  Zn1257  2.040   .     S
O1243  Zn1257  1.968   .     S
O1243  C1259   1.289   .     S
O1249  Zn1258  1.968   .     S
O1250  Zn1258  1.975   .     S
O1251  Zn1257  1.975   .     S
O1252  Zn1257  1.983   .     S
O1252  C1288   1.304   .     S
O1253  Zn1258  1.983   .     S
O1254  Zn1258  1.968   .     S
O1255  Zn1257  1.968   .     S
C1259  C1286   1.400   .     S
C1259  O1324   1.292   .     A
C1260  C1262   1.454   .     S
C1260  O1329   1.303   .     A
C1260  O1179   1.303   1_655 S
C1261  C1267   1.400   .     A
C1261  C1288   1.460   .     S
C1262  C1266   1.402   .     A
C1262  C1268   1.394   .     A
C1263  C1272   1.401   .     A
C1264  H1292   1.084   .     S
C1264  C1266   1.393   .     A
C1264  C1273   1.398   .     A
C1265  H1290   1.081   .     S
C1265  C1113   1.406   1_655 S
C1265  C1115   1.395   1_655 S
C1266  H1166   1.075   1_655 S
C1267  O1318   1.385   .     S
C1267  C1269   1.391   .     A
C1268  O1330   1.386   .     S
C1268  C1271   1.404   .     A
C1269  C1274   1.407   .     A
C1269  C1272   1.410   .     A
C1270  C1287   1.400   .     S
C1270  O1325   1.292   .     A
C1270  O1175   1.288   1_655 S
C1271  C1275   1.405   .     A
C1271  C1273   1.412   .     A
C1272  C618    1.390   1_556 S
C1274  C1283   1.428   .     A
C1274  C609    1.401   1_556 S
C1275  C1281   1.422   .     A
C1276  H1310   1.114   .     S
C1276  H1309   1.109   .     S
C1276  O1330   1.410   .     S
C1276  H1308   1.113   .     S
C1277  O1318   1.413   .     S
C1277  H1311   1.113   .     S
C1277  H1313   1.105   .     S
C1277  H1312   1.111   .     S
C1278  H1294   1.099   .     S
C1278  H1295   1.109   .     S
C1278  O1319   1.418   .     S
C1278  H1293   1.118   .     S
C1279  H1297   1.113   .     S
C1279  H1298   1.110   .     S
C1279  H1296   1.112   .     S
C1279  O1320   1.410   .     S
C1280  H1304   1.108   .     S
C1280  H1302   1.106   .     S
C1280  H1303   1.115   .     S
C1280  O1321   1.405   .     S
C1281  C1284   1.393   .     A
C1281  O1319   1.382   .     S
C1282  O1322   1.400   .     S
C1282  H1305   1.113   .     S
C1282  H1307   1.109   .     S
C1282  H1306   1.109   .     S
C1283  C1285   1.397   .     A
C1283  O1320   1.383   .     S
C1284  H1289   1.081   .     S
C1285  H1300   1.084   .     S
C1285  C607    1.393   1_556 S
C1286  C769    1.328   1_565 S
C1286  H855    1.083   1_565 S
C1287  C916    1.328   1_655 S
C1288  O1328   1.306   .     A
H1291  C1115   1.083   1_655 S
H1301  C843    1.082   1_565 S
N1315  Zn1332  2.040   .     S
N1315  N1316   1.287   .     D
N1315  O1321   1.344   .     S
N1316  O1322   1.345   .     S
N1316  Zn1331  2.040   .     S
O1317  Zn1331  1.968   .     S
O1317  C1111   1.289   1_655 S
O1323  Zn1332  1.968   .     S
O1324  Zn1332  1.975   .     S
O1325  Zn1331  1.975   .     S
O1326  Zn1331  1.983   .     S
O1326  C1140   1.304   1_655 S
O1327  Zn1332  1.983   .     S
O1328  Zn1332  1.968   .     S
O1329  Zn1331  1.968   .     S
