data_str_m2_o1_o18_pcu_sym.38
_audit_creation_date              2020-01-03
_audit_creation_method            'Materials Studio'
_symmetry_space_group_name_H-M    'P1'
_symmetry_Int_Tables_number       1
_symmetry_cell_setting            triclinic
loop_
_symmetry_equiv_pos_as_xyz
  x,y,z
_cell_length_a                    28.6751
_cell_length_b                    32.5390
_cell_length_c                    31.0864
_cell_angle_alpha                 90.2159
_cell_angle_beta                  74.0296
_cell_angle_gamma                 90.4613
loop_
_atom_site_label
_atom_site_type_symbol
_atom_site_fract_x
_atom_site_fract_y
_atom_site_fract_z
_atom_site_U_iso_or_equiv
_atom_site_adp_type
_atom_site_occupancy
C1     C     0.33263   0.08746   0.25172   0.00000  Uiso   1.00
C2     C     0.04188   0.02225   0.25066   0.00000  Uiso   1.00
C3     C     0.33305   0.29063   0.25489   0.00000  Uiso   1.00
C4     C     0.33148   0.04290   0.25544   0.00000  Uiso   1.00
C5     C     0.18002   0.15578   0.28731   0.00000  Uiso   1.00
C6     C     0.15326   0.17802   0.21275   0.00000  Uiso   1.00
C7     C     0.13074   0.15554   0.28717   0.00000  Uiso   1.00
C8     C     0.20267   0.17804   0.21279   0.00000  Uiso   1.00
C9     C     0.30592   0.16494   0.33597   0.00000  Uiso   1.00
C10    C     0.02731   0.16534   0.16408   0.00000  Uiso   1.00
C11    C     0.29051   0.16174   0.38505   0.00000  Uiso   1.00
C12    C     0.33324   0.24595   0.25142   0.00000  Uiso   1.00
C13    C     0.04249   0.15915   0.11546   0.00000  Uiso   1.00
C14    C     0.30860   0.16335   0.45645   0.00000  Uiso   1.00
C15    C     0.02935   0.13205   0.04706   0.00000  Uiso   1.00
C16    C     0.32364   0.15548   0.41057   0.00000  Uiso   1.00
C17    C     0.01177   0.14009   0.09284   0.00000  Uiso   1.00
C18    C     0.24105   0.16480   0.40723   0.00000  Uiso   1.00
C19    C     0.09061   0.16828   0.09244   0.00000  Uiso   1.00
C20    C     0.22460   0.16318   0.45408   0.00000  Uiso   1.00
C21    C     0.10957   0.15801   0.04716   0.00000  Uiso   1.00
C22    C     0.25923   0.16675   0.47855   0.00000  Uiso   1.00
C23    C     0.19505   0.17045   0.04744   0.00000  Uiso   1.00
C24    C     0.07750   0.14153   0.02404   0.00000  Uiso   1.00
C25    C     0.17496   0.15779   0.47711   0.00000  Uiso   1.00
C26    C     0.15957   0.16306   0.02435   0.00000  Uiso   1.00
C27    C     0.29307   0.08810   0.12350   0.00000  Uiso   1.00
C28    C     0.24314   0.07901   0.15545   0.00000  Uiso   1.00
C29    C     0.23532   0.03301   0.16422   0.00000  Uiso   1.00
C30    C     0.03521   0.09924   0.37751   0.00000  Uiso   1.00
C31    C     0.00844   0.06897   0.41430   0.00000  Uiso   1.00
C32    C     0.01409   0.02477   0.39709   0.00000  Uiso   1.00
C33    C     0.22994   0.05192   0.32084   0.00000  Uiso   1.00
C34    C     0.14123   0.14362   0.45477   0.00000  Uiso   1.00
C35    C     0.19562   0.02031   0.34968   0.00000  Uiso   1.00
C36    C     0.17821   0.03429   0.39834   0.00000  Uiso   1.00
C37    C     0.09055   0.29004   0.29423   0.00000  Uiso   1.00
C38    C     0.13967   0.27119   0.29241   0.00000  Uiso   1.00
C39    C     0.14150   0.25573   0.33824   0.00000  Uiso   1.00
C40    C     0.24413   0.17129   0.02487   0.00000  Uiso   1.00
C41    C     0.09392   0.13429   0.47824   0.00000  Uiso   1.00
C42    C     0.28748   0.02054   0.26475   0.00000  Uiso   1.00
C43    C     0.04270   0.31310   0.25254   0.00000  Uiso   1.00
C44    C     0.28893   0.31132   0.26201   0.00000  Uiso   1.00
Cu45   Cu    0.04689   0.16667   0.25000   0.00000  Uiso   1.00
Cu46   Cu    0.28645   0.16666   0.25000   0.00000  Uiso   1.00
H47    H     0.27040   0.17475   0.04391   0.00000  Uiso   1.00
H48    H     0.07581   0.03890   0.24585   0.00000  Uiso   1.00
H49    H     0.18878   0.14770   0.31775   0.00000  Uiso   1.00
H50    H     0.14417   0.18768   0.18288   0.00000  Uiso   1.00
H51    H     0.10349   0.14697   0.31714   0.00000  Uiso   1.00
H52    H     0.23002   0.18743   0.18293   0.00000  Uiso   1.00
H53    H     0.32119   0.07729   0.13947   0.00000  Uiso   1.00
H54    H     0.29663   0.07094   0.09170   0.00000  Uiso   1.00
H55    H     0.23987   0.09502   0.18775   0.00000  Uiso   1.00
H56    H     0.21447   0.09076   0.14093   0.00000  Uiso   1.00
H57    H     0.23603   0.01654   0.13269   0.00000  Uiso   1.00
H58    H     0.07011   0.12136   0.46025   0.00000  Uiso   1.00
H59    H     0.19950   0.02762   0.18873   0.00000  Uiso   1.00
H60    H     0.26401   0.02048   0.17813   0.00000  Uiso   1.00
H61    H     0.07335   0.08881   0.36475   0.00000  Uiso   1.00
H62    H     0.01931   0.09718   0.34880   0.00000  Uiso   1.00
H63    H     0.02298   0.07132   0.44377   0.00000  Uiso   1.00
H64    H     0.30244   0.07615   0.42516   0.00000  Uiso   1.00
H65    H     0.00014   0.02149   0.36723   0.00000  Uiso   1.00
H66    H     0.32651   0.00373   0.42360   0.00000  Uiso   1.00
H67    H     0.05286   0.01576   0.38814   0.00000  Uiso   1.00
H68    H     0.21042   0.08140   0.32340   0.00000  Uiso   1.00
H69    H     0.11256   0.18406   0.11050   0.00000  Uiso   1.00
H70    H     0.26158   0.05779   0.33454   0.00000  Uiso   1.00
H71    H     0.16359   0.01610   0.33653   0.00000  Uiso   1.00
H72    H     0.21453   0.32378   0.34811   0.00000  Uiso   1.00
H73    H     0.20957   0.03975   0.41217   0.00000  Uiso   1.00
H74    H     0.15453   0.01014   0.41855   0.00000  Uiso   1.00
H75    H     0.15690   0.06297   0.40084   0.00000  Uiso   1.00
H76    H     0.06112   0.26972   0.31434   0.00000  Uiso   1.00
H77    H     0.08845   0.32053   0.31111   0.00000  Uiso   1.00
H78    H     0.14677   0.24510   0.26861   0.00000  Uiso   1.00
H79    H     0.16860   0.29456   0.27993   0.00000  Uiso   1.00
H80    H     0.21564   0.16904   0.38770   0.00000  Uiso   1.00
H81    H     0.13203   0.28066   0.36354   0.00000  Uiso   1.00
H82    H     0.17861   0.24473   0.33621   0.00000  Uiso   1.00
H83    H     0.11556   0.22979   0.34916   0.00000  Uiso   1.00
H84    H     0.00183   0.16407   0.47511   0.00000  Uiso   1.00
H85    H     0.00538   0.11775   0.02979   0.00000  Uiso   1.00
H86    H     0.18634   0.17264   0.08339   0.00000  Uiso   1.00
H87    H     0.15134   0.13664   0.41947   0.00000  Uiso   1.00
H88    H     0.25520   0.29452   0.26653   0.00000  Uiso   1.00
N89    N     0.11736   0.16668   0.24999   0.00000  Uiso   1.00
N90    N     0.21597   0.16666   0.25001   0.00000  Uiso   1.00
O91    O     0.03958   0.10655   0.25000   0.00000  Uiso   1.00
O92    O     0.03672   0.14059   0.39249   0.00000  Uiso   1.00
O93    O     0.24285   0.03969   0.27527   0.00000  Uiso   1.00
O94    O     0.08629   0.29414   0.25019   0.00000  Uiso   1.00
O95    O     0.29375   0.22678   0.25000   0.00000  Uiso   1.00
O96    O     0.29372   0.10654   0.25001   0.00000  Uiso   1.00
O97    O     0.03961   0.22679   0.24999   0.00000  Uiso   1.00
O98    O     0.01852   0.16668   0.31491   0.00000  Uiso   1.00
O99    O     0.31481   0.16666   0.18508   0.00000  Uiso   1.00
O100   O     0.27267   0.16667   0.31492   0.00000  Uiso   1.00
O101   O     0.06067   0.16667   0.18508   0.00000  Uiso   1.00
O102   O     0.29740   0.13078   0.11505   0.00000  Uiso   1.00
C103   C     0.66596   0.08746   0.25172   0.00000  Uiso   1.00
C104   C     0.37521   0.02225   0.25066   0.00000  Uiso   1.00
C105   C     0.66638   0.29063   0.25489   0.00000  Uiso   1.00
C106   C     0.66482   0.04290   0.25544   0.00000  Uiso   1.00
C107   C     0.51335   0.15578   0.28731   0.00000  Uiso   1.00
C108   C     0.48659   0.17802   0.21275   0.00000  Uiso   1.00
C109   C     0.46407   0.15554   0.28717   0.00000  Uiso   1.00
C110   C     0.53600   0.17804   0.21279   0.00000  Uiso   1.00
C111   C     0.63925   0.16494   0.33597   0.00000  Uiso   1.00
C112   C     0.36064   0.16534   0.16408   0.00000  Uiso   1.00
C113   C     0.62385   0.16174   0.38505   0.00000  Uiso   1.00
C114   C     0.66657   0.24595   0.25142   0.00000  Uiso   1.00
C115   C     0.37582   0.15915   0.11546   0.00000  Uiso   1.00
C116   C     0.64193   0.16335   0.45645   0.00000  Uiso   1.00
C117   C     0.36268   0.13205   0.04706   0.00000  Uiso   1.00
C118   C     0.65697   0.15548   0.41057   0.00000  Uiso   1.00
C119   C     0.34510   0.14009   0.09284   0.00000  Uiso   1.00
C120   C     0.57438   0.16480   0.40723   0.00000  Uiso   1.00
C121   C     0.42394   0.16828   0.09244   0.00000  Uiso   1.00
C122   C     0.55793   0.16318   0.45408   0.00000  Uiso   1.00
C123   C     0.44291   0.15801   0.04716   0.00000  Uiso   1.00
C124   C     0.59257   0.16675   0.47855   0.00000  Uiso   1.00
C125   C     0.52839   0.17045   0.04744   0.00000  Uiso   1.00
C126   C     0.41083   0.14153   0.02404   0.00000  Uiso   1.00
C127   C     0.50830   0.15779   0.47711   0.00000  Uiso   1.00
C128   C     0.49290   0.16306   0.02435   0.00000  Uiso   1.00
C129   C     0.62640   0.08810   0.12350   0.00000  Uiso   1.00
C130   C     0.57647   0.07901   0.15545   0.00000  Uiso   1.00
C131   C     0.56865   0.03301   0.16422   0.00000  Uiso   1.00
C132   C     0.36854   0.09924   0.37751   0.00000  Uiso   1.00
C133   C     0.34178   0.06897   0.41430   0.00000  Uiso   1.00
C134   C     0.34742   0.02477   0.39709   0.00000  Uiso   1.00
C135   C     0.56327   0.05192   0.32084   0.00000  Uiso   1.00
C136   C     0.47456   0.14362   0.45477   0.00000  Uiso   1.00
C137   C     0.52895   0.02031   0.34968   0.00000  Uiso   1.00
C138   C     0.51154   0.03429   0.39834   0.00000  Uiso   1.00
C139   C     0.42388   0.29004   0.29423   0.00000  Uiso   1.00
C140   C     0.47300   0.27119   0.29241   0.00000  Uiso   1.00
C141   C     0.47483   0.25573   0.33824   0.00000  Uiso   1.00
C142   C     0.57746   0.17129   0.02487   0.00000  Uiso   1.00
C143   C     0.42726   0.13429   0.47824   0.00000  Uiso   1.00
C144   C     0.62082   0.02054   0.26475   0.00000  Uiso   1.00
C145   C     0.37604   0.31310   0.25254   0.00000  Uiso   1.00
C146   C     0.62226   0.31132   0.26201   0.00000  Uiso   1.00
Cu147  Cu    0.38022   0.16667   0.25000   0.00000  Uiso   1.00
Cu148  Cu    0.61978   0.16666   0.25000   0.00000  Uiso   1.00
H149   H     0.60373   0.17475   0.04391   0.00000  Uiso   1.00
H150   H     0.40915   0.03890   0.24585   0.00000  Uiso   1.00
H151   H     0.52212   0.14770   0.31775   0.00000  Uiso   1.00
H152   H     0.47750   0.18768   0.18288   0.00000  Uiso   1.00
H153   H     0.43682   0.14697   0.31714   0.00000  Uiso   1.00
H154   H     0.56335   0.18743   0.18293   0.00000  Uiso   1.00
H155   H     0.65453   0.07729   0.13947   0.00000  Uiso   1.00
H156   H     0.62997   0.07094   0.09170   0.00000  Uiso   1.00
H157   H     0.57320   0.09502   0.18775   0.00000  Uiso   1.00
H158   H     0.54780   0.09076   0.14093   0.00000  Uiso   1.00
H159   H     0.56936   0.01654   0.13269   0.00000  Uiso   1.00
H160   H     0.40344   0.12136   0.46025   0.00000  Uiso   1.00
H161   H     0.53284   0.02762   0.18873   0.00000  Uiso   1.00
H162   H     0.59734   0.02048   0.17813   0.00000  Uiso   1.00
H163   H     0.40668   0.08881   0.36475   0.00000  Uiso   1.00
H164   H     0.35264   0.09718   0.34880   0.00000  Uiso   1.00
H165   H     0.35632   0.07132   0.44377   0.00000  Uiso   1.00
H166   H     0.63577   0.07615   0.42516   0.00000  Uiso   1.00
H167   H     0.33347   0.02149   0.36723   0.00000  Uiso   1.00
H168   H     0.65985   0.00373   0.42360   0.00000  Uiso   1.00
H169   H     0.38620   0.01576   0.38814   0.00000  Uiso   1.00
H170   H     0.54375   0.08140   0.32340   0.00000  Uiso   1.00
H171   H     0.44589   0.18406   0.11050   0.00000  Uiso   1.00
H172   H     0.59491   0.05779   0.33454   0.00000  Uiso   1.00
H173   H     0.49692   0.01610   0.33653   0.00000  Uiso   1.00
H174   H     0.54786   0.32378   0.34811   0.00000  Uiso   1.00
H175   H     0.54291   0.03975   0.41217   0.00000  Uiso   1.00
H176   H     0.48787   0.01014   0.41855   0.00000  Uiso   1.00
H177   H     0.49024   0.06297   0.40084   0.00000  Uiso   1.00
H178   H     0.39446   0.26972   0.31434   0.00000  Uiso   1.00
H179   H     0.42179   0.32053   0.31111   0.00000  Uiso   1.00
H180   H     0.48010   0.24510   0.26861   0.00000  Uiso   1.00
H181   H     0.50193   0.29456   0.27993   0.00000  Uiso   1.00
H182   H     0.54897   0.16904   0.38770   0.00000  Uiso   1.00
H183   H     0.46537   0.28066   0.36354   0.00000  Uiso   1.00
H184   H     0.51194   0.24473   0.33621   0.00000  Uiso   1.00
H185   H     0.44889   0.22979   0.34916   0.00000  Uiso   1.00
H186   H     0.33516   0.16407   0.47511   0.00000  Uiso   1.00
H187   H     0.33871   0.11775   0.02979   0.00000  Uiso   1.00
H188   H     0.51968   0.17264   0.08339   0.00000  Uiso   1.00
H189   H     0.48467   0.13664   0.41947   0.00000  Uiso   1.00
H190   H     0.58854   0.29452   0.26653   0.00000  Uiso   1.00
N191   N     0.45069   0.16668   0.24999   0.00000  Uiso   1.00
N192   N     0.54931   0.16666   0.25001   0.00000  Uiso   1.00
O193   O     0.37291   0.10655   0.25000   0.00000  Uiso   1.00
O194   O     0.37005   0.14059   0.39249   0.00000  Uiso   1.00
O195   O     0.57619   0.03969   0.27527   0.00000  Uiso   1.00
O196   O     0.41963   0.29414   0.25019   0.00000  Uiso   1.00
O197   O     0.62709   0.22678   0.25000   0.00000  Uiso   1.00
O198   O     0.62706   0.10654   0.25001   0.00000  Uiso   1.00
O199   O     0.37294   0.22679   0.24999   0.00000  Uiso   1.00
O200   O     0.35186   0.16668   0.31491   0.00000  Uiso   1.00
O201   O     0.64814   0.16666   0.18508   0.00000  Uiso   1.00
O202   O     0.60600   0.16667   0.31492   0.00000  Uiso   1.00
O203   O     0.39400   0.16667   0.18508   0.00000  Uiso   1.00
O204   O     0.63074   0.13078   0.11505   0.00000  Uiso   1.00
C205   C     0.99929   0.08746   0.25172   0.00000  Uiso   1.00
C206   C     0.70855   0.02225   0.25066   0.00000  Uiso   1.00
C207   C     0.99972   0.29063   0.25489   0.00000  Uiso   1.00
C208   C     0.99815   0.04290   0.25544   0.00000  Uiso   1.00
C209   C     0.84668   0.15578   0.28731   0.00000  Uiso   1.00
C210   C     0.81992   0.17802   0.21275   0.00000  Uiso   1.00
C211   C     0.79740   0.15554   0.28717   0.00000  Uiso   1.00
C212   C     0.86933   0.17804   0.21279   0.00000  Uiso   1.00
C213   C     0.97258   0.16494   0.33597   0.00000  Uiso   1.00
C214   C     0.69398   0.16534   0.16408   0.00000  Uiso   1.00
C215   C     0.95718   0.16174   0.38505   0.00000  Uiso   1.00
C216   C     0.99991   0.24595   0.25142   0.00000  Uiso   1.00
C217   C     0.70915   0.15915   0.11546   0.00000  Uiso   1.00
C218   C     0.97527   0.16335   0.45645   0.00000  Uiso   1.00
C219   C     0.69602   0.13205   0.04706   0.00000  Uiso   1.00
C220   C     0.99031   0.15548   0.41057   0.00000  Uiso   1.00
C221   C     0.67844   0.14009   0.09284   0.00000  Uiso   1.00
C222   C     0.90772   0.16480   0.40723   0.00000  Uiso   1.00
C223   C     0.75727   0.16828   0.09244   0.00000  Uiso   1.00
C224   C     0.89127   0.16318   0.45408   0.00000  Uiso   1.00
C225   C     0.77624   0.15801   0.04716   0.00000  Uiso   1.00
C226   C     0.92590   0.16675   0.47855   0.00000  Uiso   1.00
C227   C     0.86172   0.17045   0.04744   0.00000  Uiso   1.00
C228   C     0.74416   0.14153   0.02404   0.00000  Uiso   1.00
C229   C     0.84163   0.15779   0.47711   0.00000  Uiso   1.00
C230   C     0.82623   0.16306   0.02435   0.00000  Uiso   1.00
C231   C     0.95974   0.08810   0.12350   0.00000  Uiso   1.00
C232   C     0.90981   0.07901   0.15545   0.00000  Uiso   1.00
C233   C     0.90199   0.03301   0.16422   0.00000  Uiso   1.00
C234   C     0.70188   0.09924   0.37751   0.00000  Uiso   1.00
C235   C     0.67511   0.06897   0.41430   0.00000  Uiso   1.00
C236   C     0.68075   0.02477   0.39709   0.00000  Uiso   1.00
C237   C     0.89660   0.05192   0.32084   0.00000  Uiso   1.00
C238   C     0.80790   0.14362   0.45477   0.00000  Uiso   1.00
C239   C     0.86228   0.02031   0.34968   0.00000  Uiso   1.00
C240   C     0.84487   0.03429   0.39834   0.00000  Uiso   1.00
C241   C     0.75722   0.29004   0.29423   0.00000  Uiso   1.00
C242   C     0.80634   0.27119   0.29241   0.00000  Uiso   1.00
C243   C     0.80816   0.25573   0.33824   0.00000  Uiso   1.00
C244   C     0.91080   0.17129   0.02487   0.00000  Uiso   1.00
C245   C     0.76059   0.13429   0.47824   0.00000  Uiso   1.00
C246   C     0.95415   0.02054   0.26475   0.00000  Uiso   1.00
C247   C     0.70937   0.31310   0.25254   0.00000  Uiso   1.00
C248   C     0.95559   0.31132   0.26201   0.00000  Uiso   1.00
Cu249  Cu    0.71355   0.16667   0.25000   0.00000  Uiso   1.00
Cu250  Cu    0.95311   0.16666   0.25000   0.00000  Uiso   1.00
H251   H     0.93706   0.17475   0.04391   0.00000  Uiso   1.00
H252   H     0.74248   0.03890   0.24585   0.00000  Uiso   1.00
H253   H     0.85545   0.14770   0.31775   0.00000  Uiso   1.00
H254   H     0.81084   0.18768   0.18288   0.00000  Uiso   1.00
H255   H     0.77015   0.14697   0.31714   0.00000  Uiso   1.00
H256   H     0.89669   0.18743   0.18293   0.00000  Uiso   1.00
H257   H     0.98786   0.07729   0.13947   0.00000  Uiso   1.00
H258   H     0.96330   0.07094   0.09170   0.00000  Uiso   1.00
H259   H     0.90654   0.09502   0.18775   0.00000  Uiso   1.00
H260   H     0.88113   0.09076   0.14093   0.00000  Uiso   1.00
H261   H     0.90270   0.01654   0.13269   0.00000  Uiso   1.00
H262   H     0.73678   0.12136   0.46025   0.00000  Uiso   1.00
H263   H     0.86617   0.02762   0.18873   0.00000  Uiso   1.00
H264   H     0.93068   0.02048   0.17813   0.00000  Uiso   1.00
H265   H     0.74001   0.08881   0.36475   0.00000  Uiso   1.00
H266   H     0.68597   0.09718   0.34880   0.00000  Uiso   1.00
H267   H     0.68965   0.07132   0.44377   0.00000  Uiso   1.00
H268   H     0.96910   0.07615   0.42516   0.00000  Uiso   1.00
H269   H     0.66681   0.02149   0.36723   0.00000  Uiso   1.00
H270   H     0.99318   0.00373   0.42360   0.00000  Uiso   1.00
H271   H     0.71953   0.01576   0.38814   0.00000  Uiso   1.00
H272   H     0.87709   0.08140   0.32340   0.00000  Uiso   1.00
H273   H     0.77922   0.18406   0.11050   0.00000  Uiso   1.00
H274   H     0.92824   0.05779   0.33454   0.00000  Uiso   1.00
H275   H     0.83026   0.01610   0.33653   0.00000  Uiso   1.00
H276   H     0.88120   0.32378   0.34811   0.00000  Uiso   1.00
H277   H     0.87624   0.03975   0.41217   0.00000  Uiso   1.00
H278   H     0.82120   0.01014   0.41855   0.00000  Uiso   1.00
H279   H     0.82357   0.06297   0.40084   0.00000  Uiso   1.00
H280   H     0.72779   0.26972   0.31434   0.00000  Uiso   1.00
H281   H     0.75512   0.32053   0.31111   0.00000  Uiso   1.00
H282   H     0.81344   0.24510   0.26861   0.00000  Uiso   1.00
H283   H     0.83527   0.29456   0.27993   0.00000  Uiso   1.00
H284   H     0.88231   0.16904   0.38770   0.00000  Uiso   1.00
H285   H     0.79870   0.28066   0.36354   0.00000  Uiso   1.00
H286   H     0.84528   0.24473   0.33621   0.00000  Uiso   1.00
H287   H     0.78223   0.22979   0.34916   0.00000  Uiso   1.00
H288   H     0.66849   0.16407   0.47511   0.00000  Uiso   1.00
H289   H     0.67204   0.11775   0.02979   0.00000  Uiso   1.00
H290   H     0.85301   0.17264   0.08339   0.00000  Uiso   1.00
H291   H     0.81800   0.13664   0.41947   0.00000  Uiso   1.00
H292   H     0.92187   0.29452   0.26653   0.00000  Uiso   1.00
N293   N     0.78403   0.16668   0.24999   0.00000  Uiso   1.00
N294   N     0.88264   0.16666   0.25001   0.00000  Uiso   1.00
O295   O     0.70625   0.10655   0.25000   0.00000  Uiso   1.00
O296   O     0.70338   0.14059   0.39249   0.00000  Uiso   1.00
O297   O     0.90952   0.03969   0.27527   0.00000  Uiso   1.00
O298   O     0.75296   0.29414   0.25019   0.00000  Uiso   1.00
O299   O     0.96042   0.22678   0.25000   0.00000  Uiso   1.00
O300   O     0.96039   0.10654   0.25001   0.00000  Uiso   1.00
O301   O     0.70628   0.22679   0.24999   0.00000  Uiso   1.00
O302   O     0.68519   0.16668   0.31491   0.00000  Uiso   1.00
O303   O     0.98148   0.16666   0.18508   0.00000  Uiso   1.00
O304   O     0.93933   0.16667   0.31492   0.00000  Uiso   1.00
O305   O     0.72733   0.16667   0.18508   0.00000  Uiso   1.00
O306   O     0.96407   0.13078   0.11505   0.00000  Uiso   1.00
C307   C     0.33263   0.42079   0.25172   0.00000  Uiso   1.00
C308   C     0.04188   0.35559   0.25066   0.00000  Uiso   1.00
C309   C     0.33305   0.62397   0.25489   0.00000  Uiso   1.00
C310   C     0.33148   0.37623   0.25544   0.00000  Uiso   1.00
C311   C     0.18002   0.48912   0.28731   0.00000  Uiso   1.00
C312   C     0.15326   0.51136   0.21275   0.00000  Uiso   1.00
C313   C     0.13074   0.48888   0.28717   0.00000  Uiso   1.00
C314   C     0.20267   0.51137   0.21279   0.00000  Uiso   1.00
C315   C     0.30592   0.49828   0.33597   0.00000  Uiso   1.00
C316   C     0.02731   0.49867   0.16408   0.00000  Uiso   1.00
C317   C     0.29051   0.49507   0.38505   0.00000  Uiso   1.00
C318   C     0.33324   0.57929   0.25142   0.00000  Uiso   1.00
C319   C     0.04249   0.49248   0.11546   0.00000  Uiso   1.00
C320   C     0.30860   0.49669   0.45645   0.00000  Uiso   1.00
C321   C     0.02935   0.46538   0.04706   0.00000  Uiso   1.00
C322   C     0.32364   0.48881   0.41057   0.00000  Uiso   1.00
C323   C     0.01177   0.47342   0.09284   0.00000  Uiso   1.00
C324   C     0.24105   0.49813   0.40723   0.00000  Uiso   1.00
C325   C     0.09061   0.50162   0.09244   0.00000  Uiso   1.00
C326   C     0.22460   0.49651   0.45408   0.00000  Uiso   1.00
C327   C     0.10957   0.49135   0.04716   0.00000  Uiso   1.00
C328   C     0.25923   0.50008   0.47855   0.00000  Uiso   1.00
C329   C     0.19505   0.50378   0.04744   0.00000  Uiso   1.00
C330   C     0.07750   0.47487   0.02404   0.00000  Uiso   1.00
C331   C     0.17496   0.49113   0.47711   0.00000  Uiso   1.00
C332   C     0.15957   0.49639   0.02435   0.00000  Uiso   1.00
C333   C     0.29307   0.42143   0.12350   0.00000  Uiso   1.00
C334   C     0.24314   0.41235   0.15545   0.00000  Uiso   1.00
C335   C     0.23532   0.36635   0.16422   0.00000  Uiso   1.00
C336   C     0.03521   0.43257   0.37751   0.00000  Uiso   1.00
C337   C     0.00844   0.40230   0.41430   0.00000  Uiso   1.00
C338   C     0.01409   0.35811   0.39709   0.00000  Uiso   1.00
C339   C     0.22994   0.38525   0.32084   0.00000  Uiso   1.00
C340   C     0.14123   0.47695   0.45477   0.00000  Uiso   1.00
C341   C     0.19562   0.35365   0.34968   0.00000  Uiso   1.00
C342   C     0.17821   0.36762   0.39834   0.00000  Uiso   1.00
C343   C     0.09055   0.62337   0.29423   0.00000  Uiso   1.00
C344   C     0.13967   0.60452   0.29241   0.00000  Uiso   1.00
C345   C     0.14150   0.58906   0.33824   0.00000  Uiso   1.00
C346   C     0.24413   0.50463   0.02487   0.00000  Uiso   1.00
C347   C     0.09392   0.46762   0.47824   0.00000  Uiso   1.00
C348   C     0.28748   0.35387   0.26475   0.00000  Uiso   1.00
C349   C     0.04270   0.64643   0.25254   0.00000  Uiso   1.00
C350   C     0.28893   0.64466   0.26201   0.00000  Uiso   1.00
Cu351  Cu    0.04689   0.50001   0.25000   0.00000  Uiso   1.00
Cu352  Cu    0.28645   0.49999   0.25000   0.00000  Uiso   1.00
H353   H     0.27040   0.50808   0.04391   0.00000  Uiso   1.00
H354   H     0.07581   0.37223   0.24585   0.00000  Uiso   1.00
H355   H     0.18878   0.48104   0.31775   0.00000  Uiso   1.00
H356   H     0.14417   0.52102   0.18288   0.00000  Uiso   1.00
H357   H     0.10349   0.48030   0.31714   0.00000  Uiso   1.00
H358   H     0.23002   0.52076   0.18293   0.00000  Uiso   1.00
H359   H     0.32119   0.41063   0.13947   0.00000  Uiso   1.00
H360   H     0.29663   0.40428   0.09170   0.00000  Uiso   1.00
H361   H     0.23987   0.42836   0.18775   0.00000  Uiso   1.00
H362   H     0.21447   0.42410   0.14093   0.00000  Uiso   1.00
H363   H     0.23603   0.34987   0.13269   0.00000  Uiso   1.00
H364   H     0.07011   0.45469   0.46025   0.00000  Uiso   1.00
H365   H     0.19950   0.36096   0.18873   0.00000  Uiso   1.00
H366   H     0.26401   0.35381   0.17813   0.00000  Uiso   1.00
H367   H     0.07335   0.42215   0.36475   0.00000  Uiso   1.00
H368   H     0.01931   0.43051   0.34880   0.00000  Uiso   1.00
H369   H     0.02298   0.40466   0.44377   0.00000  Uiso   1.00
H370   H     0.30244   0.40948   0.42516   0.00000  Uiso   1.00
H371   H     0.00014   0.35483   0.36723   0.00000  Uiso   1.00
H372   H     0.32651   0.33707   0.42360   0.00000  Uiso   1.00
H373   H     0.05286   0.34910   0.38814   0.00000  Uiso   1.00
H374   H     0.21042   0.41473   0.32340   0.00000  Uiso   1.00
H375   H     0.11256   0.51739   0.11050   0.00000  Uiso   1.00
H376   H     0.26158   0.39113   0.33454   0.00000  Uiso   1.00
H377   H     0.16359   0.34943   0.33653   0.00000  Uiso   1.00
H378   H     0.21453   0.65712   0.34811   0.00000  Uiso   1.00
H379   H     0.20957   0.37308   0.41217   0.00000  Uiso   1.00
H380   H     0.15453   0.34347   0.41855   0.00000  Uiso   1.00
H381   H     0.15690   0.39630   0.40084   0.00000  Uiso   1.00
H382   H     0.06112   0.60306   0.31434   0.00000  Uiso   1.00
H383   H     0.08845   0.65386   0.31111   0.00000  Uiso   1.00
H384   H     0.14677   0.57843   0.26861   0.00000  Uiso   1.00
H385   H     0.16860   0.62790   0.27993   0.00000  Uiso   1.00
H386   H     0.21564   0.50237   0.38770   0.00000  Uiso   1.00
H387   H     0.13203   0.61399   0.36354   0.00000  Uiso   1.00
H388   H     0.17861   0.57807   0.33621   0.00000  Uiso   1.00
H389   H     0.11556   0.56312   0.34916   0.00000  Uiso   1.00
H390   H     0.00183   0.49741   0.47511   0.00000  Uiso   1.00
H391   H     0.00538   0.45108   0.02979   0.00000  Uiso   1.00
H392   H     0.18634   0.50597   0.08339   0.00000  Uiso   1.00
H393   H     0.15134   0.46997   0.41947   0.00000  Uiso   1.00
H394   H     0.25520   0.62786   0.26653   0.00000  Uiso   1.00
N395   N     0.11736   0.50001   0.24999   0.00000  Uiso   1.00
N396   N     0.21597   0.49999   0.25001   0.00000  Uiso   1.00
O397   O     0.03958   0.43989   0.25000   0.00000  Uiso   1.00
O398   O     0.03672   0.47392   0.39249   0.00000  Uiso   1.00
O399   O     0.24285   0.37302   0.27527   0.00000  Uiso   1.00
O400   O     0.08629   0.62748   0.25019   0.00000  Uiso   1.00
O401   O     0.29375   0.56011   0.25000   0.00000  Uiso   1.00
O402   O     0.29372   0.43988   0.25001   0.00000  Uiso   1.00
O403   O     0.03961   0.56012   0.24999   0.00000  Uiso   1.00
O404   O     0.01852   0.50001   0.31491   0.00000  Uiso   1.00
O405   O     0.31481   0.49999   0.18508   0.00000  Uiso   1.00
O406   O     0.27267   0.50000   0.31492   0.00000  Uiso   1.00
O407   O     0.06067   0.50000   0.18508   0.00000  Uiso   1.00
O408   O     0.29740   0.46411   0.11505   0.00000  Uiso   1.00
C409   C     0.66596   0.42079   0.25172   0.00000  Uiso   1.00
C410   C     0.37521   0.35559   0.25066   0.00000  Uiso   1.00
C411   C     0.66638   0.62397   0.25489   0.00000  Uiso   1.00
C412   C     0.66482   0.37623   0.25544   0.00000  Uiso   1.00
C413   C     0.51335   0.48912   0.28731   0.00000  Uiso   1.00
C414   C     0.48659   0.51136   0.21275   0.00000  Uiso   1.00
C415   C     0.46407   0.48888   0.28717   0.00000  Uiso   1.00
C416   C     0.53600   0.51137   0.21279   0.00000  Uiso   1.00
C417   C     0.63925   0.49828   0.33597   0.00000  Uiso   1.00
C418   C     0.36064   0.49867   0.16408   0.00000  Uiso   1.00
C419   C     0.62385   0.49507   0.38505   0.00000  Uiso   1.00
C420   C     0.66657   0.57929   0.25142   0.00000  Uiso   1.00
C421   C     0.37582   0.49248   0.11546   0.00000  Uiso   1.00
C422   C     0.64193   0.49669   0.45645   0.00000  Uiso   1.00
C423   C     0.36268   0.46538   0.04706   0.00000  Uiso   1.00
C424   C     0.65697   0.48881   0.41057   0.00000  Uiso   1.00
C425   C     0.34510   0.47342   0.09284   0.00000  Uiso   1.00
C426   C     0.57438   0.49813   0.40723   0.00000  Uiso   1.00
C427   C     0.42394   0.50162   0.09244   0.00000  Uiso   1.00
C428   C     0.55793   0.49651   0.45408   0.00000  Uiso   1.00
C429   C     0.44291   0.49135   0.04716   0.00000  Uiso   1.00
C430   C     0.59257   0.50008   0.47855   0.00000  Uiso   1.00
C431   C     0.52839   0.50378   0.04744   0.00000  Uiso   1.00
C432   C     0.41083   0.47487   0.02404   0.00000  Uiso   1.00
C433   C     0.50830   0.49113   0.47711   0.00000  Uiso   1.00
C434   C     0.49290   0.49639   0.02435   0.00000  Uiso   1.00
C435   C     0.62640   0.42143   0.12350   0.00000  Uiso   1.00
C436   C     0.57647   0.41235   0.15545   0.00000  Uiso   1.00
C437   C     0.56865   0.36635   0.16422   0.00000  Uiso   1.00
C438   C     0.36854   0.43257   0.37751   0.00000  Uiso   1.00
C439   C     0.34178   0.40230   0.41430   0.00000  Uiso   1.00
C440   C     0.34742   0.35811   0.39709   0.00000  Uiso   1.00
C441   C     0.56327   0.38525   0.32084   0.00000  Uiso   1.00
C442   C     0.47456   0.47695   0.45477   0.00000  Uiso   1.00
C443   C     0.52895   0.35365   0.34968   0.00000  Uiso   1.00
C444   C     0.51154   0.36762   0.39834   0.00000  Uiso   1.00
C445   C     0.42388   0.62337   0.29423   0.00000  Uiso   1.00
C446   C     0.47300   0.60452   0.29241   0.00000  Uiso   1.00
C447   C     0.47483   0.58906   0.33824   0.00000  Uiso   1.00
C448   C     0.57746   0.50463   0.02487   0.00000  Uiso   1.00
C449   C     0.42726   0.46762   0.47824   0.00000  Uiso   1.00
C450   C     0.62082   0.35387   0.26475   0.00000  Uiso   1.00
C451   C     0.37604   0.64643   0.25254   0.00000  Uiso   1.00
C452   C     0.62226   0.64466   0.26201   0.00000  Uiso   1.00
Cu453  Cu    0.38022   0.50001   0.25000   0.00000  Uiso   1.00
Cu454  Cu    0.61978   0.49999   0.25000   0.00000  Uiso   1.00
H455   H     0.60373   0.50808   0.04391   0.00000  Uiso   1.00
H456   H     0.40915   0.37223   0.24585   0.00000  Uiso   1.00
H457   H     0.52212   0.48104   0.31775   0.00000  Uiso   1.00
H458   H     0.47750   0.52102   0.18288   0.00000  Uiso   1.00
H459   H     0.43682   0.48030   0.31714   0.00000  Uiso   1.00
H460   H     0.56335   0.52076   0.18293   0.00000  Uiso   1.00
H461   H     0.65453   0.41063   0.13947   0.00000  Uiso   1.00
H462   H     0.62997   0.40428   0.09170   0.00000  Uiso   1.00
H463   H     0.57320   0.42836   0.18775   0.00000  Uiso   1.00
H464   H     0.54780   0.42410   0.14093   0.00000  Uiso   1.00
H465   H     0.56936   0.34987   0.13269   0.00000  Uiso   1.00
H466   H     0.40344   0.45469   0.46025   0.00000  Uiso   1.00
H467   H     0.53284   0.36096   0.18873   0.00000  Uiso   1.00
H468   H     0.59734   0.35381   0.17813   0.00000  Uiso   1.00
H469   H     0.40668   0.42215   0.36475   0.00000  Uiso   1.00
H470   H     0.35264   0.43051   0.34880   0.00000  Uiso   1.00
H471   H     0.35632   0.40466   0.44377   0.00000  Uiso   1.00
H472   H     0.63577   0.40948   0.42516   0.00000  Uiso   1.00
H473   H     0.33347   0.35483   0.36723   0.00000  Uiso   1.00
H474   H     0.65985   0.33707   0.42360   0.00000  Uiso   1.00
H475   H     0.38620   0.34910   0.38814   0.00000  Uiso   1.00
H476   H     0.54375   0.41473   0.32340   0.00000  Uiso   1.00
H477   H     0.44589   0.51739   0.11050   0.00000  Uiso   1.00
H478   H     0.59491   0.39113   0.33454   0.00000  Uiso   1.00
H479   H     0.49692   0.34943   0.33653   0.00000  Uiso   1.00
H480   H     0.54786   0.65712   0.34811   0.00000  Uiso   1.00
H481   H     0.54291   0.37308   0.41217   0.00000  Uiso   1.00
H482   H     0.48787   0.34347   0.41855   0.00000  Uiso   1.00
H483   H     0.49024   0.39630   0.40084   0.00000  Uiso   1.00
H484   H     0.39446   0.60306   0.31434   0.00000  Uiso   1.00
H485   H     0.42179   0.65386   0.31111   0.00000  Uiso   1.00
H486   H     0.48010   0.57843   0.26861   0.00000  Uiso   1.00
H487   H     0.50193   0.62790   0.27993   0.00000  Uiso   1.00
H488   H     0.54897   0.50237   0.38770   0.00000  Uiso   1.00
H489   H     0.46537   0.61399   0.36354   0.00000  Uiso   1.00
H490   H     0.51194   0.57807   0.33621   0.00000  Uiso   1.00
H491   H     0.44889   0.56312   0.34916   0.00000  Uiso   1.00
H492   H     0.33516   0.49741   0.47511   0.00000  Uiso   1.00
H493   H     0.33871   0.45108   0.02979   0.00000  Uiso   1.00
H494   H     0.51968   0.50597   0.08339   0.00000  Uiso   1.00
H495   H     0.48467   0.46997   0.41947   0.00000  Uiso   1.00
H496   H     0.58854   0.62786   0.26653   0.00000  Uiso   1.00
N497   N     0.45069   0.50001   0.24999   0.00000  Uiso   1.00
N498   N     0.54931   0.49999   0.25001   0.00000  Uiso   1.00
O499   O     0.37291   0.43989   0.25000   0.00000  Uiso   1.00
O500   O     0.37005   0.47392   0.39249   0.00000  Uiso   1.00
O501   O     0.57619   0.37302   0.27527   0.00000  Uiso   1.00
O502   O     0.41963   0.62748   0.25019   0.00000  Uiso   1.00
O503   O     0.62709   0.56011   0.25000   0.00000  Uiso   1.00
O504   O     0.62706   0.43988   0.25001   0.00000  Uiso   1.00
O505   O     0.37294   0.56012   0.24999   0.00000  Uiso   1.00
O506   O     0.35186   0.50001   0.31491   0.00000  Uiso   1.00
O507   O     0.64814   0.49999   0.18508   0.00000  Uiso   1.00
O508   O     0.60600   0.50000   0.31492   0.00000  Uiso   1.00
O509   O     0.39400   0.50000   0.18508   0.00000  Uiso   1.00
O510   O     0.63074   0.46411   0.11505   0.00000  Uiso   1.00
C511   C     0.99929   0.42079   0.25172   0.00000  Uiso   1.00
C512   C     0.70855   0.35559   0.25066   0.00000  Uiso   1.00
C513   C     0.99972   0.62397   0.25489   0.00000  Uiso   1.00
C514   C     0.99815   0.37623   0.25544   0.00000  Uiso   1.00
C515   C     0.84668   0.48912   0.28731   0.00000  Uiso   1.00
C516   C     0.81992   0.51136   0.21275   0.00000  Uiso   1.00
C517   C     0.79740   0.48888   0.28717   0.00000  Uiso   1.00
C518   C     0.86933   0.51137   0.21279   0.00000  Uiso   1.00
C519   C     0.97258   0.49828   0.33597   0.00000  Uiso   1.00
C520   C     0.69398   0.49867   0.16408   0.00000  Uiso   1.00
C521   C     0.95718   0.49507   0.38505   0.00000  Uiso   1.00
C522   C     0.99991   0.57929   0.25142   0.00000  Uiso   1.00
C523   C     0.70915   0.49248   0.11546   0.00000  Uiso   1.00
C524   C     0.97527   0.49669   0.45645   0.00000  Uiso   1.00
C525   C     0.69602   0.46538   0.04706   0.00000  Uiso   1.00
C526   C     0.99031   0.48881   0.41057   0.00000  Uiso   1.00
C527   C     0.67844   0.47342   0.09284   0.00000  Uiso   1.00
C528   C     0.90772   0.49813   0.40723   0.00000  Uiso   1.00
C529   C     0.75727   0.50162   0.09244   0.00000  Uiso   1.00
C530   C     0.89127   0.49651   0.45408   0.00000  Uiso   1.00
C531   C     0.77624   0.49135   0.04716   0.00000  Uiso   1.00
C532   C     0.92590   0.50008   0.47855   0.00000  Uiso   1.00
C533   C     0.86172   0.50378   0.04744   0.00000  Uiso   1.00
C534   C     0.74416   0.47487   0.02404   0.00000  Uiso   1.00
C535   C     0.84163   0.49113   0.47711   0.00000  Uiso   1.00
C536   C     0.82623   0.49639   0.02435   0.00000  Uiso   1.00
C537   C     0.95974   0.42143   0.12350   0.00000  Uiso   1.00
C538   C     0.90981   0.41235   0.15545   0.00000  Uiso   1.00
C539   C     0.90199   0.36635   0.16422   0.00000  Uiso   1.00
C540   C     0.70188   0.43257   0.37751   0.00000  Uiso   1.00
C541   C     0.67511   0.40230   0.41430   0.00000  Uiso   1.00
C542   C     0.68075   0.35811   0.39709   0.00000  Uiso   1.00
C543   C     0.89660   0.38525   0.32084   0.00000  Uiso   1.00
C544   C     0.80790   0.47695   0.45477   0.00000  Uiso   1.00
C545   C     0.86228   0.35365   0.34968   0.00000  Uiso   1.00
C546   C     0.84487   0.36762   0.39834   0.00000  Uiso   1.00
C547   C     0.75722   0.62337   0.29423   0.00000  Uiso   1.00
C548   C     0.80634   0.60452   0.29241   0.00000  Uiso   1.00
C549   C     0.80816   0.58906   0.33824   0.00000  Uiso   1.00
C550   C     0.91080   0.50463   0.02487   0.00000  Uiso   1.00
C551   C     0.76059   0.46762   0.47824   0.00000  Uiso   1.00
C552   C     0.95415   0.35387   0.26475   0.00000  Uiso   1.00
C553   C     0.70937   0.64643   0.25254   0.00000  Uiso   1.00
C554   C     0.95559   0.64466   0.26201   0.00000  Uiso   1.00
Cu555  Cu    0.71355   0.50001   0.25000   0.00000  Uiso   1.00
Cu556  Cu    0.95311   0.49999   0.25000   0.00000  Uiso   1.00
H557   H     0.93706   0.50808   0.04391   0.00000  Uiso   1.00
H558   H     0.74248   0.37223   0.24585   0.00000  Uiso   1.00
H559   H     0.85545   0.48104   0.31775   0.00000  Uiso   1.00
H560   H     0.81084   0.52102   0.18288   0.00000  Uiso   1.00
H561   H     0.77015   0.48030   0.31714   0.00000  Uiso   1.00
H562   H     0.89669   0.52076   0.18293   0.00000  Uiso   1.00
H563   H     0.98786   0.41063   0.13947   0.00000  Uiso   1.00
H564   H     0.96330   0.40428   0.09170   0.00000  Uiso   1.00
H565   H     0.90654   0.42836   0.18775   0.00000  Uiso   1.00
H566   H     0.88113   0.42410   0.14093   0.00000  Uiso   1.00
H567   H     0.90270   0.34987   0.13269   0.00000  Uiso   1.00
H568   H     0.73678   0.45469   0.46025   0.00000  Uiso   1.00
H569   H     0.86617   0.36096   0.18873   0.00000  Uiso   1.00
H570   H     0.93068   0.35381   0.17813   0.00000  Uiso   1.00
H571   H     0.74001   0.42215   0.36475   0.00000  Uiso   1.00
H572   H     0.68597   0.43051   0.34880   0.00000  Uiso   1.00
H573   H     0.68965   0.40466   0.44377   0.00000  Uiso   1.00
H574   H     0.96910   0.40948   0.42516   0.00000  Uiso   1.00
H575   H     0.66681   0.35483   0.36723   0.00000  Uiso   1.00
H576   H     0.99318   0.33707   0.42360   0.00000  Uiso   1.00
H577   H     0.71953   0.34910   0.38814   0.00000  Uiso   1.00
H578   H     0.87709   0.41473   0.32340   0.00000  Uiso   1.00
H579   H     0.77922   0.51739   0.11050   0.00000  Uiso   1.00
H580   H     0.92824   0.39113   0.33454   0.00000  Uiso   1.00
H581   H     0.83026   0.34943   0.33653   0.00000  Uiso   1.00
H582   H     0.88120   0.65712   0.34811   0.00000  Uiso   1.00
H583   H     0.87624   0.37308   0.41217   0.00000  Uiso   1.00
H584   H     0.82120   0.34347   0.41855   0.00000  Uiso   1.00
H585   H     0.82357   0.39630   0.40084   0.00000  Uiso   1.00
H586   H     0.72779   0.60306   0.31434   0.00000  Uiso   1.00
H587   H     0.75512   0.65386   0.31111   0.00000  Uiso   1.00
H588   H     0.81344   0.57843   0.26861   0.00000  Uiso   1.00
H589   H     0.83527   0.62790   0.27993   0.00000  Uiso   1.00
H590   H     0.88231   0.50237   0.38770   0.00000  Uiso   1.00
H591   H     0.79870   0.61399   0.36354   0.00000  Uiso   1.00
H592   H     0.84528   0.57807   0.33621   0.00000  Uiso   1.00
H593   H     0.78223   0.56312   0.34916   0.00000  Uiso   1.00
H594   H     0.66849   0.49741   0.47511   0.00000  Uiso   1.00
H595   H     0.67204   0.45108   0.02979   0.00000  Uiso   1.00
H596   H     0.85301   0.50597   0.08339   0.00000  Uiso   1.00
H597   H     0.81800   0.46997   0.41947   0.00000  Uiso   1.00
H598   H     0.92187   0.62786   0.26653   0.00000  Uiso   1.00
N599   N     0.78403   0.50001   0.24999   0.00000  Uiso   1.00
N600   N     0.88264   0.49999   0.25001   0.00000  Uiso   1.00
O601   O     0.70625   0.43989   0.25000   0.00000  Uiso   1.00
O602   O     0.70338   0.47392   0.39249   0.00000  Uiso   1.00
O603   O     0.90952   0.37302   0.27527   0.00000  Uiso   1.00
O604   O     0.75296   0.62748   0.25019   0.00000  Uiso   1.00
O605   O     0.96042   0.56011   0.25000   0.00000  Uiso   1.00
O606   O     0.96039   0.43988   0.25001   0.00000  Uiso   1.00
O607   O     0.70628   0.56012   0.24999   0.00000  Uiso   1.00
O608   O     0.68519   0.50001   0.31491   0.00000  Uiso   1.00
O609   O     0.98148   0.49999   0.18508   0.00000  Uiso   1.00
O610   O     0.93933   0.50000   0.31492   0.00000  Uiso   1.00
O611   O     0.72733   0.50000   0.18508   0.00000  Uiso   1.00
O612   O     0.96407   0.46411   0.11505   0.00000  Uiso   1.00
C613   C     0.33263   0.75412   0.25172   0.00000  Uiso   1.00
C614   C     0.04188   0.68892   0.25066   0.00000  Uiso   1.00
C615   C     0.33305   0.95730   0.25489   0.00000  Uiso   1.00
C616   C     0.33148   0.70956   0.25544   0.00000  Uiso   1.00
C617   C     0.18002   0.82245   0.28731   0.00000  Uiso   1.00
C618   C     0.15326   0.84469   0.21275   0.00000  Uiso   1.00
C619   C     0.13074   0.82221   0.28717   0.00000  Uiso   1.00
C620   C     0.20267   0.84471   0.21279   0.00000  Uiso   1.00
C621   C     0.30592   0.83161   0.33597   0.00000  Uiso   1.00
C622   C     0.02731   0.83200   0.16408   0.00000  Uiso   1.00
C623   C     0.29051   0.82841   0.38505   0.00000  Uiso   1.00
C624   C     0.33324   0.91262   0.25142   0.00000  Uiso   1.00
C625   C     0.04249   0.82581   0.11546   0.00000  Uiso   1.00
C626   C     0.30860   0.83002   0.45645   0.00000  Uiso   1.00
C627   C     0.02935   0.79871   0.04706   0.00000  Uiso   1.00
C628   C     0.32364   0.82215   0.41057   0.00000  Uiso   1.00
C629   C     0.01177   0.80675   0.09284   0.00000  Uiso   1.00
C630   C     0.24105   0.83146   0.40723   0.00000  Uiso   1.00
C631   C     0.09061   0.83495   0.09244   0.00000  Uiso   1.00
C632   C     0.22460   0.82984   0.45408   0.00000  Uiso   1.00
C633   C     0.10957   0.82468   0.04716   0.00000  Uiso   1.00
C634   C     0.25923   0.83341   0.47855   0.00000  Uiso   1.00
C635   C     0.19505   0.83711   0.04744   0.00000  Uiso   1.00
C636   C     0.07750   0.80820   0.02404   0.00000  Uiso   1.00
C637   C     0.17496   0.82446   0.47711   0.00000  Uiso   1.00
C638   C     0.15957   0.82972   0.02435   0.00000  Uiso   1.00
C639   C     0.29307   0.75476   0.12350   0.00000  Uiso   1.00
C640   C     0.24314   0.74568   0.15545   0.00000  Uiso   1.00
C641   C     0.23532   0.69968   0.16422   0.00000  Uiso   1.00
C642   C     0.03521   0.76591   0.37751   0.00000  Uiso   1.00
C643   C     0.00844   0.73564   0.41430   0.00000  Uiso   1.00
C644   C     0.01409   0.69144   0.39709   0.00000  Uiso   1.00
C645   C     0.22994   0.71858   0.32084   0.00000  Uiso   1.00
C646   C     0.14123   0.81028   0.45477   0.00000  Uiso   1.00
C647   C     0.19562   0.68698   0.34968   0.00000  Uiso   1.00
C648   C     0.17821   0.70095   0.39834   0.00000  Uiso   1.00
C649   C     0.09055   0.95670   0.29423   0.00000  Uiso   1.00
C650   C     0.13967   0.93786   0.29241   0.00000  Uiso   1.00
C651   C     0.14150   0.92240   0.33824   0.00000  Uiso   1.00
C652   C     0.24413   0.83796   0.02487   0.00000  Uiso   1.00
C653   C     0.09392   0.80096   0.47824   0.00000  Uiso   1.00
C654   C     0.28748   0.68721   0.26475   0.00000  Uiso   1.00
C655   C     0.04270   0.97977   0.25254   0.00000  Uiso   1.00
C656   C     0.28893   0.97799   0.26201   0.00000  Uiso   1.00
Cu657  Cu    0.04689   0.83334   0.25000   0.00000  Uiso   1.00
Cu658  Cu    0.28645   0.83333   0.25000   0.00000  Uiso   1.00
H659   H     0.27040   0.84141   0.04391   0.00000  Uiso   1.00
H660   H     0.07581   0.70557   0.24585   0.00000  Uiso   1.00
H661   H     0.18878   0.81437   0.31775   0.00000  Uiso   1.00
H662   H     0.14417   0.85435   0.18288   0.00000  Uiso   1.00
H663   H     0.10349   0.81364   0.31714   0.00000  Uiso   1.00
H664   H     0.23002   0.85410   0.18293   0.00000  Uiso   1.00
H665   H     0.32119   0.74396   0.13947   0.00000  Uiso   1.00
H666   H     0.29663   0.73761   0.09170   0.00000  Uiso   1.00
H667   H     0.23987   0.76169   0.18775   0.00000  Uiso   1.00
H668   H     0.21447   0.75743   0.14093   0.00000  Uiso   1.00
H669   H     0.23603   0.68320   0.13269   0.00000  Uiso   1.00
H670   H     0.07011   0.78803   0.46025   0.00000  Uiso   1.00
H671   H     0.19950   0.69429   0.18873   0.00000  Uiso   1.00
H672   H     0.26401   0.68715   0.17813   0.00000  Uiso   1.00
H673   H     0.07335   0.75548   0.36475   0.00000  Uiso   1.00
H674   H     0.01931   0.76384   0.34880   0.00000  Uiso   1.00
H675   H     0.02298   0.73799   0.44377   0.00000  Uiso   1.00
H676   H     0.30244   0.74282   0.42516   0.00000  Uiso   1.00
H677   H     0.00014   0.68816   0.36723   0.00000  Uiso   1.00
H678   H     0.32651   0.67040   0.42360   0.00000  Uiso   1.00
H679   H     0.05286   0.68243   0.38814   0.00000  Uiso   1.00
H680   H     0.21042   0.74807   0.32340   0.00000  Uiso   1.00
H681   H     0.11256   0.85072   0.11050   0.00000  Uiso   1.00
H682   H     0.26158   0.72446   0.33454   0.00000  Uiso   1.00
H683   H     0.16359   0.68277   0.33653   0.00000  Uiso   1.00
H684   H     0.21453   0.99045   0.34811   0.00000  Uiso   1.00
H685   H     0.20957   0.70641   0.41217   0.00000  Uiso   1.00
H686   H     0.15453   0.67680   0.41855   0.00000  Uiso   1.00
H687   H     0.15690   0.72963   0.40084   0.00000  Uiso   1.00
H688   H     0.06112   0.93639   0.31434   0.00000  Uiso   1.00
H689   H     0.08845   0.98719   0.31111   0.00000  Uiso   1.00
H690   H     0.14677   0.91177   0.26861   0.00000  Uiso   1.00
H691   H     0.16860   0.96123   0.27993   0.00000  Uiso   1.00
H692   H     0.21564   0.83571   0.38770   0.00000  Uiso   1.00
H693   H     0.13203   0.94732   0.36354   0.00000  Uiso   1.00
H694   H     0.17861   0.91140   0.33621   0.00000  Uiso   1.00
H695   H     0.11556   0.89645   0.34916   0.00000  Uiso   1.00
H696   H     0.00183   0.83074   0.47511   0.00000  Uiso   1.00
H697   H     0.00538   0.78442   0.02979   0.00000  Uiso   1.00
H698   H     0.18634   0.83930   0.08339   0.00000  Uiso   1.00
H699   H     0.15134   0.80330   0.41947   0.00000  Uiso   1.00
H700   H     0.25520   0.96119   0.26653   0.00000  Uiso   1.00
N701   N     0.11736   0.83334   0.24999   0.00000  Uiso   1.00
N702   N     0.21597   0.83332   0.25001   0.00000  Uiso   1.00
O703   O     0.03958   0.77322   0.25000   0.00000  Uiso   1.00
O704   O     0.03672   0.80725   0.39249   0.00000  Uiso   1.00
O705   O     0.24285   0.70635   0.27527   0.00000  Uiso   1.00
O706   O     0.08629   0.96081   0.25019   0.00000  Uiso   1.00
O707   O     0.29375   0.89345   0.25000   0.00000  Uiso   1.00
O708   O     0.29372   0.77321   0.25001   0.00000  Uiso   1.00
O709   O     0.03961   0.89346   0.24999   0.00000  Uiso   1.00
O710   O     0.01852   0.83334   0.31491   0.00000  Uiso   1.00
O711   O     0.31481   0.83332   0.18508   0.00000  Uiso   1.00
O712   O     0.27267   0.83333   0.31492   0.00000  Uiso   1.00
O713   O     0.06067   0.83333   0.18508   0.00000  Uiso   1.00
O714   O     0.29740   0.79744   0.11505   0.00000  Uiso   1.00
C715   C     0.66596   0.75412   0.25172   0.00000  Uiso   1.00
C716   C     0.37521   0.68892   0.25066   0.00000  Uiso   1.00
C717   C     0.66638   0.95730   0.25489   0.00000  Uiso   1.00
C718   C     0.66482   0.70956   0.25544   0.00000  Uiso   1.00
C719   C     0.51335   0.82245   0.28731   0.00000  Uiso   1.00
C720   C     0.48659   0.84469   0.21275   0.00000  Uiso   1.00
C721   C     0.46407   0.82221   0.28717   0.00000  Uiso   1.00
C722   C     0.53600   0.84471   0.21279   0.00000  Uiso   1.00
C723   C     0.63925   0.83161   0.33597   0.00000  Uiso   1.00
C724   C     0.36064   0.83200   0.16408   0.00000  Uiso   1.00
C725   C     0.62385   0.82841   0.38505   0.00000  Uiso   1.00
C726   C     0.66657   0.91262   0.25142   0.00000  Uiso   1.00
C727   C     0.37582   0.82581   0.11546   0.00000  Uiso   1.00
C728   C     0.64193   0.83002   0.45645   0.00000  Uiso   1.00
C729   C     0.36268   0.79871   0.04706   0.00000  Uiso   1.00
C730   C     0.65697   0.82215   0.41057   0.00000  Uiso   1.00
C731   C     0.34510   0.80675   0.09284   0.00000  Uiso   1.00
C732   C     0.57438   0.83146   0.40723   0.00000  Uiso   1.00
C733   C     0.42394   0.83495   0.09244   0.00000  Uiso   1.00
C734   C     0.55793   0.82984   0.45408   0.00000  Uiso   1.00
C735   C     0.44291   0.82468   0.04716   0.00000  Uiso   1.00
C736   C     0.59257   0.83341   0.47855   0.00000  Uiso   1.00
C737   C     0.52839   0.83711   0.04744   0.00000  Uiso   1.00
C738   C     0.41083   0.80820   0.02404   0.00000  Uiso   1.00
C739   C     0.50830   0.82446   0.47711   0.00000  Uiso   1.00
C740   C     0.49290   0.82972   0.02435   0.00000  Uiso   1.00
C741   C     0.62640   0.75476   0.12350   0.00000  Uiso   1.00
C742   C     0.57647   0.74568   0.15545   0.00000  Uiso   1.00
C743   C     0.56865   0.69968   0.16422   0.00000  Uiso   1.00
C744   C     0.36854   0.76591   0.37751   0.00000  Uiso   1.00
C745   C     0.34178   0.73564   0.41430   0.00000  Uiso   1.00
C746   C     0.34742   0.69144   0.39709   0.00000  Uiso   1.00
C747   C     0.56327   0.71858   0.32084   0.00000  Uiso   1.00
C748   C     0.47456   0.81028   0.45477   0.00000  Uiso   1.00
C749   C     0.52895   0.68698   0.34968   0.00000  Uiso   1.00
C750   C     0.51154   0.70095   0.39834   0.00000  Uiso   1.00
C751   C     0.42388   0.95670   0.29423   0.00000  Uiso   1.00
C752   C     0.47300   0.93786   0.29241   0.00000  Uiso   1.00
C753   C     0.47483   0.92240   0.33824   0.00000  Uiso   1.00
C754   C     0.57746   0.83796   0.02487   0.00000  Uiso   1.00
C755   C     0.42726   0.80096   0.47824   0.00000  Uiso   1.00
C756   C     0.62082   0.68721   0.26475   0.00000  Uiso   1.00
C757   C     0.37604   0.97977   0.25254   0.00000  Uiso   1.00
C758   C     0.62226   0.97799   0.26201   0.00000  Uiso   1.00
Cu759  Cu    0.38022   0.83334   0.25000   0.00000  Uiso   1.00
Cu760  Cu    0.61978   0.83333   0.25000   0.00000  Uiso   1.00
H761   H     0.60373   0.84141   0.04391   0.00000  Uiso   1.00
H762   H     0.40915   0.70557   0.24585   0.00000  Uiso   1.00
H763   H     0.52212   0.81437   0.31775   0.00000  Uiso   1.00
H764   H     0.47750   0.85435   0.18288   0.00000  Uiso   1.00
H765   H     0.43682   0.81364   0.31714   0.00000  Uiso   1.00
H766   H     0.56335   0.85410   0.18293   0.00000  Uiso   1.00
H767   H     0.65453   0.74396   0.13947   0.00000  Uiso   1.00
H768   H     0.62997   0.73761   0.09170   0.00000  Uiso   1.00
H769   H     0.57320   0.76169   0.18775   0.00000  Uiso   1.00
H770   H     0.54780   0.75743   0.14093   0.00000  Uiso   1.00
H771   H     0.56936   0.68320   0.13269   0.00000  Uiso   1.00
H772   H     0.40344   0.78803   0.46025   0.00000  Uiso   1.00
H773   H     0.53284   0.69429   0.18873   0.00000  Uiso   1.00
H774   H     0.59734   0.68715   0.17813   0.00000  Uiso   1.00
H775   H     0.40668   0.75548   0.36475   0.00000  Uiso   1.00
H776   H     0.35264   0.76384   0.34880   0.00000  Uiso   1.00
H777   H     0.35632   0.73799   0.44377   0.00000  Uiso   1.00
H778   H     0.63577   0.74282   0.42516   0.00000  Uiso   1.00
H779   H     0.33347   0.68816   0.36723   0.00000  Uiso   1.00
H780   H     0.65985   0.67040   0.42360   0.00000  Uiso   1.00
H781   H     0.38620   0.68243   0.38814   0.00000  Uiso   1.00
H782   H     0.54375   0.74807   0.32340   0.00000  Uiso   1.00
H783   H     0.44589   0.85072   0.11050   0.00000  Uiso   1.00
H784   H     0.59491   0.72446   0.33454   0.00000  Uiso   1.00
H785   H     0.49692   0.68277   0.33653   0.00000  Uiso   1.00
H786   H     0.54786   0.99045   0.34811   0.00000  Uiso   1.00
H787   H     0.54291   0.70641   0.41217   0.00000  Uiso   1.00
H788   H     0.48787   0.67680   0.41855   0.00000  Uiso   1.00
H789   H     0.49024   0.72963   0.40084   0.00000  Uiso   1.00
H790   H     0.39446   0.93639   0.31434   0.00000  Uiso   1.00
H791   H     0.42179   0.98719   0.31111   0.00000  Uiso   1.00
H792   H     0.48010   0.91177   0.26861   0.00000  Uiso   1.00
H793   H     0.50193   0.96123   0.27993   0.00000  Uiso   1.00
H794   H     0.54897   0.83571   0.38770   0.00000  Uiso   1.00
H795   H     0.46537   0.94732   0.36354   0.00000  Uiso   1.00
H796   H     0.51194   0.91140   0.33621   0.00000  Uiso   1.00
H797   H     0.44889   0.89645   0.34916   0.00000  Uiso   1.00
H798   H     0.33516   0.83074   0.47511   0.00000  Uiso   1.00
H799   H     0.33871   0.78442   0.02979   0.00000  Uiso   1.00
H800   H     0.51968   0.83930   0.08339   0.00000  Uiso   1.00
H801   H     0.48467   0.80330   0.41947   0.00000  Uiso   1.00
H802   H     0.58854   0.96119   0.26653   0.00000  Uiso   1.00
N803   N     0.45069   0.83334   0.24999   0.00000  Uiso   1.00
N804   N     0.54931   0.83332   0.25001   0.00000  Uiso   1.00
O805   O     0.37291   0.77322   0.25000   0.00000  Uiso   1.00
O806   O     0.37005   0.80725   0.39249   0.00000  Uiso   1.00
O807   O     0.57619   0.70635   0.27527   0.00000  Uiso   1.00
O808   O     0.41963   0.96081   0.25019   0.00000  Uiso   1.00
O809   O     0.62709   0.89345   0.25000   0.00000  Uiso   1.00
O810   O     0.62706   0.77321   0.25001   0.00000  Uiso   1.00
O811   O     0.37294   0.89346   0.24999   0.00000  Uiso   1.00
O812   O     0.35186   0.83334   0.31491   0.00000  Uiso   1.00
O813   O     0.64814   0.83332   0.18508   0.00000  Uiso   1.00
O814   O     0.60600   0.83333   0.31492   0.00000  Uiso   1.00
O815   O     0.39400   0.83333   0.18508   0.00000  Uiso   1.00
O816   O     0.63074   0.79744   0.11505   0.00000  Uiso   1.00
C817   C     0.99929   0.75412   0.25172   0.00000  Uiso   1.00
C818   C     0.70855   0.68892   0.25066   0.00000  Uiso   1.00
C819   C     0.99972   0.95730   0.25489   0.00000  Uiso   1.00
C820   C     0.99815   0.70956   0.25544   0.00000  Uiso   1.00
C821   C     0.84668   0.82245   0.28731   0.00000  Uiso   1.00
C822   C     0.81992   0.84469   0.21275   0.00000  Uiso   1.00
C823   C     0.79740   0.82221   0.28717   0.00000  Uiso   1.00
C824   C     0.86933   0.84471   0.21279   0.00000  Uiso   1.00
C825   C     0.97258   0.83161   0.33597   0.00000  Uiso   1.00
C826   C     0.69398   0.83200   0.16408   0.00000  Uiso   1.00
C827   C     0.95718   0.82841   0.38505   0.00000  Uiso   1.00
C828   C     0.99991   0.91262   0.25142   0.00000  Uiso   1.00
C829   C     0.70915   0.82581   0.11546   0.00000  Uiso   1.00
C830   C     0.97527   0.83002   0.45645   0.00000  Uiso   1.00
C831   C     0.69602   0.79871   0.04706   0.00000  Uiso   1.00
C832   C     0.99031   0.82215   0.41057   0.00000  Uiso   1.00
C833   C     0.67844   0.80675   0.09284   0.00000  Uiso   1.00
C834   C     0.90772   0.83146   0.40723   0.00000  Uiso   1.00
C835   C     0.75727   0.83495   0.09244   0.00000  Uiso   1.00
C836   C     0.89127   0.82984   0.45408   0.00000  Uiso   1.00
C837   C     0.77624   0.82468   0.04716   0.00000  Uiso   1.00
C838   C     0.92590   0.83341   0.47855   0.00000  Uiso   1.00
C839   C     0.86172   0.83711   0.04744   0.00000  Uiso   1.00
C840   C     0.74416   0.80820   0.02404   0.00000  Uiso   1.00
C841   C     0.84163   0.82446   0.47711   0.00000  Uiso   1.00
C842   C     0.82623   0.82972   0.02435   0.00000  Uiso   1.00
C843   C     0.95974   0.75476   0.12350   0.00000  Uiso   1.00
C844   C     0.90981   0.74568   0.15545   0.00000  Uiso   1.00
C845   C     0.90199   0.69968   0.16422   0.00000  Uiso   1.00
C846   C     0.70188   0.76591   0.37751   0.00000  Uiso   1.00
C847   C     0.67511   0.73564   0.41430   0.00000  Uiso   1.00
C848   C     0.68075   0.69144   0.39709   0.00000  Uiso   1.00
C849   C     0.89660   0.71858   0.32084   0.00000  Uiso   1.00
C850   C     0.80790   0.81028   0.45477   0.00000  Uiso   1.00
C851   C     0.86228   0.68698   0.34968   0.00000  Uiso   1.00
C852   C     0.84487   0.70095   0.39834   0.00000  Uiso   1.00
C853   C     0.75722   0.95670   0.29423   0.00000  Uiso   1.00
C854   C     0.80634   0.93786   0.29241   0.00000  Uiso   1.00
C855   C     0.80816   0.92240   0.33824   0.00000  Uiso   1.00
C856   C     0.91080   0.83796   0.02487   0.00000  Uiso   1.00
C857   C     0.76059   0.80096   0.47824   0.00000  Uiso   1.00
C858   C     0.95415   0.68721   0.26475   0.00000  Uiso   1.00
C859   C     0.70937   0.97977   0.25254   0.00000  Uiso   1.00
C860   C     0.95559   0.97799   0.26201   0.00000  Uiso   1.00
Cu861  Cu    0.71355   0.83334   0.25000   0.00000  Uiso   1.00
Cu862  Cu    0.95311   0.83333   0.25000   0.00000  Uiso   1.00
H863   H     0.93706   0.84141   0.04391   0.00000  Uiso   1.00
H864   H     0.74248   0.70557   0.24585   0.00000  Uiso   1.00
H865   H     0.85545   0.81437   0.31775   0.00000  Uiso   1.00
H866   H     0.81084   0.85435   0.18288   0.00000  Uiso   1.00
H867   H     0.77015   0.81364   0.31714   0.00000  Uiso   1.00
H868   H     0.89669   0.85410   0.18293   0.00000  Uiso   1.00
H869   H     0.98786   0.74396   0.13947   0.00000  Uiso   1.00
H870   H     0.96330   0.73761   0.09170   0.00000  Uiso   1.00
H871   H     0.90654   0.76169   0.18775   0.00000  Uiso   1.00
H872   H     0.88113   0.75743   0.14093   0.00000  Uiso   1.00
H873   H     0.90270   0.68320   0.13269   0.00000  Uiso   1.00
H874   H     0.73678   0.78803   0.46025   0.00000  Uiso   1.00
H875   H     0.86617   0.69429   0.18873   0.00000  Uiso   1.00
H876   H     0.93068   0.68715   0.17813   0.00000  Uiso   1.00
H877   H     0.74001   0.75548   0.36475   0.00000  Uiso   1.00
H878   H     0.68597   0.76384   0.34880   0.00000  Uiso   1.00
H879   H     0.68965   0.73799   0.44377   0.00000  Uiso   1.00
H880   H     0.96910   0.74282   0.42516   0.00000  Uiso   1.00
H881   H     0.66681   0.68816   0.36723   0.00000  Uiso   1.00
H882   H     0.99318   0.67040   0.42360   0.00000  Uiso   1.00
H883   H     0.71953   0.68243   0.38814   0.00000  Uiso   1.00
H884   H     0.87709   0.74807   0.32340   0.00000  Uiso   1.00
H885   H     0.77922   0.85072   0.11050   0.00000  Uiso   1.00
H886   H     0.92824   0.72446   0.33454   0.00000  Uiso   1.00
H887   H     0.83026   0.68277   0.33653   0.00000  Uiso   1.00
H888   H     0.88120   0.99045   0.34811   0.00000  Uiso   1.00
H889   H     0.87624   0.70641   0.41217   0.00000  Uiso   1.00
H890   H     0.82120   0.67680   0.41855   0.00000  Uiso   1.00
H891   H     0.82357   0.72963   0.40084   0.00000  Uiso   1.00
H892   H     0.72779   0.93639   0.31434   0.00000  Uiso   1.00
H893   H     0.75512   0.98719   0.31111   0.00000  Uiso   1.00
H894   H     0.81344   0.91177   0.26861   0.00000  Uiso   1.00
H895   H     0.83527   0.96123   0.27993   0.00000  Uiso   1.00
H896   H     0.88231   0.83571   0.38770   0.00000  Uiso   1.00
H897   H     0.79870   0.94732   0.36354   0.00000  Uiso   1.00
H898   H     0.84528   0.91140   0.33621   0.00000  Uiso   1.00
H899   H     0.78223   0.89645   0.34916   0.00000  Uiso   1.00
H900   H     0.66849   0.83074   0.47511   0.00000  Uiso   1.00
H901   H     0.67204   0.78442   0.02979   0.00000  Uiso   1.00
H902   H     0.85301   0.83930   0.08339   0.00000  Uiso   1.00
H903   H     0.81800   0.80330   0.41947   0.00000  Uiso   1.00
H904   H     0.92187   0.96119   0.26653   0.00000  Uiso   1.00
N905   N     0.78403   0.83334   0.24999   0.00000  Uiso   1.00
N906   N     0.88264   0.83332   0.25001   0.00000  Uiso   1.00
O907   O     0.70625   0.77322   0.25000   0.00000  Uiso   1.00
O908   O     0.70338   0.80725   0.39249   0.00000  Uiso   1.00
O909   O     0.90952   0.70635   0.27527   0.00000  Uiso   1.00
O910   O     0.75296   0.96081   0.25019   0.00000  Uiso   1.00
O911   O     0.96042   0.89345   0.25000   0.00000  Uiso   1.00
O912   O     0.96039   0.77321   0.25001   0.00000  Uiso   1.00
O913   O     0.70628   0.89346   0.24999   0.00000  Uiso   1.00
O914   O     0.68519   0.83334   0.31491   0.00000  Uiso   1.00
O915   O     0.98148   0.83332   0.18508   0.00000  Uiso   1.00
O916   O     0.93933   0.83333   0.31492   0.00000  Uiso   1.00
O917   O     0.72733   0.83333   0.18508   0.00000  Uiso   1.00
O918   O     0.96407   0.79744   0.11505   0.00000  Uiso   1.00
C919   C     0.33263   0.08746   0.75172   0.00000  Uiso   1.00
C920   C     0.04188   0.02225   0.75066   0.00000  Uiso   1.00
C921   C     0.33305   0.29063   0.75489   0.00000  Uiso   1.00
C922   C     0.33148   0.04290   0.75544   0.00000  Uiso   1.00
C923   C     0.18002   0.15578   0.78731   0.00000  Uiso   1.00
C924   C     0.15326   0.17802   0.71275   0.00000  Uiso   1.00
C925   C     0.13074   0.15554   0.78717   0.00000  Uiso   1.00
C926   C     0.20267   0.17804   0.71279   0.00000  Uiso   1.00
C927   C     0.30592   0.16494   0.83597   0.00000  Uiso   1.00
C928   C     0.02731   0.16534   0.66408   0.00000  Uiso   1.00
C929   C     0.29051   0.16174   0.88505   0.00000  Uiso   1.00
C930   C     0.33324   0.24595   0.75142   0.00000  Uiso   1.00
C931   C     0.04249   0.15915   0.61546   0.00000  Uiso   1.00
C932   C     0.30860   0.16335   0.95645   0.00000  Uiso   1.00
C933   C     0.02935   0.13205   0.54706   0.00000  Uiso   1.00
C934   C     0.32364   0.15548   0.91057   0.00000  Uiso   1.00
C935   C     0.01177   0.14009   0.59284   0.00000  Uiso   1.00
C936   C     0.24105   0.16480   0.90723   0.00000  Uiso   1.00
C937   C     0.09061   0.16828   0.59244   0.00000  Uiso   1.00
C938   C     0.22460   0.16318   0.95408   0.00000  Uiso   1.00
C939   C     0.10957   0.15801   0.54716   0.00000  Uiso   1.00
C940   C     0.25923   0.16675   0.97855   0.00000  Uiso   1.00
C941   C     0.19505   0.17045   0.54744   0.00000  Uiso   1.00
C942   C     0.07750   0.14153   0.52404   0.00000  Uiso   1.00
C943   C     0.17496   0.15779   0.97711   0.00000  Uiso   1.00
C944   C     0.15957   0.16306   0.52435   0.00000  Uiso   1.00
C945   C     0.29307   0.08810   0.62350   0.00000  Uiso   1.00
C946   C     0.24314   0.07901   0.65545   0.00000  Uiso   1.00
C947   C     0.23532   0.03301   0.66422   0.00000  Uiso   1.00
C948   C     0.03521   0.09924   0.87751   0.00000  Uiso   1.00
C949   C     0.00844   0.06897   0.91430   0.00000  Uiso   1.00
C950   C     0.01409   0.02477   0.89709   0.00000  Uiso   1.00
C951   C     0.22994   0.05192   0.82084   0.00000  Uiso   1.00
C952   C     0.14123   0.14362   0.95477   0.00000  Uiso   1.00
C953   C     0.19562   0.02031   0.84968   0.00000  Uiso   1.00
C954   C     0.17821   0.03429   0.89834   0.00000  Uiso   1.00
C955   C     0.09055   0.29004   0.79423   0.00000  Uiso   1.00
C956   C     0.13967   0.27119   0.79241   0.00000  Uiso   1.00
C957   C     0.14150   0.25573   0.83824   0.00000  Uiso   1.00
C958   C     0.24413   0.17129   0.52487   0.00000  Uiso   1.00
C959   C     0.09392   0.13429   0.97824   0.00000  Uiso   1.00
C960   C     0.28748   0.02054   0.76475   0.00000  Uiso   1.00
C961   C     0.04270   0.31310   0.75254   0.00000  Uiso   1.00
C962   C     0.28893   0.31132   0.76201   0.00000  Uiso   1.00
Cu963  Cu    0.04689   0.16667   0.75000   0.00000  Uiso   1.00
Cu964  Cu    0.28645   0.16666   0.75000   0.00000  Uiso   1.00
H965   H     0.27040   0.17475   0.54391   0.00000  Uiso   1.00
H966   H     0.07581   0.03890   0.74585   0.00000  Uiso   1.00
H967   H     0.18878   0.14770   0.81775   0.00000  Uiso   1.00
H968   H     0.14417   0.18768   0.68288   0.00000  Uiso   1.00
H969   H     0.10349   0.14697   0.81714   0.00000  Uiso   1.00
H970   H     0.23002   0.18743   0.68293   0.00000  Uiso   1.00
H971   H     0.32119   0.07729   0.63947   0.00000  Uiso   1.00
H972   H     0.29663   0.07094   0.59170   0.00000  Uiso   1.00
H973   H     0.23987   0.09502   0.68775   0.00000  Uiso   1.00
H974   H     0.21447   0.09076   0.64093   0.00000  Uiso   1.00
H975   H     0.23603   0.01654   0.63269   0.00000  Uiso   1.00
H976   H     0.07011   0.12136   0.96025   0.00000  Uiso   1.00
H977   H     0.19950   0.02762   0.68873   0.00000  Uiso   1.00
H978   H     0.26401   0.02048   0.67813   0.00000  Uiso   1.00
H979   H     0.07335   0.08881   0.86475   0.00000  Uiso   1.00
H980   H     0.01931   0.09718   0.84880   0.00000  Uiso   1.00
H981   H     0.02298   0.07132   0.94377   0.00000  Uiso   1.00
H982   H     0.30244   0.07615   0.92516   0.00000  Uiso   1.00
H983   H     0.00014   0.02149   0.86723   0.00000  Uiso   1.00
H984   H     0.32651   0.00373   0.92360   0.00000  Uiso   1.00
H985   H     0.05286   0.01576   0.88814   0.00000  Uiso   1.00
H986   H     0.21042   0.08140   0.82340   0.00000  Uiso   1.00
H987   H     0.11256   0.18406   0.61050   0.00000  Uiso   1.00
H988   H     0.26158   0.05779   0.83454   0.00000  Uiso   1.00
H989   H     0.16359   0.01610   0.83653   0.00000  Uiso   1.00
H990   H     0.21453   0.32378   0.84811   0.00000  Uiso   1.00
H991   H     0.20957   0.03975   0.91217   0.00000  Uiso   1.00
H992   H     0.15453   0.01014   0.91855   0.00000  Uiso   1.00
H993   H     0.15690   0.06297   0.90084   0.00000  Uiso   1.00
H994   H     0.06112   0.26972   0.81434   0.00000  Uiso   1.00
H995   H     0.08845   0.32053   0.81111   0.00000  Uiso   1.00
H996   H     0.14677   0.24510   0.76861   0.00000  Uiso   1.00
H997   H     0.16860   0.29456   0.77993   0.00000  Uiso   1.00
H998   H     0.21564   0.16904   0.88770   0.00000  Uiso   1.00
H999   H     0.13203   0.28066   0.86354   0.00000  Uiso   1.00
H1000  H     0.17861   0.24473   0.83621   0.00000  Uiso   1.00
H1001  H     0.11556   0.22979   0.84916   0.00000  Uiso   1.00
H1002  H     0.00183   0.16407   0.97511   0.00000  Uiso   1.00
H1003  H     0.00538   0.11775   0.52979   0.00000  Uiso   1.00
H1004  H     0.18634   0.17264   0.58339   0.00000  Uiso   1.00
H1005  H     0.15134   0.13664   0.91947   0.00000  Uiso   1.00
H1006  H     0.25520   0.29452   0.76653   0.00000  Uiso   1.00
N1007  N     0.11736   0.16668   0.74999   0.00000  Uiso   1.00
N1008  N     0.21597   0.16666   0.75001   0.00000  Uiso   1.00
O1009  O     0.03958   0.10655   0.75000   0.00000  Uiso   1.00
O1010  O     0.03672   0.14059   0.89249   0.00000  Uiso   1.00
O1011  O     0.24285   0.03969   0.77527   0.00000  Uiso   1.00
O1012  O     0.08629   0.29414   0.75019   0.00000  Uiso   1.00
O1013  O     0.29375   0.22678   0.75000   0.00000  Uiso   1.00
O1014  O     0.29372   0.10654   0.75001   0.00000  Uiso   1.00
O1015  O     0.03961   0.22679   0.74999   0.00000  Uiso   1.00
O1016  O     0.01852   0.16668   0.81491   0.00000  Uiso   1.00
O1017  O     0.31481   0.16666   0.68508   0.00000  Uiso   1.00
O1018  O     0.27267   0.16667   0.81492   0.00000  Uiso   1.00
O1019  O     0.06067   0.16667   0.68508   0.00000  Uiso   1.00
O1020  O     0.29740   0.13078   0.61505   0.00000  Uiso   1.00
C1021  C     0.66596   0.08746   0.75172   0.00000  Uiso   1.00
C1022  C     0.37521   0.02225   0.75066   0.00000  Uiso   1.00
C1023  C     0.66638   0.29063   0.75489   0.00000  Uiso   1.00
C1024  C     0.66482   0.04290   0.75544   0.00000  Uiso   1.00
C1025  C     0.51335   0.15578   0.78731   0.00000  Uiso   1.00
C1026  C     0.48659   0.17802   0.71275   0.00000  Uiso   1.00
C1027  C     0.46407   0.15554   0.78717   0.00000  Uiso   1.00
C1028  C     0.53600   0.17804   0.71279   0.00000  Uiso   1.00
C1029  C     0.63925   0.16494   0.83597   0.00000  Uiso   1.00
C1030  C     0.36064   0.16534   0.66408   0.00000  Uiso   1.00
C1031  C     0.62385   0.16174   0.88505   0.00000  Uiso   1.00
C1032  C     0.66657   0.24595   0.75142   0.00000  Uiso   1.00
C1033  C     0.37582   0.15915   0.61546   0.00000  Uiso   1.00
C1034  C     0.64193   0.16335   0.95645   0.00000  Uiso   1.00
C1035  C     0.36268   0.13205   0.54706   0.00000  Uiso   1.00
C1036  C     0.65697   0.15548   0.91057   0.00000  Uiso   1.00
C1037  C     0.34510   0.14009   0.59284   0.00000  Uiso   1.00
C1038  C     0.57438   0.16480   0.90723   0.00000  Uiso   1.00
C1039  C     0.42394   0.16828   0.59244   0.00000  Uiso   1.00
C1040  C     0.55793   0.16318   0.95408   0.00000  Uiso   1.00
C1041  C     0.44291   0.15801   0.54716   0.00000  Uiso   1.00
C1042  C     0.59257   0.16675   0.97855   0.00000  Uiso   1.00
C1043  C     0.52839   0.17045   0.54744   0.00000  Uiso   1.00
C1044  C     0.41083   0.14153   0.52404   0.00000  Uiso   1.00
C1045  C     0.50830   0.15779   0.97711   0.00000  Uiso   1.00
C1046  C     0.49290   0.16306   0.52435   0.00000  Uiso   1.00
C1047  C     0.62640   0.08810   0.62350   0.00000  Uiso   1.00
C1048  C     0.57647   0.07901   0.65545   0.00000  Uiso   1.00
C1049  C     0.56865   0.03301   0.66422   0.00000  Uiso   1.00
C1050  C     0.36854   0.09924   0.87751   0.00000  Uiso   1.00
C1051  C     0.34178   0.06897   0.91430   0.00000  Uiso   1.00
C1052  C     0.34742   0.02477   0.89709   0.00000  Uiso   1.00
C1053  C     0.56327   0.05192   0.82084   0.00000  Uiso   1.00
C1054  C     0.47456   0.14362   0.95477   0.00000  Uiso   1.00
C1055  C     0.52895   0.02031   0.84968   0.00000  Uiso   1.00
C1056  C     0.51154   0.03429   0.89834   0.00000  Uiso   1.00
C1057  C     0.42388   0.29004   0.79423   0.00000  Uiso   1.00
C1058  C     0.47300   0.27119   0.79241   0.00000  Uiso   1.00
C1059  C     0.47483   0.25573   0.83824   0.00000  Uiso   1.00
C1060  C     0.57746   0.17129   0.52487   0.00000  Uiso   1.00
C1061  C     0.42726   0.13429   0.97824   0.00000  Uiso   1.00
C1062  C     0.62082   0.02054   0.76475   0.00000  Uiso   1.00
C1063  C     0.37604   0.31310   0.75254   0.00000  Uiso   1.00
C1064  C     0.62226   0.31132   0.76201   0.00000  Uiso   1.00
Cu1065 Cu    0.38022   0.16667   0.75000   0.00000  Uiso   1.00
Cu1066 Cu    0.61978   0.16666   0.75000   0.00000  Uiso   1.00
H1067  H     0.60373   0.17475   0.54391   0.00000  Uiso   1.00
H1068  H     0.40915   0.03890   0.74585   0.00000  Uiso   1.00
H1069  H     0.52212   0.14770   0.81775   0.00000  Uiso   1.00
H1070  H     0.47750   0.18768   0.68288   0.00000  Uiso   1.00
H1071  H     0.43682   0.14697   0.81714   0.00000  Uiso   1.00
H1072  H     0.56335   0.18743   0.68293   0.00000  Uiso   1.00
H1073  H     0.65453   0.07729   0.63947   0.00000  Uiso   1.00
H1074  H     0.62997   0.07094   0.59170   0.00000  Uiso   1.00
H1075  H     0.57320   0.09502   0.68775   0.00000  Uiso   1.00
H1076  H     0.54780   0.09076   0.64093   0.00000  Uiso   1.00
H1077  H     0.56936   0.01654   0.63269   0.00000  Uiso   1.00
H1078  H     0.40344   0.12136   0.96025   0.00000  Uiso   1.00
H1079  H     0.53284   0.02762   0.68873   0.00000  Uiso   1.00
H1080  H     0.59734   0.02048   0.67813   0.00000  Uiso   1.00
H1081  H     0.40668   0.08881   0.86475   0.00000  Uiso   1.00
H1082  H     0.35264   0.09718   0.84880   0.00000  Uiso   1.00
H1083  H     0.35632   0.07132   0.94377   0.00000  Uiso   1.00
H1084  H     0.63577   0.07615   0.92516   0.00000  Uiso   1.00
H1085  H     0.33347   0.02149   0.86723   0.00000  Uiso   1.00
H1086  H     0.65985   0.00373   0.92360   0.00000  Uiso   1.00
H1087  H     0.38620   0.01576   0.88814   0.00000  Uiso   1.00
H1088  H     0.54375   0.08140   0.82340   0.00000  Uiso   1.00
H1089  H     0.44589   0.18406   0.61050   0.00000  Uiso   1.00
H1090  H     0.59491   0.05779   0.83454   0.00000  Uiso   1.00
H1091  H     0.49692   0.01610   0.83653   0.00000  Uiso   1.00
H1092  H     0.54786   0.32378   0.84811   0.00000  Uiso   1.00
H1093  H     0.54291   0.03975   0.91217   0.00000  Uiso   1.00
H1094  H     0.48787   0.01014   0.91855   0.00000  Uiso   1.00
H1095  H     0.49024   0.06297   0.90084   0.00000  Uiso   1.00
H1096  H     0.39446   0.26972   0.81434   0.00000  Uiso   1.00
H1097  H     0.42179   0.32053   0.81111   0.00000  Uiso   1.00
H1098  H     0.48010   0.24510   0.76861   0.00000  Uiso   1.00
H1099  H     0.50193   0.29456   0.77993   0.00000  Uiso   1.00
H1100  H     0.54897   0.16904   0.88770   0.00000  Uiso   1.00
H1101  H     0.46537   0.28066   0.86354   0.00000  Uiso   1.00
H1102  H     0.51194   0.24473   0.83621   0.00000  Uiso   1.00
H1103  H     0.44889   0.22979   0.84916   0.00000  Uiso   1.00
H1104  H     0.33516   0.16407   0.97511   0.00000  Uiso   1.00
H1105  H     0.33871   0.11775   0.52979   0.00000  Uiso   1.00
H1106  H     0.51968   0.17264   0.58339   0.00000  Uiso   1.00
H1107  H     0.48467   0.13664   0.91947   0.00000  Uiso   1.00
H1108  H     0.58854   0.29452   0.76653   0.00000  Uiso   1.00
N1109  N     0.45069   0.16668   0.74999   0.00000  Uiso   1.00
N1110  N     0.54931   0.16666   0.75001   0.00000  Uiso   1.00
O1111  O     0.37291   0.10655   0.75000   0.00000  Uiso   1.00
O1112  O     0.37005   0.14059   0.89249   0.00000  Uiso   1.00
O1113  O     0.57619   0.03969   0.77527   0.00000  Uiso   1.00
O1114  O     0.41963   0.29414   0.75019   0.00000  Uiso   1.00
O1115  O     0.62709   0.22678   0.75000   0.00000  Uiso   1.00
O1116  O     0.62706   0.10654   0.75001   0.00000  Uiso   1.00
O1117  O     0.37294   0.22679   0.74999   0.00000  Uiso   1.00
O1118  O     0.35186   0.16668   0.81491   0.00000  Uiso   1.00
O1119  O     0.64814   0.16666   0.68508   0.00000  Uiso   1.00
O1120  O     0.60600   0.16667   0.81492   0.00000  Uiso   1.00
O1121  O     0.39400   0.16667   0.68508   0.00000  Uiso   1.00
O1122  O     0.63074   0.13078   0.61505   0.00000  Uiso   1.00
C1123  C     0.99929   0.08746   0.75172   0.00000  Uiso   1.00
C1124  C     0.70855   0.02225   0.75066   0.00000  Uiso   1.00
C1125  C     0.99972   0.29063   0.75489   0.00000  Uiso   1.00
C1126  C     0.99815   0.04290   0.75544   0.00000  Uiso   1.00
C1127  C     0.84668   0.15578   0.78731   0.00000  Uiso   1.00
C1128  C     0.81992   0.17802   0.71275   0.00000  Uiso   1.00
C1129  C     0.79740   0.15554   0.78717   0.00000  Uiso   1.00
C1130  C     0.86933   0.17804   0.71279   0.00000  Uiso   1.00
C1131  C     0.97258   0.16494   0.83597   0.00000  Uiso   1.00
C1132  C     0.69398   0.16534   0.66408   0.00000  Uiso   1.00
C1133  C     0.95718   0.16174   0.88505   0.00000  Uiso   1.00
C1134  C     0.99991   0.24595   0.75142   0.00000  Uiso   1.00
C1135  C     0.70915   0.15915   0.61546   0.00000  Uiso   1.00
C1136  C     0.97527   0.16335   0.95645   0.00000  Uiso   1.00
C1137  C     0.69602   0.13205   0.54706   0.00000  Uiso   1.00
C1138  C     0.99031   0.15548   0.91057   0.00000  Uiso   1.00
C1139  C     0.67844   0.14009   0.59284   0.00000  Uiso   1.00
C1140  C     0.90772   0.16480   0.90723   0.00000  Uiso   1.00
C1141  C     0.75727   0.16828   0.59244   0.00000  Uiso   1.00
C1142  C     0.89127   0.16318   0.95408   0.00000  Uiso   1.00
C1143  C     0.77624   0.15801   0.54716   0.00000  Uiso   1.00
C1144  C     0.92590   0.16675   0.97855   0.00000  Uiso   1.00
C1145  C     0.86172   0.17045   0.54744   0.00000  Uiso   1.00
C1146  C     0.74416   0.14153   0.52404   0.00000  Uiso   1.00
C1147  C     0.84163   0.15779   0.97711   0.00000  Uiso   1.00
C1148  C     0.82623   0.16306   0.52435   0.00000  Uiso   1.00
C1149  C     0.95974   0.08810   0.62350   0.00000  Uiso   1.00
C1150  C     0.90981   0.07901   0.65545   0.00000  Uiso   1.00
C1151  C     0.90199   0.03301   0.66422   0.00000  Uiso   1.00
C1152  C     0.70188   0.09924   0.87751   0.00000  Uiso   1.00
C1153  C     0.67511   0.06897   0.91430   0.00000  Uiso   1.00
C1154  C     0.68075   0.02477   0.89709   0.00000  Uiso   1.00
C1155  C     0.89660   0.05192   0.82084   0.00000  Uiso   1.00
C1156  C     0.80790   0.14362   0.95477   0.00000  Uiso   1.00
C1157  C     0.86228   0.02031   0.84968   0.00000  Uiso   1.00
C1158  C     0.84487   0.03429   0.89834   0.00000  Uiso   1.00
C1159  C     0.75722   0.29004   0.79423   0.00000  Uiso   1.00
C1160  C     0.80634   0.27119   0.79241   0.00000  Uiso   1.00
C1161  C     0.80816   0.25573   0.83824   0.00000  Uiso   1.00
C1162  C     0.91080   0.17129   0.52487   0.00000  Uiso   1.00
C1163  C     0.76059   0.13429   0.97824   0.00000  Uiso   1.00
C1164  C     0.95415   0.02054   0.76475   0.00000  Uiso   1.00
C1165  C     0.70937   0.31310   0.75254   0.00000  Uiso   1.00
C1166  C     0.95559   0.31132   0.76201   0.00000  Uiso   1.00
Cu1167 Cu    0.71355   0.16667   0.75000   0.00000  Uiso   1.00
Cu1168 Cu    0.95311   0.16666   0.75000   0.00000  Uiso   1.00
H1169  H     0.93706   0.17475   0.54391   0.00000  Uiso   1.00
H1170  H     0.74248   0.03890   0.74585   0.00000  Uiso   1.00
H1171  H     0.85545   0.14770   0.81775   0.00000  Uiso   1.00
H1172  H     0.81084   0.18768   0.68288   0.00000  Uiso   1.00
H1173  H     0.77015   0.14697   0.81714   0.00000  Uiso   1.00
H1174  H     0.89669   0.18743   0.68293   0.00000  Uiso   1.00
H1175  H     0.98786   0.07729   0.63947   0.00000  Uiso   1.00
H1176  H     0.96330   0.07094   0.59170   0.00000  Uiso   1.00
H1177  H     0.90654   0.09502   0.68775   0.00000  Uiso   1.00
H1178  H     0.88113   0.09076   0.64093   0.00000  Uiso   1.00
H1179  H     0.90270   0.01654   0.63269   0.00000  Uiso   1.00
H1180  H     0.73678   0.12136   0.96025   0.00000  Uiso   1.00
H1181  H     0.86617   0.02762   0.68873   0.00000  Uiso   1.00
H1182  H     0.93068   0.02048   0.67813   0.00000  Uiso   1.00
H1183  H     0.74001   0.08881   0.86475   0.00000  Uiso   1.00
H1184  H     0.68597   0.09718   0.84880   0.00000  Uiso   1.00
H1185  H     0.68965   0.07132   0.94377   0.00000  Uiso   1.00
H1186  H     0.96910   0.07615   0.92516   0.00000  Uiso   1.00
H1187  H     0.66681   0.02149   0.86723   0.00000  Uiso   1.00
H1188  H     0.99318   0.00373   0.92360   0.00000  Uiso   1.00
H1189  H     0.71953   0.01576   0.88814   0.00000  Uiso   1.00
H1190  H     0.87709   0.08140   0.82340   0.00000  Uiso   1.00
H1191  H     0.77922   0.18406   0.61050   0.00000  Uiso   1.00
H1192  H     0.92824   0.05779   0.83454   0.00000  Uiso   1.00
H1193  H     0.83026   0.01610   0.83653   0.00000  Uiso   1.00
H1194  H     0.88120   0.32378   0.84811   0.00000  Uiso   1.00
H1195  H     0.87624   0.03975   0.91217   0.00000  Uiso   1.00
H1196  H     0.82120   0.01014   0.91855   0.00000  Uiso   1.00
H1197  H     0.82357   0.06297   0.90084   0.00000  Uiso   1.00
H1198  H     0.72779   0.26972   0.81434   0.00000  Uiso   1.00
H1199  H     0.75512   0.32053   0.81111   0.00000  Uiso   1.00
H1200  H     0.81344   0.24510   0.76861   0.00000  Uiso   1.00
H1201  H     0.83527   0.29456   0.77993   0.00000  Uiso   1.00
H1202  H     0.88231   0.16904   0.88770   0.00000  Uiso   1.00
H1203  H     0.79870   0.28066   0.86354   0.00000  Uiso   1.00
H1204  H     0.84528   0.24473   0.83621   0.00000  Uiso   1.00
H1205  H     0.78223   0.22979   0.84916   0.00000  Uiso   1.00
H1206  H     0.66849   0.16407   0.97511   0.00000  Uiso   1.00
H1207  H     0.67204   0.11775   0.52979   0.00000  Uiso   1.00
H1208  H     0.85301   0.17264   0.58339   0.00000  Uiso   1.00
H1209  H     0.81800   0.13664   0.91947   0.00000  Uiso   1.00
H1210  H     0.92187   0.29452   0.76653   0.00000  Uiso   1.00
N1211  N     0.78403   0.16668   0.74999   0.00000  Uiso   1.00
N1212  N     0.88264   0.16666   0.75001   0.00000  Uiso   1.00
O1213  O     0.70625   0.10655   0.75000   0.00000  Uiso   1.00
O1214  O     0.70338   0.14059   0.89249   0.00000  Uiso   1.00
O1215  O     0.90952   0.03969   0.77527   0.00000  Uiso   1.00
O1216  O     0.75296   0.29414   0.75019   0.00000  Uiso   1.00
O1217  O     0.96042   0.22678   0.75000   0.00000  Uiso   1.00
O1218  O     0.96039   0.10654   0.75001   0.00000  Uiso   1.00
O1219  O     0.70628   0.22679   0.74999   0.00000  Uiso   1.00
O1220  O     0.68519   0.16668   0.81491   0.00000  Uiso   1.00
O1221  O     0.98148   0.16666   0.68508   0.00000  Uiso   1.00
O1222  O     0.93933   0.16667   0.81492   0.00000  Uiso   1.00
O1223  O     0.72733   0.16667   0.68508   0.00000  Uiso   1.00
O1224  O     0.96407   0.13078   0.61505   0.00000  Uiso   1.00
C1225  C     0.33263   0.42079   0.75172   0.00000  Uiso   1.00
C1226  C     0.04188   0.35559   0.75066   0.00000  Uiso   1.00
C1227  C     0.33305   0.62397   0.75489   0.00000  Uiso   1.00
C1228  C     0.33148   0.37623   0.75544   0.00000  Uiso   1.00
C1229  C     0.18002   0.48912   0.78731   0.00000  Uiso   1.00
C1230  C     0.15326   0.51136   0.71275   0.00000  Uiso   1.00
C1231  C     0.13074   0.48888   0.78717   0.00000  Uiso   1.00
C1232  C     0.20267   0.51137   0.71279   0.00000  Uiso   1.00
C1233  C     0.30592   0.49828   0.83597   0.00000  Uiso   1.00
C1234  C     0.02731   0.49867   0.66408   0.00000  Uiso   1.00
C1235  C     0.29051   0.49507   0.88505   0.00000  Uiso   1.00
C1236  C     0.33324   0.57929   0.75142   0.00000  Uiso   1.00
C1237  C     0.04249   0.49248   0.61546   0.00000  Uiso   1.00
C1238  C     0.30860   0.49669   0.95645   0.00000  Uiso   1.00
C1239  C     0.02935   0.46538   0.54706   0.00000  Uiso   1.00
C1240  C     0.32364   0.48881   0.91057   0.00000  Uiso   1.00
C1241  C     0.01177   0.47342   0.59284   0.00000  Uiso   1.00
C1242  C     0.24105   0.49813   0.90723   0.00000  Uiso   1.00
C1243  C     0.09061   0.50162   0.59244   0.00000  Uiso   1.00
C1244  C     0.22460   0.49651   0.95408   0.00000  Uiso   1.00
C1245  C     0.10957   0.49135   0.54716   0.00000  Uiso   1.00
C1246  C     0.25923   0.50008   0.97855   0.00000  Uiso   1.00
C1247  C     0.19505   0.50378   0.54744   0.00000  Uiso   1.00
C1248  C     0.07750   0.47487   0.52404   0.00000  Uiso   1.00
C1249  C     0.17496   0.49113   0.97711   0.00000  Uiso   1.00
C1250  C     0.15957   0.49639   0.52435   0.00000  Uiso   1.00
C1251  C     0.29307   0.42143   0.62350   0.00000  Uiso   1.00
C1252  C     0.24314   0.41235   0.65545   0.00000  Uiso   1.00
C1253  C     0.23532   0.36635   0.66422   0.00000  Uiso   1.00
C1254  C     0.03521   0.43257   0.87751   0.00000  Uiso   1.00
C1255  C     0.00844   0.40230   0.91430   0.00000  Uiso   1.00
C1256  C     0.01409   0.35811   0.89709   0.00000  Uiso   1.00
C1257  C     0.22994   0.38525   0.82084   0.00000  Uiso   1.00
C1258  C     0.14123   0.47695   0.95477   0.00000  Uiso   1.00
C1259  C     0.19562   0.35365   0.84968   0.00000  Uiso   1.00
C1260  C     0.17821   0.36762   0.89834   0.00000  Uiso   1.00
C1261  C     0.09055   0.62337   0.79423   0.00000  Uiso   1.00
C1262  C     0.13967   0.60452   0.79241   0.00000  Uiso   1.00
C1263  C     0.14150   0.58906   0.83824   0.00000  Uiso   1.00
C1264  C     0.24413   0.50463   0.52487   0.00000  Uiso   1.00
C1265  C     0.09392   0.46762   0.97824   0.00000  Uiso   1.00
C1266  C     0.28748   0.35387   0.76475   0.00000  Uiso   1.00
C1267  C     0.04270   0.64643   0.75254   0.00000  Uiso   1.00
C1268  C     0.28893   0.64466   0.76201   0.00000  Uiso   1.00
Cu1269 Cu    0.04689   0.50001   0.75000   0.00000  Uiso   1.00
Cu1270 Cu    0.28645   0.49999   0.75000   0.00000  Uiso   1.00
H1271  H     0.27040   0.50808   0.54391   0.00000  Uiso   1.00
H1272  H     0.07581   0.37223   0.74585   0.00000  Uiso   1.00
H1273  H     0.18878   0.48104   0.81775   0.00000  Uiso   1.00
H1274  H     0.14417   0.52102   0.68288   0.00000  Uiso   1.00
H1275  H     0.10349   0.48030   0.81714   0.00000  Uiso   1.00
H1276  H     0.23002   0.52076   0.68293   0.00000  Uiso   1.00
H1277  H     0.32119   0.41063   0.63947   0.00000  Uiso   1.00
H1278  H     0.29663   0.40428   0.59170   0.00000  Uiso   1.00
H1279  H     0.23987   0.42836   0.68775   0.00000  Uiso   1.00
H1280  H     0.21447   0.42410   0.64093   0.00000  Uiso   1.00
H1281  H     0.23603   0.34987   0.63269   0.00000  Uiso   1.00
H1282  H     0.07011   0.45469   0.96025   0.00000  Uiso   1.00
H1283  H     0.19950   0.36096   0.68873   0.00000  Uiso   1.00
H1284  H     0.26401   0.35381   0.67813   0.00000  Uiso   1.00
H1285  H     0.07335   0.42215   0.86475   0.00000  Uiso   1.00
H1286  H     0.01931   0.43051   0.84880   0.00000  Uiso   1.00
H1287  H     0.02298   0.40466   0.94377   0.00000  Uiso   1.00
H1288  H     0.30244   0.40948   0.92516   0.00000  Uiso   1.00
H1289  H     0.00014   0.35483   0.86723   0.00000  Uiso   1.00
H1290  H     0.32651   0.33707   0.92360   0.00000  Uiso   1.00
H1291  H     0.05286   0.34910   0.88814   0.00000  Uiso   1.00
H1292  H     0.21042   0.41473   0.82340   0.00000  Uiso   1.00
H1293  H     0.11256   0.51739   0.61050   0.00000  Uiso   1.00
H1294  H     0.26158   0.39113   0.83454   0.00000  Uiso   1.00
H1295  H     0.16359   0.34943   0.83653   0.00000  Uiso   1.00
H1296  H     0.21453   0.65712   0.84811   0.00000  Uiso   1.00
H1297  H     0.20957   0.37308   0.91217   0.00000  Uiso   1.00
H1298  H     0.15453   0.34347   0.91855   0.00000  Uiso   1.00
H1299  H     0.15690   0.39630   0.90084   0.00000  Uiso   1.00
H1300  H     0.06112   0.60306   0.81434   0.00000  Uiso   1.00
H1301  H     0.08845   0.65386   0.81111   0.00000  Uiso   1.00
H1302  H     0.14677   0.57843   0.76861   0.00000  Uiso   1.00
H1303  H     0.16860   0.62790   0.77993   0.00000  Uiso   1.00
H1304  H     0.21564   0.50237   0.88770   0.00000  Uiso   1.00
H1305  H     0.13203   0.61399   0.86354   0.00000  Uiso   1.00
H1306  H     0.17861   0.57807   0.83621   0.00000  Uiso   1.00
H1307  H     0.11556   0.56312   0.84916   0.00000  Uiso   1.00
H1308  H     0.00183   0.49741   0.97511   0.00000  Uiso   1.00
H1309  H     0.00538   0.45108   0.52979   0.00000  Uiso   1.00
H1310  H     0.18634   0.50597   0.58339   0.00000  Uiso   1.00
H1311  H     0.15134   0.46997   0.91947   0.00000  Uiso   1.00
H1312  H     0.25520   0.62786   0.76653   0.00000  Uiso   1.00
N1313  N     0.11736   0.50001   0.74999   0.00000  Uiso   1.00
N1314  N     0.21597   0.49999   0.75001   0.00000  Uiso   1.00
O1315  O     0.03958   0.43989   0.75000   0.00000  Uiso   1.00
O1316  O     0.03672   0.47392   0.89249   0.00000  Uiso   1.00
O1317  O     0.24285   0.37302   0.77527   0.00000  Uiso   1.00
O1318  O     0.08629   0.62748   0.75019   0.00000  Uiso   1.00
O1319  O     0.29375   0.56011   0.75000   0.00000  Uiso   1.00
O1320  O     0.29372   0.43988   0.75001   0.00000  Uiso   1.00
O1321  O     0.03961   0.56012   0.74999   0.00000  Uiso   1.00
O1322  O     0.01852   0.50001   0.81491   0.00000  Uiso   1.00
O1323  O     0.31481   0.49999   0.68508   0.00000  Uiso   1.00
O1324  O     0.27267   0.50000   0.81492   0.00000  Uiso   1.00
O1325  O     0.06067   0.50000   0.68508   0.00000  Uiso   1.00
O1326  O     0.29740   0.46411   0.61505   0.00000  Uiso   1.00
C1327  C     0.66596   0.42079   0.75172   0.00000  Uiso   1.00
C1328  C     0.37521   0.35559   0.75066   0.00000  Uiso   1.00
C1329  C     0.66638   0.62397   0.75489   0.00000  Uiso   1.00
C1330  C     0.66482   0.37623   0.75544   0.00000  Uiso   1.00
C1331  C     0.51335   0.48912   0.78731   0.00000  Uiso   1.00
C1332  C     0.48659   0.51136   0.71275   0.00000  Uiso   1.00
C1333  C     0.46407   0.48888   0.78717   0.00000  Uiso   1.00
C1334  C     0.53600   0.51137   0.71279   0.00000  Uiso   1.00
C1335  C     0.63925   0.49828   0.83597   0.00000  Uiso   1.00
C1336  C     0.36064   0.49867   0.66408   0.00000  Uiso   1.00
C1337  C     0.62385   0.49507   0.88505   0.00000  Uiso   1.00
C1338  C     0.66657   0.57929   0.75142   0.00000  Uiso   1.00
C1339  C     0.37582   0.49248   0.61546   0.00000  Uiso   1.00
C1340  C     0.64193   0.49669   0.95645   0.00000  Uiso   1.00
C1341  C     0.36268   0.46538   0.54706   0.00000  Uiso   1.00
C1342  C     0.65697   0.48881   0.91057   0.00000  Uiso   1.00
C1343  C     0.34510   0.47342   0.59284   0.00000  Uiso   1.00
C1344  C     0.57438   0.49813   0.90723   0.00000  Uiso   1.00
C1345  C     0.42394   0.50162   0.59244   0.00000  Uiso   1.00
C1346  C     0.55793   0.49651   0.95408   0.00000  Uiso   1.00
C1347  C     0.44291   0.49135   0.54716   0.00000  Uiso   1.00
C1348  C     0.59257   0.50008   0.97855   0.00000  Uiso   1.00
C1349  C     0.52839   0.50378   0.54744   0.00000  Uiso   1.00
C1350  C     0.41083   0.47487   0.52404   0.00000  Uiso   1.00
C1351  C     0.50830   0.49113   0.97711   0.00000  Uiso   1.00
C1352  C     0.49290   0.49639   0.52435   0.00000  Uiso   1.00
C1353  C     0.62640   0.42143   0.62350   0.00000  Uiso   1.00
C1354  C     0.57647   0.41235   0.65545   0.00000  Uiso   1.00
C1355  C     0.56865   0.36635   0.66422   0.00000  Uiso   1.00
C1356  C     0.36854   0.43257   0.87751   0.00000  Uiso   1.00
C1357  C     0.34178   0.40230   0.91430   0.00000  Uiso   1.00
C1358  C     0.34742   0.35811   0.89709   0.00000  Uiso   1.00
C1359  C     0.56327   0.38525   0.82084   0.00000  Uiso   1.00
C1360  C     0.47456   0.47695   0.95477   0.00000  Uiso   1.00
C1361  C     0.52895   0.35365   0.84968   0.00000  Uiso   1.00
C1362  C     0.51154   0.36762   0.89834   0.00000  Uiso   1.00
C1363  C     0.42388   0.62337   0.79423   0.00000  Uiso   1.00
C1364  C     0.47300   0.60452   0.79241   0.00000  Uiso   1.00
C1365  C     0.47483   0.58906   0.83824   0.00000  Uiso   1.00
C1366  C     0.57746   0.50463   0.52487   0.00000  Uiso   1.00
C1367  C     0.42726   0.46762   0.97824   0.00000  Uiso   1.00
C1368  C     0.62082   0.35387   0.76475   0.00000  Uiso   1.00
C1369  C     0.37604   0.64643   0.75254   0.00000  Uiso   1.00
C1370  C     0.62226   0.64466   0.76201   0.00000  Uiso   1.00
Cu1371 Cu    0.38022   0.50001   0.75000   0.00000  Uiso   1.00
Cu1372 Cu    0.61978   0.49999   0.75000   0.00000  Uiso   1.00
H1373  H     0.60373   0.50808   0.54391   0.00000  Uiso   1.00
H1374  H     0.40915   0.37223   0.74585   0.00000  Uiso   1.00
H1375  H     0.52212   0.48104   0.81775   0.00000  Uiso   1.00
H1376  H     0.47750   0.52102   0.68288   0.00000  Uiso   1.00
H1377  H     0.43682   0.48030   0.81714   0.00000  Uiso   1.00
H1378  H     0.56335   0.52076   0.68293   0.00000  Uiso   1.00
H1379  H     0.65453   0.41063   0.63947   0.00000  Uiso   1.00
H1380  H     0.62997   0.40428   0.59170   0.00000  Uiso   1.00
H1381  H     0.57320   0.42836   0.68775   0.00000  Uiso   1.00
H1382  H     0.54780   0.42410   0.64093   0.00000  Uiso   1.00
H1383  H     0.56936   0.34987   0.63269   0.00000  Uiso   1.00
H1384  H     0.40344   0.45469   0.96025   0.00000  Uiso   1.00
H1385  H     0.53284   0.36096   0.68873   0.00000  Uiso   1.00
H1386  H     0.59734   0.35381   0.67813   0.00000  Uiso   1.00
H1387  H     0.40668   0.42215   0.86475   0.00000  Uiso   1.00
H1388  H     0.35264   0.43051   0.84880   0.00000  Uiso   1.00
H1389  H     0.35632   0.40466   0.94377   0.00000  Uiso   1.00
H1390  H     0.63577   0.40948   0.92516   0.00000  Uiso   1.00
H1391  H     0.33347   0.35483   0.86723   0.00000  Uiso   1.00
H1392  H     0.65985   0.33707   0.92360   0.00000  Uiso   1.00
H1393  H     0.38620   0.34910   0.88814   0.00000  Uiso   1.00
H1394  H     0.54375   0.41473   0.82340   0.00000  Uiso   1.00
H1395  H     0.44589   0.51739   0.61050   0.00000  Uiso   1.00
H1396  H     0.59491   0.39113   0.83454   0.00000  Uiso   1.00
H1397  H     0.49692   0.34943   0.83653   0.00000  Uiso   1.00
H1398  H     0.54786   0.65712   0.84811   0.00000  Uiso   1.00
H1399  H     0.54291   0.37308   0.91217   0.00000  Uiso   1.00
H1400  H     0.48787   0.34347   0.91855   0.00000  Uiso   1.00
H1401  H     0.49024   0.39630   0.90084   0.00000  Uiso   1.00
H1402  H     0.39446   0.60306   0.81434   0.00000  Uiso   1.00
H1403  H     0.42179   0.65386   0.81111   0.00000  Uiso   1.00
H1404  H     0.48010   0.57843   0.76861   0.00000  Uiso   1.00
H1405  H     0.50193   0.62790   0.77993   0.00000  Uiso   1.00
H1406  H     0.54897   0.50237   0.88770   0.00000  Uiso   1.00
H1407  H     0.46537   0.61399   0.86354   0.00000  Uiso   1.00
H1408  H     0.51194   0.57807   0.83621   0.00000  Uiso   1.00
H1409  H     0.44889   0.56312   0.84916   0.00000  Uiso   1.00
H1410  H     0.33516   0.49741   0.97511   0.00000  Uiso   1.00
H1411  H     0.33871   0.45108   0.52979   0.00000  Uiso   1.00
H1412  H     0.51968   0.50597   0.58339   0.00000  Uiso   1.00
H1413  H     0.48467   0.46997   0.91947   0.00000  Uiso   1.00
H1414  H     0.58854   0.62786   0.76653   0.00000  Uiso   1.00
N1415  N     0.45069   0.50001   0.74999   0.00000  Uiso   1.00
N1416  N     0.54931   0.49999   0.75001   0.00000  Uiso   1.00
O1417  O     0.37291   0.43989   0.75000   0.00000  Uiso   1.00
O1418  O     0.37005   0.47392   0.89249   0.00000  Uiso   1.00
O1419  O     0.57619   0.37302   0.77527   0.00000  Uiso   1.00
O1420  O     0.41963   0.62748   0.75019   0.00000  Uiso   1.00
O1421  O     0.62709   0.56011   0.75000   0.00000  Uiso   1.00
O1422  O     0.62706   0.43988   0.75001   0.00000  Uiso   1.00
O1423  O     0.37294   0.56012   0.74999   0.00000  Uiso   1.00
O1424  O     0.35186   0.50001   0.81491   0.00000  Uiso   1.00
O1425  O     0.64814   0.49999   0.68508   0.00000  Uiso   1.00
O1426  O     0.60600   0.50000   0.81492   0.00000  Uiso   1.00
O1427  O     0.39400   0.50000   0.68508   0.00000  Uiso   1.00
O1428  O     0.63074   0.46411   0.61505   0.00000  Uiso   1.00
C1429  C     0.99929   0.42079   0.75172   0.00000  Uiso   1.00
C1430  C     0.70855   0.35559   0.75066   0.00000  Uiso   1.00
C1431  C     0.99972   0.62397   0.75489   0.00000  Uiso   1.00
C1432  C     0.99815   0.37623   0.75544   0.00000  Uiso   1.00
C1433  C     0.84668   0.48912   0.78731   0.00000  Uiso   1.00
C1434  C     0.81992   0.51136   0.71275   0.00000  Uiso   1.00
C1435  C     0.79740   0.48888   0.78717   0.00000  Uiso   1.00
C1436  C     0.86933   0.51137   0.71279   0.00000  Uiso   1.00
C1437  C     0.97258   0.49828   0.83597   0.00000  Uiso   1.00
C1438  C     0.69398   0.49867   0.66408   0.00000  Uiso   1.00
C1439  C     0.95718   0.49507   0.88505   0.00000  Uiso   1.00
C1440  C     0.99991   0.57929   0.75142   0.00000  Uiso   1.00
C1441  C     0.70915   0.49248   0.61546   0.00000  Uiso   1.00
C1442  C     0.97527   0.49669   0.95645   0.00000  Uiso   1.00
C1443  C     0.69602   0.46538   0.54706   0.00000  Uiso   1.00
C1444  C     0.99031   0.48881   0.91057   0.00000  Uiso   1.00
C1445  C     0.67844   0.47342   0.59284   0.00000  Uiso   1.00
C1446  C     0.90772   0.49813   0.90723   0.00000  Uiso   1.00
C1447  C     0.75727   0.50162   0.59244   0.00000  Uiso   1.00
C1448  C     0.89127   0.49651   0.95408   0.00000  Uiso   1.00
C1449  C     0.77624   0.49135   0.54716   0.00000  Uiso   1.00
C1450  C     0.92590   0.50008   0.97855   0.00000  Uiso   1.00
C1451  C     0.86172   0.50378   0.54744   0.00000  Uiso   1.00
C1452  C     0.74416   0.47487   0.52404   0.00000  Uiso   1.00
C1453  C     0.84163   0.49113   0.97711   0.00000  Uiso   1.00
C1454  C     0.82623   0.49639   0.52435   0.00000  Uiso   1.00
C1455  C     0.95974   0.42143   0.62350   0.00000  Uiso   1.00
C1456  C     0.90981   0.41235   0.65545   0.00000  Uiso   1.00
C1457  C     0.90199   0.36635   0.66422   0.00000  Uiso   1.00
C1458  C     0.70188   0.43257   0.87751   0.00000  Uiso   1.00
C1459  C     0.67511   0.40230   0.91430   0.00000  Uiso   1.00
C1460  C     0.68075   0.35811   0.89709   0.00000  Uiso   1.00
C1461  C     0.89660   0.38525   0.82084   0.00000  Uiso   1.00
C1462  C     0.80790   0.47695   0.95477   0.00000  Uiso   1.00
C1463  C     0.86228   0.35365   0.84968   0.00000  Uiso   1.00
C1464  C     0.84487   0.36762   0.89834   0.00000  Uiso   1.00
C1465  C     0.75722   0.62337   0.79423   0.00000  Uiso   1.00
C1466  C     0.80634   0.60452   0.79241   0.00000  Uiso   1.00
C1467  C     0.80816   0.58906   0.83824   0.00000  Uiso   1.00
C1468  C     0.91080   0.50463   0.52487   0.00000  Uiso   1.00
C1469  C     0.76059   0.46762   0.97824   0.00000  Uiso   1.00
C1470  C     0.95415   0.35387   0.76475   0.00000  Uiso   1.00
C1471  C     0.70937   0.64643   0.75254   0.00000  Uiso   1.00
C1472  C     0.95559   0.64466   0.76201   0.00000  Uiso   1.00
Cu1473 Cu    0.71355   0.50001   0.75000   0.00000  Uiso   1.00
Cu1474 Cu    0.95311   0.49999   0.75000   0.00000  Uiso   1.00
H1475  H     0.93706   0.50808   0.54391   0.00000  Uiso   1.00
H1476  H     0.74248   0.37223   0.74585   0.00000  Uiso   1.00
H1477  H     0.85545   0.48104   0.81775   0.00000  Uiso   1.00
H1478  H     0.81084   0.52102   0.68288   0.00000  Uiso   1.00
H1479  H     0.77015   0.48030   0.81714   0.00000  Uiso   1.00
H1480  H     0.89669   0.52076   0.68293   0.00000  Uiso   1.00
H1481  H     0.98786   0.41063   0.63947   0.00000  Uiso   1.00
H1482  H     0.96330   0.40428   0.59170   0.00000  Uiso   1.00
H1483  H     0.90654   0.42836   0.68775   0.00000  Uiso   1.00
H1484  H     0.88113   0.42410   0.64093   0.00000  Uiso   1.00
H1485  H     0.90270   0.34987   0.63269   0.00000  Uiso   1.00
H1486  H     0.73678   0.45469   0.96025   0.00000  Uiso   1.00
H1487  H     0.86617   0.36096   0.68873   0.00000  Uiso   1.00
H1488  H     0.93068   0.35381   0.67813   0.00000  Uiso   1.00
H1489  H     0.74001   0.42215   0.86475   0.00000  Uiso   1.00
H1490  H     0.68597   0.43051   0.84880   0.00000  Uiso   1.00
H1491  H     0.68965   0.40466   0.94377   0.00000  Uiso   1.00
H1492  H     0.96910   0.40948   0.92516   0.00000  Uiso   1.00
H1493  H     0.66681   0.35483   0.86723   0.00000  Uiso   1.00
H1494  H     0.99318   0.33707   0.92360   0.00000  Uiso   1.00
H1495  H     0.71953   0.34910   0.88814   0.00000  Uiso   1.00
H1496  H     0.87709   0.41473   0.82340   0.00000  Uiso   1.00
H1497  H     0.77922   0.51739   0.61050   0.00000  Uiso   1.00
H1498  H     0.92824   0.39113   0.83454   0.00000  Uiso   1.00
H1499  H     0.83026   0.34943   0.83653   0.00000  Uiso   1.00
H1500  H     0.88120   0.65712   0.84811   0.00000  Uiso   1.00
H1501  H     0.87624   0.37308   0.91217   0.00000  Uiso   1.00
H1502  H     0.82120   0.34347   0.91855   0.00000  Uiso   1.00
H1503  H     0.82357   0.39630   0.90084   0.00000  Uiso   1.00
H1504  H     0.72779   0.60306   0.81434   0.00000  Uiso   1.00
H1505  H     0.75512   0.65386   0.81111   0.00000  Uiso   1.00
H1506  H     0.81344   0.57843   0.76861   0.00000  Uiso   1.00
H1507  H     0.83527   0.62790   0.77993   0.00000  Uiso   1.00
H1508  H     0.88231   0.50237   0.88770   0.00000  Uiso   1.00
H1509  H     0.79870   0.61399   0.86354   0.00000  Uiso   1.00
H1510  H     0.84528   0.57807   0.83621   0.00000  Uiso   1.00
H1511  H     0.78223   0.56312   0.84916   0.00000  Uiso   1.00
H1512  H     0.66849   0.49741   0.97511   0.00000  Uiso   1.00
H1513  H     0.67204   0.45108   0.52979   0.00000  Uiso   1.00
H1514  H     0.85301   0.50597   0.58339   0.00000  Uiso   1.00
H1515  H     0.81800   0.46997   0.91947   0.00000  Uiso   1.00
H1516  H     0.92187   0.62786   0.76653   0.00000  Uiso   1.00
N1517  N     0.78403   0.50001   0.74999   0.00000  Uiso   1.00
N1518  N     0.88264   0.49999   0.75001   0.00000  Uiso   1.00
O1519  O     0.70625   0.43989   0.75000   0.00000  Uiso   1.00
O1520  O     0.70338   0.47392   0.89249   0.00000  Uiso   1.00
O1521  O     0.90952   0.37302   0.77527   0.00000  Uiso   1.00
O1522  O     0.75296   0.62748   0.75019   0.00000  Uiso   1.00
O1523  O     0.96042   0.56011   0.75000   0.00000  Uiso   1.00
O1524  O     0.96039   0.43988   0.75001   0.00000  Uiso   1.00
O1525  O     0.70628   0.56012   0.74999   0.00000  Uiso   1.00
O1526  O     0.68519   0.50001   0.81491   0.00000  Uiso   1.00
O1527  O     0.98148   0.49999   0.68508   0.00000  Uiso   1.00
O1528  O     0.93933   0.50000   0.81492   0.00000  Uiso   1.00
O1529  O     0.72733   0.50000   0.68508   0.00000  Uiso   1.00
O1530  O     0.96407   0.46411   0.61505   0.00000  Uiso   1.00
C1531  C     0.33263   0.75412   0.75172   0.00000  Uiso   1.00
C1532  C     0.04188   0.68892   0.75066   0.00000  Uiso   1.00
C1533  C     0.33305   0.95730   0.75489   0.00000  Uiso   1.00
C1534  C     0.33148   0.70956   0.75544   0.00000  Uiso   1.00
C1535  C     0.18002   0.82245   0.78731   0.00000  Uiso   1.00
C1536  C     0.15326   0.84469   0.71275   0.00000  Uiso   1.00
C1537  C     0.13074   0.82221   0.78717   0.00000  Uiso   1.00
C1538  C     0.20267   0.84471   0.71279   0.00000  Uiso   1.00
C1539  C     0.30592   0.83161   0.83597   0.00000  Uiso   1.00
C1540  C     0.02731   0.83200   0.66408   0.00000  Uiso   1.00
C1541  C     0.29051   0.82841   0.88505   0.00000  Uiso   1.00
C1542  C     0.33324   0.91262   0.75142   0.00000  Uiso   1.00
C1543  C     0.04249   0.82581   0.61546   0.00000  Uiso   1.00
C1544  C     0.30860   0.83002   0.95645   0.00000  Uiso   1.00
C1545  C     0.02935   0.79871   0.54706   0.00000  Uiso   1.00
C1546  C     0.32364   0.82215   0.91057   0.00000  Uiso   1.00
C1547  C     0.01177   0.80675   0.59284   0.00000  Uiso   1.00
C1548  C     0.24105   0.83146   0.90723   0.00000  Uiso   1.00
C1549  C     0.09061   0.83495   0.59244   0.00000  Uiso   1.00
C1550  C     0.22460   0.82984   0.95408   0.00000  Uiso   1.00
C1551  C     0.10957   0.82468   0.54716   0.00000  Uiso   1.00
C1552  C     0.25923   0.83341   0.97855   0.00000  Uiso   1.00
C1553  C     0.19505   0.83711   0.54744   0.00000  Uiso   1.00
C1554  C     0.07750   0.80820   0.52404   0.00000  Uiso   1.00
C1555  C     0.17496   0.82446   0.97711   0.00000  Uiso   1.00
C1556  C     0.15957   0.82972   0.52435   0.00000  Uiso   1.00
C1557  C     0.29307   0.75476   0.62350   0.00000  Uiso   1.00
C1558  C     0.24314   0.74568   0.65545   0.00000  Uiso   1.00
C1559  C     0.23532   0.69968   0.66422   0.00000  Uiso   1.00
C1560  C     0.03521   0.76591   0.87751   0.00000  Uiso   1.00
C1561  C     0.00844   0.73564   0.91430   0.00000  Uiso   1.00
C1562  C     0.01409   0.69144   0.89709   0.00000  Uiso   1.00
C1563  C     0.22994   0.71858   0.82084   0.00000  Uiso   1.00
C1564  C     0.14123   0.81028   0.95477   0.00000  Uiso   1.00
C1565  C     0.19562   0.68698   0.84968   0.00000  Uiso   1.00
C1566  C     0.17821   0.70095   0.89834   0.00000  Uiso   1.00
C1567  C     0.09055   0.95670   0.79423   0.00000  Uiso   1.00
C1568  C     0.13967   0.93786   0.79241   0.00000  Uiso   1.00
C1569  C     0.14150   0.92240   0.83824   0.00000  Uiso   1.00
C1570  C     0.24413   0.83796   0.52487   0.00000  Uiso   1.00
C1571  C     0.09392   0.80096   0.97824   0.00000  Uiso   1.00
C1572  C     0.28748   0.68721   0.76475   0.00000  Uiso   1.00
C1573  C     0.04270   0.97977   0.75254   0.00000  Uiso   1.00
C1574  C     0.28893   0.97799   0.76201   0.00000  Uiso   1.00
Cu1575 Cu    0.04689   0.83334   0.75000   0.00000  Uiso   1.00
Cu1576 Cu    0.28645   0.83333   0.75000   0.00000  Uiso   1.00
H1577  H     0.27040   0.84141   0.54391   0.00000  Uiso   1.00
H1578  H     0.07581   0.70557   0.74585   0.00000  Uiso   1.00
H1579  H     0.18878   0.81437   0.81775   0.00000  Uiso   1.00
H1580  H     0.14417   0.85435   0.68288   0.00000  Uiso   1.00
H1581  H     0.10349   0.81364   0.81714   0.00000  Uiso   1.00
H1582  H     0.23002   0.85410   0.68293   0.00000  Uiso   1.00
H1583  H     0.32119   0.74396   0.63947   0.00000  Uiso   1.00
H1584  H     0.29663   0.73761   0.59170   0.00000  Uiso   1.00
H1585  H     0.23987   0.76169   0.68775   0.00000  Uiso   1.00
H1586  H     0.21447   0.75743   0.64093   0.00000  Uiso   1.00
H1587  H     0.23603   0.68320   0.63269   0.00000  Uiso   1.00
H1588  H     0.07011   0.78803   0.96025   0.00000  Uiso   1.00
H1589  H     0.19950   0.69429   0.68873   0.00000  Uiso   1.00
H1590  H     0.26401   0.68715   0.67813   0.00000  Uiso   1.00
H1591  H     0.07335   0.75548   0.86475   0.00000  Uiso   1.00
H1592  H     0.01931   0.76384   0.84880   0.00000  Uiso   1.00
H1593  H     0.02298   0.73799   0.94377   0.00000  Uiso   1.00
H1594  H     0.30244   0.74282   0.92516   0.00000  Uiso   1.00
H1595  H     0.00014   0.68816   0.86723   0.00000  Uiso   1.00
H1596  H     0.32651   0.67040   0.92360   0.00000  Uiso   1.00
H1597  H     0.05286   0.68243   0.88814   0.00000  Uiso   1.00
H1598  H     0.21042   0.74807   0.82340   0.00000  Uiso   1.00
H1599  H     0.11256   0.85072   0.61050   0.00000  Uiso   1.00
H1600  H     0.26158   0.72446   0.83454   0.00000  Uiso   1.00
H1601  H     0.16359   0.68277   0.83653   0.00000  Uiso   1.00
H1602  H     0.21453   0.99045   0.84811   0.00000  Uiso   1.00
H1603  H     0.20957   0.70641   0.91217   0.00000  Uiso   1.00
H1604  H     0.15453   0.67680   0.91855   0.00000  Uiso   1.00
H1605  H     0.15690   0.72963   0.90084   0.00000  Uiso   1.00
H1606  H     0.06112   0.93639   0.81434   0.00000  Uiso   1.00
H1607  H     0.08845   0.98719   0.81111   0.00000  Uiso   1.00
H1608  H     0.14677   0.91177   0.76861   0.00000  Uiso   1.00
H1609  H     0.16860   0.96123   0.77993   0.00000  Uiso   1.00
H1610  H     0.21564   0.83571   0.88770   0.00000  Uiso   1.00
H1611  H     0.13203   0.94732   0.86354   0.00000  Uiso   1.00
H1612  H     0.17861   0.91140   0.83621   0.00000  Uiso   1.00
H1613  H     0.11556   0.89645   0.84916   0.00000  Uiso   1.00
H1614  H     0.00183   0.83074   0.97511   0.00000  Uiso   1.00
H1615  H     0.00538   0.78442   0.52979   0.00000  Uiso   1.00
H1616  H     0.18634   0.83930   0.58339   0.00000  Uiso   1.00
H1617  H     0.15134   0.80330   0.91947   0.00000  Uiso   1.00
H1618  H     0.25520   0.96119   0.76653   0.00000  Uiso   1.00
N1619  N     0.11736   0.83334   0.74999   0.00000  Uiso   1.00
N1620  N     0.21597   0.83332   0.75001   0.00000  Uiso   1.00
O1621  O     0.03958   0.77322   0.75000   0.00000  Uiso   1.00
O1622  O     0.03672   0.80725   0.89249   0.00000  Uiso   1.00
O1623  O     0.24285   0.70635   0.77527   0.00000  Uiso   1.00
O1624  O     0.08629   0.96081   0.75019   0.00000  Uiso   1.00
O1625  O     0.29375   0.89345   0.75000   0.00000  Uiso   1.00
O1626  O     0.29372   0.77321   0.75001   0.00000  Uiso   1.00
O1627  O     0.03961   0.89346   0.74999   0.00000  Uiso   1.00
O1628  O     0.01852   0.83334   0.81491   0.00000  Uiso   1.00
O1629  O     0.31481   0.83332   0.68508   0.00000  Uiso   1.00
O1630  O     0.27267   0.83333   0.81492   0.00000  Uiso   1.00
O1631  O     0.06067   0.83333   0.68508   0.00000  Uiso   1.00
O1632  O     0.29740   0.79744   0.61505   0.00000  Uiso   1.00
C1633  C     0.66596   0.75412   0.75172   0.00000  Uiso   1.00
C1634  C     0.37521   0.68892   0.75066   0.00000  Uiso   1.00
C1635  C     0.66638   0.95730   0.75489   0.00000  Uiso   1.00
C1636  C     0.66482   0.70956   0.75544   0.00000  Uiso   1.00
C1637  C     0.51335   0.82245   0.78731   0.00000  Uiso   1.00
C1638  C     0.48659   0.84469   0.71275   0.00000  Uiso   1.00
C1639  C     0.46407   0.82221   0.78717   0.00000  Uiso   1.00
C1640  C     0.53600   0.84471   0.71279   0.00000  Uiso   1.00
C1641  C     0.63925   0.83161   0.83597   0.00000  Uiso   1.00
C1642  C     0.36064   0.83200   0.66408   0.00000  Uiso   1.00
C1643  C     0.62385   0.82841   0.88505   0.00000  Uiso   1.00
C1644  C     0.66657   0.91262   0.75142   0.00000  Uiso   1.00
C1645  C     0.37582   0.82581   0.61546   0.00000  Uiso   1.00
C1646  C     0.64193   0.83002   0.95645   0.00000  Uiso   1.00
C1647  C     0.36268   0.79871   0.54706   0.00000  Uiso   1.00
C1648  C     0.65697   0.82215   0.91057   0.00000  Uiso   1.00
C1649  C     0.34510   0.80675   0.59284   0.00000  Uiso   1.00
C1650  C     0.57438   0.83146   0.90723   0.00000  Uiso   1.00
C1651  C     0.42394   0.83495   0.59244   0.00000  Uiso   1.00
C1652  C     0.55793   0.82984   0.95408   0.00000  Uiso   1.00
C1653  C     0.44291   0.82468   0.54716   0.00000  Uiso   1.00
C1654  C     0.59257   0.83341   0.97855   0.00000  Uiso   1.00
C1655  C     0.52839   0.83711   0.54744   0.00000  Uiso   1.00
C1656  C     0.41083   0.80820   0.52404   0.00000  Uiso   1.00
C1657  C     0.50830   0.82446   0.97711   0.00000  Uiso   1.00
C1658  C     0.49290   0.82972   0.52435   0.00000  Uiso   1.00
C1659  C     0.62640   0.75476   0.62350   0.00000  Uiso   1.00
C1660  C     0.57647   0.74568   0.65545   0.00000  Uiso   1.00
C1661  C     0.56865   0.69968   0.66422   0.00000  Uiso   1.00
C1662  C     0.36854   0.76591   0.87751   0.00000  Uiso   1.00
C1663  C     0.34178   0.73564   0.91430   0.00000  Uiso   1.00
C1664  C     0.34742   0.69144   0.89709   0.00000  Uiso   1.00
C1665  C     0.56327   0.71858   0.82084   0.00000  Uiso   1.00
C1666  C     0.47456   0.81028   0.95477   0.00000  Uiso   1.00
C1667  C     0.52895   0.68698   0.84968   0.00000  Uiso   1.00
C1668  C     0.51154   0.70095   0.89834   0.00000  Uiso   1.00
C1669  C     0.42388   0.95670   0.79423   0.00000  Uiso   1.00
C1670  C     0.47300   0.93786   0.79241   0.00000  Uiso   1.00
C1671  C     0.47483   0.92240   0.83824   0.00000  Uiso   1.00
C1672  C     0.57746   0.83796   0.52487   0.00000  Uiso   1.00
C1673  C     0.42726   0.80096   0.97824   0.00000  Uiso   1.00
C1674  C     0.62082   0.68721   0.76475   0.00000  Uiso   1.00
C1675  C     0.37604   0.97977   0.75254   0.00000  Uiso   1.00
C1676  C     0.62226   0.97799   0.76201   0.00000  Uiso   1.00
Cu1677 Cu    0.38022   0.83334   0.75000   0.00000  Uiso   1.00
Cu1678 Cu    0.61978   0.83333   0.75000   0.00000  Uiso   1.00
H1679  H     0.60373   0.84141   0.54391   0.00000  Uiso   1.00
H1680  H     0.40915   0.70557   0.74585   0.00000  Uiso   1.00
H1681  H     0.52212   0.81437   0.81775   0.00000  Uiso   1.00
H1682  H     0.47750   0.85435   0.68288   0.00000  Uiso   1.00
H1683  H     0.43682   0.81364   0.81714   0.00000  Uiso   1.00
H1684  H     0.56335   0.85410   0.68293   0.00000  Uiso   1.00
H1685  H     0.65453   0.74396   0.63947   0.00000  Uiso   1.00
H1686  H     0.62997   0.73761   0.59170   0.00000  Uiso   1.00
H1687  H     0.57320   0.76169   0.68775   0.00000  Uiso   1.00
H1688  H     0.54780   0.75743   0.64093   0.00000  Uiso   1.00
H1689  H     0.56936   0.68320   0.63269   0.00000  Uiso   1.00
H1690  H     0.40344   0.78803   0.96025   0.00000  Uiso   1.00
H1691  H     0.53284   0.69429   0.68873   0.00000  Uiso   1.00
H1692  H     0.59734   0.68715   0.67813   0.00000  Uiso   1.00
H1693  H     0.40668   0.75548   0.86475   0.00000  Uiso   1.00
H1694  H     0.35264   0.76384   0.84880   0.00000  Uiso   1.00
H1695  H     0.35632   0.73799   0.94377   0.00000  Uiso   1.00
H1696  H     0.63577   0.74282   0.92516   0.00000  Uiso   1.00
H1697  H     0.33347   0.68816   0.86723   0.00000  Uiso   1.00
H1698  H     0.65985   0.67040   0.92360   0.00000  Uiso   1.00
H1699  H     0.38620   0.68243   0.88814   0.00000  Uiso   1.00
H1700  H     0.54375   0.74807   0.82340   0.00000  Uiso   1.00
H1701  H     0.44589   0.85072   0.61050   0.00000  Uiso   1.00
H1702  H     0.59491   0.72446   0.83454   0.00000  Uiso   1.00
H1703  H     0.49692   0.68277   0.83653   0.00000  Uiso   1.00
H1704  H     0.54786   0.99045   0.84811   0.00000  Uiso   1.00
H1705  H     0.54291   0.70641   0.91217   0.00000  Uiso   1.00
H1706  H     0.48787   0.67680   0.91855   0.00000  Uiso   1.00
H1707  H     0.49024   0.72963   0.90084   0.00000  Uiso   1.00
H1708  H     0.39446   0.93639   0.81434   0.00000  Uiso   1.00
H1709  H     0.42179   0.98719   0.81111   0.00000  Uiso   1.00
H1710  H     0.48010   0.91177   0.76861   0.00000  Uiso   1.00
H1711  H     0.50193   0.96123   0.77993   0.00000  Uiso   1.00
H1712  H     0.54897   0.83571   0.88770   0.00000  Uiso   1.00
H1713  H     0.46537   0.94732   0.86354   0.00000  Uiso   1.00
H1714  H     0.51194   0.91140   0.83621   0.00000  Uiso   1.00
H1715  H     0.44889   0.89645   0.84916   0.00000  Uiso   1.00
H1716  H     0.33516   0.83074   0.97511   0.00000  Uiso   1.00
H1717  H     0.33871   0.78442   0.52979   0.00000  Uiso   1.00
H1718  H     0.51968   0.83930   0.58339   0.00000  Uiso   1.00
H1719  H     0.48467   0.80330   0.91947   0.00000  Uiso   1.00
H1720  H     0.58854   0.96119   0.76653   0.00000  Uiso   1.00
N1721  N     0.45069   0.83334   0.74999   0.00000  Uiso   1.00
N1722  N     0.54931   0.83332   0.75001   0.00000  Uiso   1.00
O1723  O     0.37291   0.77322   0.75000   0.00000  Uiso   1.00
O1724  O     0.37005   0.80725   0.89249   0.00000  Uiso   1.00
O1725  O     0.57619   0.70635   0.77527   0.00000  Uiso   1.00
O1726  O     0.41963   0.96081   0.75019   0.00000  Uiso   1.00
O1727  O     0.62709   0.89345   0.75000   0.00000  Uiso   1.00
O1728  O     0.62706   0.77321   0.75001   0.00000  Uiso   1.00
O1729  O     0.37294   0.89346   0.74999   0.00000  Uiso   1.00
O1730  O     0.35186   0.83334   0.81491   0.00000  Uiso   1.00
O1731  O     0.64814   0.83332   0.68508   0.00000  Uiso   1.00
O1732  O     0.60600   0.83333   0.81492   0.00000  Uiso   1.00
O1733  O     0.39400   0.83333   0.68508   0.00000  Uiso   1.00
O1734  O     0.63074   0.79744   0.61505   0.00000  Uiso   1.00
C1735  C     0.99929   0.75412   0.75172   0.00000  Uiso   1.00
C1736  C     0.70855   0.68892   0.75066   0.00000  Uiso   1.00
C1737  C     0.99972   0.95730   0.75489   0.00000  Uiso   1.00
C1738  C     0.99815   0.70956   0.75544   0.00000  Uiso   1.00
C1739  C     0.84668   0.82245   0.78731   0.00000  Uiso   1.00
C1740  C     0.81992   0.84469   0.71275   0.00000  Uiso   1.00
C1741  C     0.79740   0.82221   0.78717   0.00000  Uiso   1.00
C1742  C     0.86933   0.84471   0.71279   0.00000  Uiso   1.00
C1743  C     0.97258   0.83161   0.83597   0.00000  Uiso   1.00
C1744  C     0.69398   0.83200   0.66408   0.00000  Uiso   1.00
C1745  C     0.95718   0.82841   0.88505   0.00000  Uiso   1.00
C1746  C     0.99991   0.91262   0.75142   0.00000  Uiso   1.00
C1747  C     0.70915   0.82581   0.61546   0.00000  Uiso   1.00
C1748  C     0.97527   0.83002   0.95645   0.00000  Uiso   1.00
C1749  C     0.69602   0.79871   0.54706   0.00000  Uiso   1.00
C1750  C     0.99031   0.82215   0.91057   0.00000  Uiso   1.00
C1751  C     0.67844   0.80675   0.59284   0.00000  Uiso   1.00
C1752  C     0.90772   0.83146   0.90723   0.00000  Uiso   1.00
C1753  C     0.75727   0.83495   0.59244   0.00000  Uiso   1.00
C1754  C     0.89127   0.82984   0.95408   0.00000  Uiso   1.00
C1755  C     0.77624   0.82468   0.54716   0.00000  Uiso   1.00
C1756  C     0.92590   0.83341   0.97855   0.00000  Uiso   1.00
C1757  C     0.86172   0.83711   0.54744   0.00000  Uiso   1.00
C1758  C     0.74416   0.80820   0.52404   0.00000  Uiso   1.00
C1759  C     0.84163   0.82446   0.97711   0.00000  Uiso   1.00
C1760  C     0.82623   0.82972   0.52435   0.00000  Uiso   1.00
C1761  C     0.95974   0.75476   0.62350   0.00000  Uiso   1.00
C1762  C     0.90981   0.74568   0.65545   0.00000  Uiso   1.00
C1763  C     0.90199   0.69968   0.66422   0.00000  Uiso   1.00
C1764  C     0.70188   0.76591   0.87751   0.00000  Uiso   1.00
C1765  C     0.67511   0.73564   0.91430   0.00000  Uiso   1.00
C1766  C     0.68075   0.69144   0.89709   0.00000  Uiso   1.00
C1767  C     0.89660   0.71858   0.82084   0.00000  Uiso   1.00
C1768  C     0.80790   0.81028   0.95477   0.00000  Uiso   1.00
C1769  C     0.86228   0.68698   0.84968   0.00000  Uiso   1.00
C1770  C     0.84487   0.70095   0.89834   0.00000  Uiso   1.00
C1771  C     0.75722   0.95670   0.79423   0.00000  Uiso   1.00
C1772  C     0.80634   0.93786   0.79241   0.00000  Uiso   1.00
C1773  C     0.80816   0.92240   0.83824   0.00000  Uiso   1.00
C1774  C     0.91080   0.83796   0.52487   0.00000  Uiso   1.00
C1775  C     0.76059   0.80096   0.97824   0.00000  Uiso   1.00
C1776  C     0.95415   0.68721   0.76475   0.00000  Uiso   1.00
C1777  C     0.70937   0.97977   0.75254   0.00000  Uiso   1.00
C1778  C     0.95559   0.97799   0.76201   0.00000  Uiso   1.00
Cu1779 Cu    0.71355   0.83334   0.75000   0.00000  Uiso   1.00
Cu1780 Cu    0.95311   0.83333   0.75000   0.00000  Uiso   1.00
H1781  H     0.93706   0.84141   0.54391   0.00000  Uiso   1.00
H1782  H     0.74248   0.70557   0.74585   0.00000  Uiso   1.00
H1783  H     0.85545   0.81437   0.81775   0.00000  Uiso   1.00
H1784  H     0.81084   0.85435   0.68288   0.00000  Uiso   1.00
H1785  H     0.77015   0.81364   0.81714   0.00000  Uiso   1.00
H1786  H     0.89669   0.85410   0.68293   0.00000  Uiso   1.00
H1787  H     0.98786   0.74396   0.63947   0.00000  Uiso   1.00
H1788  H     0.96330   0.73761   0.59170   0.00000  Uiso   1.00
H1789  H     0.90654   0.76169   0.68775   0.00000  Uiso   1.00
H1790  H     0.88113   0.75743   0.64093   0.00000  Uiso   1.00
H1791  H     0.90270   0.68320   0.63269   0.00000  Uiso   1.00
H1792  H     0.73678   0.78803   0.96025   0.00000  Uiso   1.00
H1793  H     0.86617   0.69429   0.68873   0.00000  Uiso   1.00
H1794  H     0.93068   0.68715   0.67813   0.00000  Uiso   1.00
H1795  H     0.74001   0.75548   0.86475   0.00000  Uiso   1.00
H1796  H     0.68597   0.76384   0.84880   0.00000  Uiso   1.00
H1797  H     0.68965   0.73799   0.94377   0.00000  Uiso   1.00
H1798  H     0.96910   0.74282   0.92516   0.00000  Uiso   1.00
H1799  H     0.66681   0.68816   0.86723   0.00000  Uiso   1.00
H1800  H     0.99318   0.67040   0.92360   0.00000  Uiso   1.00
H1801  H     0.71953   0.68243   0.88814   0.00000  Uiso   1.00
H1802  H     0.87709   0.74807   0.82340   0.00000  Uiso   1.00
H1803  H     0.77922   0.85072   0.61050   0.00000  Uiso   1.00
H1804  H     0.92824   0.72446   0.83454   0.00000  Uiso   1.00
H1805  H     0.83026   0.68277   0.83653   0.00000  Uiso   1.00
H1806  H     0.88120   0.99045   0.84811   0.00000  Uiso   1.00
H1807  H     0.87624   0.70641   0.91217   0.00000  Uiso   1.00
H1808  H     0.82120   0.67680   0.91855   0.00000  Uiso   1.00
H1809  H     0.82357   0.72963   0.90084   0.00000  Uiso   1.00
H1810  H     0.72779   0.93639   0.81434   0.00000  Uiso   1.00
H1811  H     0.75512   0.98719   0.81111   0.00000  Uiso   1.00
H1812  H     0.81344   0.91177   0.76861   0.00000  Uiso   1.00
H1813  H     0.83527   0.96123   0.77993   0.00000  Uiso   1.00
H1814  H     0.88231   0.83571   0.88770   0.00000  Uiso   1.00
H1815  H     0.79870   0.94732   0.86354   0.00000  Uiso   1.00
H1816  H     0.84528   0.91140   0.83621   0.00000  Uiso   1.00
H1817  H     0.78223   0.89645   0.84916   0.00000  Uiso   1.00
H1818  H     0.66849   0.83074   0.97511   0.00000  Uiso   1.00
H1819  H     0.67204   0.78442   0.52979   0.00000  Uiso   1.00
H1820  H     0.85301   0.83930   0.58339   0.00000  Uiso   1.00
H1821  H     0.81800   0.80330   0.91947   0.00000  Uiso   1.00
H1822  H     0.92187   0.96119   0.76653   0.00000  Uiso   1.00
N1823  N     0.78403   0.83334   0.74999   0.00000  Uiso   1.00
N1824  N     0.88264   0.83332   0.75001   0.00000  Uiso   1.00
O1825  O     0.70625   0.77322   0.75000   0.00000  Uiso   1.00
O1826  O     0.70338   0.80725   0.89249   0.00000  Uiso   1.00
O1827  O     0.90952   0.70635   0.77527   0.00000  Uiso   1.00
O1828  O     0.75296   0.96081   0.75019   0.00000  Uiso   1.00
O1829  O     0.96042   0.89345   0.75000   0.00000  Uiso   1.00
O1830  O     0.96039   0.77321   0.75001   0.00000  Uiso   1.00
O1831  O     0.70628   0.89346   0.74999   0.00000  Uiso   1.00
O1832  O     0.68519   0.83334   0.81491   0.00000  Uiso   1.00
O1833  O     0.98148   0.83332   0.68508   0.00000  Uiso   1.00
O1834  O     0.93933   0.83333   0.81492   0.00000  Uiso   1.00
O1835  O     0.72733   0.83333   0.68508   0.00000  Uiso   1.00
O1836  O     0.96407   0.79744   0.61505   0.00000  Uiso   1.00
loop_
_geom_bond_atom_site_label_1
_geom_bond_atom_site_label_2
_geom_bond_distance
_geom_bond_site_symmetry_2
_ccdc_geom_bond_type
C1     C4      1.454   .     S
C1     O96     1.295   .     A
C1     O193    1.295   .     S
C2     H48     1.084   .     S
C2     C208    1.399   1_455 S
C2     C655    1.385   1_545 S
C3     C12     1.457   .     S
C3     C44     1.401   .     A
C3     C145    1.413   .     S
C4     C42     1.411   .     A
C4     C104    1.399   .     S
C5     N90     1.368   .     A
C5     H49     1.078   .     S
C5     C7      1.414   .     A
C6     C8      1.417   .     A
C6     H50     1.080   .     S
C6     N89     1.370   .     A
C7     N89     1.365   .     A
C7     H51     1.074   .     S
C8     H52     1.081   .     S
C8     N90     1.367   .     A
C9     C11     1.471   .     S
C9     O100    1.298   .     A
C9     O200    1.301   .     S
C10    O101    1.298   .     A
C10    C13     1.467   .     S
C10    O303    1.298   1_455 S
C11    C18     1.400   .     A
C11    C16     1.411   .     A
C12    O95     1.300   .     A
C12    O199    1.292   .     S
C13    C19     1.399   .     A
C13    C17     1.408   .     A
C14    C16     1.395   .     A
C14    C22     1.398   .     A
C14    H186    1.077   .     S
C15    H85     1.083   .     S
C15    C24     1.402   .     A
C15    C17     1.397   .     A
C16    O194    1.385   .     S
C17    O306    1.384   1_455 S
C18    C20     1.403   .     A
C18    H80     1.079   .     S
C19    C21     1.402   .     A
C19    H69     1.078   .     S
C20    C25     1.416   .     A
C20    C22     1.411   .     A
C21    C26     1.422   .     A
C21    C24     1.415   .     A
C22    C958    1.393   .     S
C23    C40     1.389   .     A
C23    C26     1.416   .     A
C23    H86     1.078   .     S
C24    C959    1.391   1_554 S
C25    C34     1.411   .     A
C25    C944    1.422   .     S
C26    C943    1.422   1_554 S
C27    H54     1.114   .     S
C27    H53     1.117   .     S
C27    O102    1.412   .     S
C27    C28     1.529   .     S
C28    H56     1.112   .     S
C28    C29     1.526   .     S
C28    H55     1.111   .     S
C29    H59     1.111   .     S
C29    H60     1.110   .     S
C29    H57     1.111   .     S
C30    O92     1.426   .     S
C30    H62     1.110   .     S
C30    C31     1.543   .     S
C30    H61     1.111   .     S
C31    H63     1.108   .     S
C31    C32     1.527   .     S
C31    H268    1.111   1_455 S
C32    H67     1.111   .     S
C32    H65     1.112   .     S
C32    H270    1.110   1_455 S
C33    H70     1.118   .     S
C33    O93     1.418   .     S
C33    C35     1.528   .     S
C33    H68     1.106   .     S
C34    C41     1.384   .     A
C34    H87     1.079   .     S
C35    C36     1.526   .     S
C35    H71     1.111   .     S
C35    H684    1.111   1_545 S
C36    H75     1.110   .     S
C36    H74     1.111   .     S
C36    H73     1.111   .     S
C37    H77     1.115   .     S
C37    C38     1.527   .     S
C37    H76     1.115   .     S
C37    O94     1.414   .     S
C38    C39     1.527   .     S
C38    H78     1.107   .     S
C38    H79     1.110   .     S
C39    H81     1.110   .     S
C39    H82     1.111   .     S
C39    H83     1.111   .     S
C40    H47     1.083   .     S
C40    C940    1.393   1_554 S
C41    H58     1.077   .     S
C41    C942    1.391   .     S
C42    O93     1.383   .     S
C42    C656    1.387   1_545 S
C43    O94     1.382   .     S
C43    C207    1.413   1_455 S
C43    C308    1.385   .     S
C44    H88     1.082   .     S
C44    C348    1.387   .     S
Cu45   O98     1.957   .     S
Cu45   N89     2.021   .     S
Cu45   O101    1.947   .     S
Cu45   O97     1.969   .     S
Cu45   O91     1.966   .     S
Cu45   Cu250   2.689   1_455 S
Cu46   O99     1.957   .     S
Cu46   O95     1.966   .     S
Cu46   O100    1.947   .     S
Cu46   N90     2.021   .     S
Cu46   O96     1.969   .     S
Cu46   Cu147   2.689   .     S
H64    C133    1.111   .     S
H66    C134    1.110   .     S
H72    C341    1.111   .     S
H84    C218    1.077   1_455 S
O91    C205    1.295   1_455 S
O92    C220    1.385   1_455 S
O97    C216    1.292   1_455 S
O98    C213    1.301   1_455 S
O99    C112    1.298   .     S
O102   C119    1.384   .     S
C103   C106    1.454   .     S
C103   O198    1.295   .     A
C103   O295    1.295   .     S
C104   H150    1.084   .     S
C104   C757    1.385   1_545 S
C105   C114    1.457   .     S
C105   C146    1.401   .     A
C105   C247    1.413   .     S
C106   C144    1.411   .     A
C106   C206    1.399   .     S
C107   N192    1.368   .     A
C107   H151    1.078   .     S
C107   C109    1.414   .     A
C108   C110    1.417   .     A
C108   H152    1.080   .     S
C108   N191    1.370   .     A
C109   N191    1.365   .     A
C109   H153    1.074   .     S
C110   H154    1.081   .     S
C110   N192    1.367   .     A
C111   C113    1.471   .     S
C111   O202    1.298   .     A
C111   O302    1.301   .     S
C112   O203    1.298   .     A
C112   C115    1.467   .     S
C113   C120    1.400   .     A
C113   C118    1.411   .     A
C114   O197    1.300   .     A
C114   O301    1.292   .     S
C115   C121    1.399   .     A
C115   C119    1.408   .     A
C116   C118    1.395   .     A
C116   C124    1.398   .     A
C116   H288    1.077   .     S
C117   H187    1.083   .     S
C117   C126    1.402   .     A
C117   C119    1.397   .     A
C118   O296    1.385   .     S
C120   C122    1.403   .     A
C120   H182    1.079   .     S
C121   C123    1.402   .     A
C121   H171    1.078   .     S
C122   C127    1.416   .     A
C122   C124    1.411   .     A
C123   C128    1.422   .     A
C123   C126    1.415   .     A
C124   C1060   1.393   .     S
C125   C142    1.389   .     A
C125   C128    1.416   .     A
C125   H188    1.078   .     S
C126   C1061   1.391   1_554 S
C127   C136    1.411   .     A
C127   C1046   1.422   .     S
C128   C1045   1.422   1_554 S
C129   H156    1.114   .     S
C129   H155    1.117   .     S
C129   O204    1.412   .     S
C129   C130    1.529   .     S
C130   H158    1.112   .     S
C130   C131    1.526   .     S
C130   H157    1.111   .     S
C131   H161    1.111   .     S
C131   H162    1.110   .     S
C131   H159    1.111   .     S
C132   O194    1.426   .     S
C132   H164    1.110   .     S
C132   C133    1.543   .     S
C132   H163    1.111   .     S
C133   H165    1.108   .     S
C133   C134    1.527   .     S
C134   H169    1.111   .     S
C134   H167    1.112   .     S
C135   H172    1.118   .     S
C135   O195    1.418   .     S
C135   C137    1.528   .     S
C135   H170    1.106   .     S
C136   C143    1.384   .     A
C136   H189    1.079   .     S
C137   C138    1.526   .     S
C137   H173    1.111   .     S
C137   H786    1.111   1_545 S
C138   H177    1.110   .     S
C138   H176    1.111   .     S
C138   H175    1.111   .     S
C139   H179    1.115   .     S
C139   C140    1.527   .     S
C139   H178    1.115   .     S
C139   O196    1.414   .     S
C140   C141    1.527   .     S
C140   H180    1.107   .     S
C140   H181    1.110   .     S
C141   H183    1.110   .     S
C141   H184    1.111   .     S
C141   H185    1.111   .     S
C142   H149    1.083   .     S
C142   C1042   1.393   1_554 S
C143   H160    1.077   .     S
C143   C1044   1.391   .     S
C144   O195    1.383   .     S
C144   C758    1.387   1_545 S
C145   O196    1.382   .     S
C145   C410    1.385   .     S
C146   H190    1.082   .     S
C146   C450    1.387   .     S
Cu147  O200    1.957   .     S
Cu147  N191    2.021   .     S
Cu147  O203    1.947   .     S
Cu147  O199    1.969   .     S
Cu147  O193    1.966   .     S
Cu148  O201    1.957   .     S
Cu148  O197    1.966   .     S
Cu148  O202    1.947   .     S
Cu148  N192    2.021   .     S
Cu148  O198    1.969   .     S
Cu148  Cu249   2.689   .     S
H166   C235    1.111   .     S
H168   C236    1.110   .     S
H174   C443    1.111   .     S
O201   C214    1.298   .     S
O204   C221    1.384   .     S
C205   C208    1.454   .     S
C205   O300    1.295   .     A
C205   O91     1.295   1_655 S
C206   H252    1.084   .     S
C206   C859    1.385   1_545 S
C207   C216    1.457   .     S
C207   C248    1.401   .     A
C207   C43     1.413   1_655 S
C208   C246    1.411   .     A
C208   C2      1.399   1_655 S
C209   N294    1.368   .     A
C209   H253    1.078   .     S
C209   C211    1.414   .     A
C210   C212    1.417   .     A
C210   H254    1.080   .     S
C210   N293    1.370   .     A
C211   N293    1.365   .     A
C211   H255    1.074   .     S
C212   H256    1.081   .     S
C212   N294    1.367   .     A
C213   C215    1.471   .     S
C213   O304    1.298   .     A
C213   O98     1.301   1_655 S
C214   O305    1.298   .     A
C214   C217    1.467   .     S
C215   C222    1.400   .     A
C215   C220    1.411   .     A
C216   O299    1.300   .     A
C216   O97     1.292   1_655 S
C217   C223    1.399   .     A
C217   C221    1.408   .     A
C218   C220    1.395   .     A
C218   C226    1.398   .     A
C218   H84     1.077   1_655 S
C219   H289    1.083   .     S
C219   C228    1.402   .     A
C219   C221    1.397   .     A
C220   O92     1.385   1_655 S
C222   C224    1.403   .     A
C222   H284    1.079   .     S
C223   C225    1.402   .     A
C223   H273    1.078   .     S
C224   C229    1.416   .     A
C224   C226    1.411   .     A
C225   C230    1.422   .     A
C225   C228    1.415   .     A
C226   C1162   1.393   .     S
C227   C244    1.389   .     A
C227   C230    1.416   .     A
C227   H290    1.078   .     S
C228   C1163   1.391   1_554 S
C229   C238    1.411   .     A
C229   C1148   1.422   .     S
C230   C1147   1.422   1_554 S
C231   H258    1.114   .     S
C231   H257    1.117   .     S
C231   O306    1.412   .     S
C231   C232    1.529   .     S
C232   H260    1.112   .     S
C232   C233    1.526   .     S
C232   H259    1.111   .     S
C233   H263    1.111   .     S
C233   H264    1.110   .     S
C233   H261    1.111   .     S
C234   O296    1.426   .     S
C234   H266    1.110   .     S
C234   C235    1.543   .     S
C234   H265    1.111   .     S
C235   H267    1.108   .     S
C235   C236    1.527   .     S
C236   H271    1.111   .     S
C236   H269    1.112   .     S
C237   H274    1.118   .     S
C237   O297    1.418   .     S
C237   C239    1.528   .     S
C237   H272    1.106   .     S
C238   C245    1.384   .     A
C238   H291    1.079   .     S
C239   C240    1.526   .     S
C239   H275    1.111   .     S
C239   H888    1.111   1_545 S
C240   H279    1.110   .     S
C240   H278    1.111   .     S
C240   H277    1.111   .     S
C241   H281    1.115   .     S
C241   C242    1.527   .     S
C241   H280    1.115   .     S
C241   O298    1.414   .     S
C242   C243    1.527   .     S
C242   H282    1.107   .     S
C242   H283    1.110   .     S
C243   H285    1.110   .     S
C243   H286    1.111   .     S
C243   H287    1.111   .     S
C244   H251    1.083   .     S
C244   C1144   1.393   1_554 S
C245   H262    1.077   .     S
C245   C1146   1.391   .     S
C246   O297    1.383   .     S
C246   C860    1.387   1_545 S
C247   O298    1.382   .     S
C247   C512    1.385   .     S
C248   H292    1.082   .     S
C248   C552    1.387   .     S
Cu249  O302    1.957   .     S
Cu249  N293    2.021   .     S
Cu249  O305    1.947   .     S
Cu249  O301    1.969   .     S
Cu249  O295    1.966   .     S
Cu250  O303    1.957   .     S
Cu250  O299    1.966   .     S
Cu250  O304    1.947   .     S
Cu250  N294    2.021   .     S
Cu250  O300    1.969   .     S
Cu250  Cu45    2.689   1_655 S
H268   C31     1.111   1_655 S
H270   C32     1.110   1_655 S
H276   C545    1.111   .     S
O303   C10     1.298   1_655 S
O306   C17     1.384   1_655 S
C307   C310    1.454   .     S
C307   O402    1.295   .     A
C307   O499    1.295   .     S
C308   H354    1.084   .     S
C308   C514    1.399   1_455 S
C309   C318    1.457   .     S
C309   C350    1.401   .     A
C309   C451    1.413   .     S
C310   C348    1.411   .     A
C310   C410    1.399   .     S
C311   N396    1.368   .     A
C311   H355    1.078   .     S
C311   C313    1.414   .     A
C312   C314    1.417   .     A
C312   H356    1.080   .     S
C312   N395    1.370   .     A
C313   N395    1.365   .     A
C313   H357    1.074   .     S
C314   H358    1.081   .     S
C314   N396    1.367   .     A
C315   C317    1.471   .     S
C315   O406    1.298   .     A
C315   O506    1.301   .     S
C316   O407    1.298   .     A
C316   C319    1.467   .     S
C316   O609    1.298   1_455 S
C317   C324    1.400   .     A
C317   C322    1.411   .     A
C318   O401    1.300   .     A
C318   O505    1.292   .     S
C319   C325    1.399   .     A
C319   C323    1.408   .     A
C320   C322    1.395   .     A
C320   C328    1.398   .     A
C320   H492    1.077   .     S
C321   H391    1.083   .     S
C321   C330    1.402   .     A
C321   C323    1.397   .     A
C322   O500    1.385   .     S
C323   O612    1.384   1_455 S
C324   C326    1.403   .     A
C324   H386    1.079   .     S
C325   C327    1.402   .     A
C325   H375    1.078   .     S
C326   C331    1.416   .     A
C326   C328    1.411   .     A
C327   C332    1.422   .     A
C327   C330    1.415   .     A
C328   C1264   1.393   .     S
C329   C346    1.389   .     A
C329   C332    1.416   .     A
C329   H392    1.078   .     S
C330   C1265   1.391   1_554 S
C331   C340    1.411   .     A
C331   C1250   1.422   .     S
C332   C1249   1.422   1_554 S
C333   H360    1.114   .     S
C333   H359    1.117   .     S
C333   O408    1.412   .     S
C333   C334    1.529   .     S
C334   H362    1.112   .     S
C334   C335    1.526   .     S
C334   H361    1.111   .     S
C335   H365    1.111   .     S
C335   H366    1.110   .     S
C335   H363    1.111   .     S
C336   O398    1.426   .     S
C336   H368    1.110   .     S
C336   C337    1.543   .     S
C336   H367    1.111   .     S
C337   H369    1.108   .     S
C337   C338    1.527   .     S
C337   H574    1.111   1_455 S
C338   H373    1.111   .     S
C338   H371    1.112   .     S
C338   H576    1.110   1_455 S
C339   H376    1.118   .     S
C339   O399    1.418   .     S
C339   C341    1.528   .     S
C339   H374    1.106   .     S
C340   C347    1.384   .     A
C340   H393    1.079   .     S
C341   C342    1.526   .     S
C341   H377    1.111   .     S
C342   H381    1.110   .     S
C342   H380    1.111   .     S
C342   H379    1.111   .     S
C343   H383    1.115   .     S
C343   C344    1.527   .     S
C343   H382    1.115   .     S
C343   O400    1.414   .     S
C344   C345    1.527   .     S
C344   H384    1.107   .     S
C344   H385    1.110   .     S
C345   H387    1.110   .     S
C345   H388    1.111   .     S
C345   H389    1.111   .     S
C346   H353    1.083   .     S
C346   C1246   1.393   1_554 S
C347   H364    1.077   .     S
C347   C1248   1.391   .     S
C348   O399    1.383   .     S
C349   O400    1.382   .     S
C349   C513    1.413   1_455 S
C349   C614    1.385   .     S
C350   H394    1.082   .     S
C350   C654    1.387   .     S
Cu351  O404    1.957   .     S
Cu351  N395    2.021   .     S
Cu351  O407    1.947   .     S
Cu351  O403    1.969   .     S
Cu351  O397    1.966   .     S
Cu351  Cu556   2.689   1_455 S
Cu352  O405    1.957   .     S
Cu352  O401    1.966   .     S
Cu352  O406    1.947   .     S
Cu352  N396    2.021   .     S
Cu352  O402    1.969   .     S
Cu352  Cu453   2.689   .     S
H370   C439    1.111   .     S
H372   C440    1.110   .     S
H378   C647    1.111   .     S
H390   C524    1.077   1_455 S
O397   C511    1.295   1_455 S
O398   C526    1.385   1_455 S
O403   C522    1.292   1_455 S
O404   C519    1.301   1_455 S
O405   C418    1.298   .     S
O408   C425    1.384   .     S
C409   C412    1.454   .     S
C409   O504    1.295   .     A
C409   O601    1.295   .     S
C410   H456    1.084   .     S
C411   C420    1.457   .     S
C411   C452    1.401   .     A
C411   C553    1.413   .     S
C412   C450    1.411   .     A
C412   C512    1.399   .     S
C413   N498    1.368   .     A
C413   H457    1.078   .     S
C413   C415    1.414   .     A
C414   C416    1.417   .     A
C414   H458    1.080   .     S
C414   N497    1.370   .     A
C415   N497    1.365   .     A
C415   H459    1.074   .     S
C416   H460    1.081   .     S
C416   N498    1.367   .     A
C417   C419    1.471   .     S
C417   O508    1.298   .     A
C417   O608    1.301   .     S
C418   O509    1.298   .     A
C418   C421    1.467   .     S
C419   C426    1.400   .     A
C419   C424    1.411   .     A
C420   O503    1.300   .     A
C420   O607    1.292   .     S
C421   C427    1.399   .     A
C421   C425    1.408   .     A
C422   C424    1.395   .     A
C422   C430    1.398   .     A
C422   H594    1.077   .     S
C423   H493    1.083   .     S
C423   C432    1.402   .     A
C423   C425    1.397   .     A
C424   O602    1.385   .     S
C426   C428    1.403   .     A
C426   H488    1.079   .     S
C427   C429    1.402   .     A
C427   H477    1.078   .     S
C428   C433    1.416   .     A
C428   C430    1.411   .     A
C429   C434    1.422   .     A
C429   C432    1.415   .     A
C430   C1366   1.393   .     S
C431   C448    1.389   .     A
C431   C434    1.416   .     A
C431   H494    1.078   .     S
C432   C1367   1.391   1_554 S
C433   C442    1.411   .     A
C433   C1352   1.422   .     S
C434   C1351   1.422   1_554 S
C435   H462    1.114   .     S
C435   H461    1.117   .     S
C435   O510    1.412   .     S
C435   C436    1.529   .     S
C436   H464    1.112   .     S
C436   C437    1.526   .     S
C436   H463    1.111   .     S
C437   H467    1.111   .     S
C437   H468    1.110   .     S
C437   H465    1.111   .     S
C438   O500    1.426   .     S
C438   H470    1.110   .     S
C438   C439    1.543   .     S
C438   H469    1.111   .     S
C439   H471    1.108   .     S
C439   C440    1.527   .     S
C440   H475    1.111   .     S
C440   H473    1.112   .     S
C441   H478    1.118   .     S
C441   O501    1.418   .     S
C441   C443    1.528   .     S
C441   H476    1.106   .     S
C442   C449    1.384   .     A
C442   H495    1.079   .     S
C443   C444    1.526   .     S
C443   H479    1.111   .     S
C444   H483    1.110   .     S
C444   H482    1.111   .     S
C444   H481    1.111   .     S
C445   H485    1.115   .     S
C445   C446    1.527   .     S
C445   H484    1.115   .     S
C445   O502    1.414   .     S
C446   C447    1.527   .     S
C446   H486    1.107   .     S
C446   H487    1.110   .     S
C447   H489    1.110   .     S
C447   H490    1.111   .     S
C447   H491    1.111   .     S
C448   H455    1.083   .     S
C448   C1348   1.393   1_554 S
C449   H466    1.077   .     S
C449   C1350   1.391   .     S
C450   O501    1.383   .     S
C451   O502    1.382   .     S
C451   C716    1.385   .     S
C452   H496    1.082   .     S
C452   C756    1.387   .     S
Cu453  O506    1.957   .     S
Cu453  N497    2.021   .     S
Cu453  O509    1.947   .     S
Cu453  O505    1.969   .     S
Cu453  O499    1.966   .     S
Cu454  O507    1.957   .     S
Cu454  O503    1.966   .     S
Cu454  O508    1.947   .     S
Cu454  N498    2.021   .     S
Cu454  O504    1.969   .     S
Cu454  Cu555   2.689   .     S
H472   C541    1.111   .     S
H474   C542    1.110   .     S
H480   C749    1.111   .     S
O507   C520    1.298   .     S
O510   C527    1.384   .     S
C511   C514    1.454   .     S
C511   O606    1.295   .     A
C511   O397    1.295   1_655 S
C512   H558    1.084   .     S
C513   C522    1.457   .     S
C513   C554    1.401   .     A
C513   C349    1.413   1_655 S
C514   C552    1.411   .     A
C514   C308    1.399   1_655 S
C515   N600    1.368   .     A
C515   H559    1.078   .     S
C515   C517    1.414   .     A
C516   C518    1.417   .     A
C516   H560    1.080   .     S
C516   N599    1.370   .     A
C517   N599    1.365   .     A
C517   H561    1.074   .     S
C518   H562    1.081   .     S
C518   N600    1.367   .     A
C519   C521    1.471   .     S
C519   O610    1.298   .     A
C519   O404    1.301   1_655 S
C520   O611    1.298   .     A
C520   C523    1.467   .     S
C521   C528    1.400   .     A
C521   C526    1.411   .     A
C522   O605    1.300   .     A
C522   O403    1.292   1_655 S
C523   C529    1.399   .     A
C523   C527    1.408   .     A
C524   C526    1.395   .     A
C524   C532    1.398   .     A
C524   H390    1.077   1_655 S
C525   H595    1.083   .     S
C525   C534    1.402   .     A
C525   C527    1.397   .     A
C526   O398    1.385   1_655 S
C528   C530    1.403   .     A
C528   H590    1.079   .     S
C529   C531    1.402   .     A
C529   H579    1.078   .     S
C530   C535    1.416   .     A
C530   C532    1.411   .     A
C531   C536    1.422   .     A
C531   C534    1.415   .     A
C532   C1468   1.393   .     S
C533   C550    1.389   .     A
C533   C536    1.416   .     A
C533   H596    1.078   .     S
C534   C1469   1.391   1_554 S
C535   C544    1.411   .     A
C535   C1454   1.422   .     S
C536   C1453   1.422   1_554 S
C537   H564    1.114   .     S
C537   H563    1.117   .     S
C537   O612    1.412   .     S
C537   C538    1.529   .     S
C538   H566    1.112   .     S
C538   C539    1.526   .     S
C538   H565    1.111   .     S
C539   H569    1.111   .     S
C539   H570    1.110   .     S
C539   H567    1.111   .     S
C540   O602    1.426   .     S
C540   H572    1.110   .     S
C540   C541    1.543   .     S
C540   H571    1.111   .     S
C541   H573    1.108   .     S
C541   C542    1.527   .     S
C542   H577    1.111   .     S
C542   H575    1.112   .     S
C543   H580    1.118   .     S
C543   O603    1.418   .     S
C543   C545    1.528   .     S
C543   H578    1.106   .     S
C544   C551    1.384   .     A
C544   H597    1.079   .     S
C545   C546    1.526   .     S
C545   H581    1.111   .     S
C546   H585    1.110   .     S
C546   H584    1.111   .     S
C546   H583    1.111   .     S
C547   H587    1.115   .     S
C547   C548    1.527   .     S
C547   H586    1.115   .     S
C547   O604    1.414   .     S
C548   C549    1.527   .     S
C548   H588    1.107   .     S
C548   H589    1.110   .     S
C549   H591    1.110   .     S
C549   H592    1.111   .     S
C549   H593    1.111   .     S
C550   H557    1.083   .     S
C550   C1450   1.393   1_554 S
C551   H568    1.077   .     S
C551   C1452   1.391   .     S
C552   O603    1.383   .     S
C553   O604    1.382   .     S
C553   C818    1.385   .     S
C554   H598    1.082   .     S
C554   C858    1.387   .     S
Cu555  O608    1.957   .     S
Cu555  N599    2.021   .     S
Cu555  O611    1.947   .     S
Cu555  O607    1.969   .     S
Cu555  O601    1.966   .     S
Cu556  O609    1.957   .     S
Cu556  O605    1.966   .     S
Cu556  O610    1.947   .     S
Cu556  N600    2.021   .     S
Cu556  O606    1.969   .     S
Cu556  Cu351   2.689   1_655 S
H574   C337    1.111   1_655 S
H576   C338    1.110   1_655 S
H582   C851    1.111   .     S
O609   C316    1.298   1_655 S
O612   C323    1.384   1_655 S
C613   C616    1.454   .     S
C613   O708    1.295   .     A
C613   O805    1.295   .     S
C614   H660    1.084   .     S
C614   C820    1.399   1_455 S
C615   C624    1.457   .     S
C615   C656    1.401   .     A
C615   C757    1.413   .     S
C616   C654    1.411   .     A
C616   C716    1.399   .     S
C617   N702    1.368   .     A
C617   H661    1.078   .     S
C617   C619    1.414   .     A
C618   C620    1.417   .     A
C618   H662    1.080   .     S
C618   N701    1.370   .     A
C619   N701    1.365   .     A
C619   H663    1.074   .     S
C620   H664    1.081   .     S
C620   N702    1.367   .     A
C621   C623    1.471   .     S
C621   O712    1.298   .     A
C621   O812    1.301   .     S
C622   O713    1.298   .     A
C622   C625    1.467   .     S
C622   O915    1.298   1_455 S
C623   C630    1.400   .     A
C623   C628    1.411   .     A
C624   O707    1.300   .     A
C624   O811    1.292   .     S
C625   C631    1.399   .     A
C625   C629    1.408   .     A
C626   C628    1.395   .     A
C626   C634    1.398   .     A
C626   H798    1.077   .     S
C627   H697    1.083   .     S
C627   C636    1.402   .     A
C627   C629    1.397   .     A
C628   O806    1.385   .     S
C629   O918    1.384   1_455 S
C630   C632    1.403   .     A
C630   H692    1.079   .     S
C631   C633    1.402   .     A
C631   H681    1.078   .     S
C632   C637    1.416   .     A
C632   C634    1.411   .     A
C633   C638    1.422   .     A
C633   C636    1.415   .     A
C634   C1570   1.393   .     S
C635   C652    1.389   .     A
C635   C638    1.416   .     A
C635   H698    1.078   .     S
C636   C1571   1.391   1_554 S
C637   C646    1.411   .     A
C637   C1556   1.422   .     S
C638   C1555   1.422   1_554 S
C639   H666    1.114   .     S
C639   H665    1.117   .     S
C639   O714    1.412   .     S
C639   C640    1.529   .     S
C640   H668    1.112   .     S
C640   C641    1.526   .     S
C640   H667    1.111   .     S
C641   H671    1.111   .     S
C641   H672    1.110   .     S
C641   H669    1.111   .     S
C642   O704    1.426   .     S
C642   H674    1.110   .     S
C642   C643    1.543   .     S
C642   H673    1.111   .     S
C643   H675    1.108   .     S
C643   C644    1.527   .     S
C643   H880    1.111   1_455 S
C644   H679    1.111   .     S
C644   H677    1.112   .     S
C644   H882    1.110   1_455 S
C645   H682    1.118   .     S
C645   O705    1.418   .     S
C645   C647    1.528   .     S
C645   H680    1.106   .     S
C646   C653    1.384   .     A
C646   H699    1.079   .     S
C647   C648    1.526   .     S
C647   H683    1.111   .     S
C648   H687    1.110   .     S
C648   H686    1.111   .     S
C648   H685    1.111   .     S
C649   H689    1.115   .     S
C649   C650    1.527   .     S
C649   H688    1.115   .     S
C649   O706    1.414   .     S
C650   C651    1.527   .     S
C650   H690    1.107   .     S
C650   H691    1.110   .     S
C651   H693    1.110   .     S
C651   H694    1.111   .     S
C651   H695    1.111   .     S
C652   H659    1.083   .     S
C652   C1552   1.393   1_554 S
C653   H670    1.077   .     S
C653   C1554   1.391   .     S
C654   O705    1.383   .     S
C655   O706    1.382   .     S
C655   C819    1.413   1_455 S
C655   C2      1.385   1_565 S
C656   H700    1.082   .     S
C656   C42     1.387   1_565 S
Cu657  O710    1.957   .     S
Cu657  N701    2.021   .     S
Cu657  O713    1.947   .     S
Cu657  O709    1.969   .     S
Cu657  O703    1.966   .     S
Cu657  Cu862   2.689   1_455 S
Cu658  O711    1.957   .     S
Cu658  O707    1.966   .     S
Cu658  O712    1.947   .     S
Cu658  N702    2.021   .     S
Cu658  O708    1.969   .     S
Cu658  Cu759   2.689   .     S
H676   C745    1.111   .     S
H678   C746    1.110   .     S
H684   C35     1.111   1_565 S
H696   C830    1.077   1_455 S
O703   C817    1.295   1_455 S
O704   C832    1.385   1_455 S
O709   C828    1.292   1_455 S
O710   C825    1.301   1_455 S
O711   C724    1.298   .     S
O714   C731    1.384   .     S
C715   C718    1.454   .     S
C715   O810    1.295   .     A
C715   O907    1.295   .     S
C716   H762    1.084   .     S
C717   C726    1.457   .     S
C717   C758    1.401   .     A
C717   C859    1.413   .     S
C718   C756    1.411   .     A
C718   C818    1.399   .     S
C719   N804    1.368   .     A
C719   H763    1.078   .     S
C719   C721    1.414   .     A
C720   C722    1.417   .     A
C720   H764    1.080   .     S
C720   N803    1.370   .     A
C721   N803    1.365   .     A
C721   H765    1.074   .     S
C722   H766    1.081   .     S
C722   N804    1.367   .     A
C723   C725    1.471   .     S
C723   O814    1.298   .     A
C723   O914    1.301   .     S
C724   O815    1.298   .     A
C724   C727    1.467   .     S
C725   C732    1.400   .     A
C725   C730    1.411   .     A
C726   O809    1.300   .     A
C726   O913    1.292   .     S
C727   C733    1.399   .     A
C727   C731    1.408   .     A
C728   C730    1.395   .     A
C728   C736    1.398   .     A
C728   H900    1.077   .     S
C729   H799    1.083   .     S
C729   C738    1.402   .     A
C729   C731    1.397   .     A
C730   O908    1.385   .     S
C732   C734    1.403   .     A
C732   H794    1.079   .     S
C733   C735    1.402   .     A
C733   H783    1.078   .     S
C734   C739    1.416   .     A
C734   C736    1.411   .     A
C735   C740    1.422   .     A
C735   C738    1.415   .     A
C736   C1672   1.393   .     S
C737   C754    1.389   .     A
C737   C740    1.416   .     A
C737   H800    1.078   .     S
C738   C1673   1.391   1_554 S
C739   C748    1.411   .     A
C739   C1658   1.422   .     S
C740   C1657   1.422   1_554 S
C741   H768    1.114   .     S
C741   H767    1.117   .     S
C741   O816    1.412   .     S
C741   C742    1.529   .     S
C742   H770    1.112   .     S
C742   C743    1.526   .     S
C742   H769    1.111   .     S
C743   H773    1.111   .     S
C743   H774    1.110   .     S
C743   H771    1.111   .     S
C744   O806    1.426   .     S
C744   H776    1.110   .     S
C744   C745    1.543   .     S
C744   H775    1.111   .     S
C745   H777    1.108   .     S
C745   C746    1.527   .     S
C746   H781    1.111   .     S
C746   H779    1.112   .     S
C747   H784    1.118   .     S
C747   O807    1.418   .     S
C747   C749    1.528   .     S
C747   H782    1.106   .     S
C748   C755    1.384   .     A
C748   H801    1.079   .     S
C749   C750    1.526   .     S
C749   H785    1.111   .     S
C750   H789    1.110   .     S
C750   H788    1.111   .     S
C750   H787    1.111   .     S
C751   H791    1.115   .     S
C751   C752    1.527   .     S
C751   H790    1.115   .     S
C751   O808    1.414   .     S
C752   C753    1.527   .     S
C752   H792    1.107   .     S
C752   H793    1.110   .     S
C753   H795    1.110   .     S
C753   H796    1.111   .     S
C753   H797    1.111   .     S
C754   H761    1.083   .     S
C754   C1654   1.393   1_554 S
C755   H772    1.077   .     S
C755   C1656   1.391   .     S
C756   O807    1.383   .     S
C757   O808    1.382   .     S
C757   C104    1.385   1_565 S
C758   H802    1.082   .     S
C758   C144    1.387   1_565 S
Cu759  O812    1.957   .     S
Cu759  N803    2.021   .     S
Cu759  O815    1.947   .     S
Cu759  O811    1.969   .     S
Cu759  O805    1.966   .     S
Cu760  O813    1.957   .     S
Cu760  O809    1.966   .     S
Cu760  O814    1.947   .     S
Cu760  N804    2.021   .     S
Cu760  O810    1.969   .     S
Cu760  Cu861   2.689   .     S
H778   C847    1.111   .     S
H780   C848    1.110   .     S
H786   C137    1.111   1_565 S
O813   C826    1.298   .     S
O816   C833    1.384   .     S
C817   C820    1.454   .     S
C817   O912    1.295   .     A
C817   O703    1.295   1_655 S
C818   H864    1.084   .     S
C819   C828    1.457   .     S
C819   C860    1.401   .     A
C819   C655    1.413   1_655 S
C820   C858    1.411   .     A
C820   C614    1.399   1_655 S
C821   N906    1.368   .     A
C821   H865    1.078   .     S
C821   C823    1.414   .     A
C822   C824    1.417   .     A
C822   H866    1.080   .     S
C822   N905    1.370   .     A
C823   N905    1.365   .     A
C823   H867    1.074   .     S
C824   H868    1.081   .     S
C824   N906    1.367   .     A
C825   C827    1.471   .     S
C825   O916    1.298   .     A
C825   O710    1.301   1_655 S
C826   O917    1.298   .     A
C826   C829    1.467   .     S
C827   C834    1.400   .     A
C827   C832    1.411   .     A
C828   O911    1.300   .     A
C828   O709    1.292   1_655 S
C829   C835    1.399   .     A
C829   C833    1.408   .     A
C830   C832    1.395   .     A
C830   C838    1.398   .     A
C830   H696    1.077   1_655 S
C831   H901    1.083   .     S
C831   C840    1.402   .     A
C831   C833    1.397   .     A
C832   O704    1.385   1_655 S
C834   C836    1.403   .     A
C834   H896    1.079   .     S
C835   C837    1.402   .     A
C835   H885    1.078   .     S
C836   C841    1.416   .     A
C836   C838    1.411   .     A
C837   C842    1.422   .     A
C837   C840    1.415   .     A
C838   C1774   1.393   .     S
C839   C856    1.389   .     A
C839   C842    1.416   .     A
C839   H902    1.078   .     S
C840   C1775   1.391   1_554 S
C841   C850    1.411   .     A
C841   C1760   1.422   .     S
C842   C1759   1.422   1_554 S
C843   H870    1.114   .     S
C843   H869    1.117   .     S
C843   O918    1.412   .     S
C843   C844    1.529   .     S
C844   H872    1.112   .     S
C844   C845    1.526   .     S
C844   H871    1.111   .     S
C845   H875    1.111   .     S
C845   H876    1.110   .     S
C845   H873    1.111   .     S
C846   O908    1.426   .     S
C846   H878    1.110   .     S
C846   C847    1.543   .     S
C846   H877    1.111   .     S
C847   H879    1.108   .     S
C847   C848    1.527   .     S
C848   H883    1.111   .     S
C848   H881    1.112   .     S
C849   H886    1.118   .     S
C849   O909    1.418   .     S
C849   C851    1.528   .     S
C849   H884    1.106   .     S
C850   C857    1.384   .     A
C850   H903    1.079   .     S
C851   C852    1.526   .     S
C851   H887    1.111   .     S
C852   H891    1.110   .     S
C852   H890    1.111   .     S
C852   H889    1.111   .     S
C853   H893    1.115   .     S
C853   C854    1.527   .     S
C853   H892    1.115   .     S
C853   O910    1.414   .     S
C854   C855    1.527   .     S
C854   H894    1.107   .     S
C854   H895    1.110   .     S
C855   H897    1.110   .     S
C855   H898    1.111   .     S
C855   H899    1.111   .     S
C856   H863    1.083   .     S
C856   C1756   1.393   1_554 S
C857   H874    1.077   .     S
C857   C1758   1.391   .     S
C858   O909    1.383   .     S
C859   O910    1.382   .     S
C859   C206    1.385   1_565 S
C860   H904    1.082   .     S
C860   C246    1.387   1_565 S
Cu861  O914    1.957   .     S
Cu861  N905    2.021   .     S
Cu861  O917    1.947   .     S
Cu861  O913    1.969   .     S
Cu861  O907    1.966   .     S
Cu862  O915    1.957   .     S
Cu862  O911    1.966   .     S
Cu862  O916    1.947   .     S
Cu862  N906    2.021   .     S
Cu862  O912    1.969   .     S
Cu862  Cu657   2.689   1_655 S
H880   C643    1.111   1_655 S
H882   C644    1.110   1_655 S
H888   C239    1.111   1_565 S
O915   C622    1.298   1_655 S
O918   C629    1.384   1_655 S
C919   C922    1.454   .     S
C919   O1014   1.295   .     A
C919   O1111   1.295   .     S
C920   H966    1.084   .     S
C920   C1126   1.399   1_455 S
C920   C1573   1.385   1_545 S
C921   C930    1.457   .     S
C921   C962    1.401   .     A
C921   C1063   1.413   .     S
C922   C960    1.411   .     A
C922   C1022   1.399   .     S
C923   N1008   1.368   .     A
C923   H967    1.078   .     S
C923   C925    1.414   .     A
C924   C926    1.417   .     A
C924   H968    1.080   .     S
C924   N1007   1.370   .     A
C925   N1007   1.365   .     A
C925   H969    1.074   .     S
C926   H970    1.081   .     S
C926   N1008   1.367   .     A
C927   C929    1.471   .     S
C927   O1018   1.298   .     A
C927   O1118   1.301   .     S
C928   O1019   1.298   .     A
C928   C931    1.467   .     S
C928   O1221   1.298   1_455 S
C929   C936    1.400   .     A
C929   C934    1.411   .     A
C930   O1013   1.300   .     A
C930   O1117   1.292   .     S
C931   C937    1.399   .     A
C931   C935    1.408   .     A
C932   C934    1.395   .     A
C932   C940    1.398   .     A
C932   H1104   1.077   .     S
C933   H1003   1.083   .     S
C933   C942    1.402   .     A
C933   C935    1.397   .     A
C934   O1112   1.385   .     S
C935   O1224   1.384   1_455 S
C936   C938    1.403   .     A
C936   H998    1.079   .     S
C937   C939    1.402   .     A
C937   H987    1.078   .     S
C938   C943    1.416   .     A
C938   C940    1.411   .     A
C939   C944    1.422   .     A
C939   C942    1.415   .     A
C940   C40     1.393   1_556 S
C941   C958    1.389   .     A
C941   C944    1.416   .     A
C941   H1004   1.078   .     S
C943   C952    1.411   .     A
C943   C26     1.422   1_556 S
C945   H972    1.114   .     S
C945   H971    1.117   .     S
C945   O1020   1.412   .     S
C945   C946    1.529   .     S
C946   H974    1.112   .     S
C946   C947    1.526   .     S
C946   H973    1.111   .     S
C947   H977    1.111   .     S
C947   H978    1.110   .     S
C947   H975    1.111   .     S
C948   O1010   1.426   .     S
C948   H980    1.110   .     S
C948   C949    1.543   .     S
C948   H979    1.111   .     S
C949   H981    1.108   .     S
C949   C950    1.527   .     S
C949   H1186   1.111   1_455 S
C950   H985    1.111   .     S
C950   H983    1.112   .     S
C950   H1188   1.110   1_455 S
C951   H988    1.118   .     S
C951   O1011   1.418   .     S
C951   C953    1.528   .     S
C951   H986    1.106   .     S
C952   C959    1.384   .     A
C952   H1005   1.079   .     S
C953   C954    1.526   .     S
C953   H989    1.111   .     S
C953   H1602   1.111   1_545 S
C954   H993    1.110   .     S
C954   H992    1.111   .     S
C954   H991    1.111   .     S
C955   H995    1.115   .     S
C955   C956    1.527   .     S
C955   H994    1.115   .     S
C955   O1012   1.414   .     S
C956   C957    1.527   .     S
C956   H996    1.107   .     S
C956   H997    1.110   .     S
C957   H999    1.110   .     S
C957   H1000   1.111   .     S
C957   H1001   1.111   .     S
C958   H965    1.083   .     S
C959   H976    1.077   .     S
C959   C24     1.391   1_556 S
C960   O1011   1.383   .     S
C960   C1574   1.387   1_545 S
C961   O1012   1.382   .     S
C961   C1125   1.413   1_455 S
C961   C1226   1.385   .     S
C962   H1006   1.082   .     S
C962   C1266   1.387   .     S
Cu963  O1016   1.957   .     S
Cu963  N1007   2.021   .     S
Cu963  O1019   1.947   .     S
Cu963  O1015   1.969   .     S
Cu963  O1009   1.966   .     S
Cu963  Cu1168  2.689   1_455 S
Cu964  O1017   1.957   .     S
Cu964  O1013   1.966   .     S
Cu964  O1018   1.947   .     S
Cu964  N1008   2.021   .     S
Cu964  O1014   1.969   .     S
Cu964  Cu1065  2.689   .     S
H982   C1051   1.111   .     S
H984   C1052   1.110   .     S
H990   C1259   1.111   .     S
H1002  C1136   1.077   1_455 S
O1009  C1123   1.295   1_455 S
O1010  C1138   1.385   1_455 S
O1015  C1134   1.292   1_455 S
O1016  C1131   1.301   1_455 S
O1017  C1030   1.298   .     S
O1020  C1037   1.384   .     S
C1021  C1024   1.454   .     S
C1021  O1116   1.295   .     A
C1021  O1213   1.295   .     S
C1022  H1068   1.084   .     S
C1022  C1675   1.385   1_545 S
C1023  C1032   1.457   .     S
C1023  C1064   1.401   .     A
C1023  C1165   1.413   .     S
C1024  C1062   1.411   .     A
C1024  C1124   1.399   .     S
C1025  N1110   1.368   .     A
C1025  H1069   1.078   .     S
C1025  C1027   1.414   .     A
C1026  C1028   1.417   .     A
C1026  H1070   1.080   .     S
C1026  N1109   1.370   .     A
C1027  N1109   1.365   .     A
C1027  H1071   1.074   .     S
C1028  H1072   1.081   .     S
C1028  N1110   1.367   .     A
C1029  C1031   1.471   .     S
C1029  O1120   1.298   .     A
C1029  O1220   1.301   .     S
C1030  O1121   1.298   .     A
C1030  C1033   1.467   .     S
C1031  C1038   1.400   .     A
C1031  C1036   1.411   .     A
C1032  O1115   1.300   .     A
C1032  O1219   1.292   .     S
C1033  C1039   1.399   .     A
C1033  C1037   1.408   .     A
C1034  C1036   1.395   .     A
C1034  C1042   1.398   .     A
C1034  H1206   1.077   .     S
C1035  H1105   1.083   .     S
C1035  C1044   1.402   .     A
C1035  C1037   1.397   .     A
C1036  O1214   1.385   .     S
C1038  C1040   1.403   .     A
C1038  H1100   1.079   .     S
C1039  C1041   1.402   .     A
C1039  H1089   1.078   .     S
C1040  C1045   1.416   .     A
C1040  C1042   1.411   .     A
C1041  C1046   1.422   .     A
C1041  C1044   1.415   .     A
C1042  C142    1.393   1_556 S
C1043  C1060   1.389   .     A
C1043  C1046   1.416   .     A
C1043  H1106   1.078   .     S
C1045  C1054   1.411   .     A
C1045  C128    1.422   1_556 S
C1047  H1074   1.114   .     S
C1047  H1073   1.117   .     S
C1047  O1122   1.412   .     S
C1047  C1048   1.529   .     S
C1048  H1076   1.112   .     S
C1048  C1049   1.526   .     S
C1048  H1075   1.111   .     S
C1049  H1079   1.111   .     S
C1049  H1080   1.110   .     S
C1049  H1077   1.111   .     S
C1050  O1112   1.426   .     S
C1050  H1082   1.110   .     S
C1050  C1051   1.543   .     S
C1050  H1081   1.111   .     S
C1051  H1083   1.108   .     S
C1051  C1052   1.527   .     S
C1052  H1087   1.111   .     S
C1052  H1085   1.112   .     S
C1053  H1090   1.118   .     S
C1053  O1113   1.418   .     S
C1053  C1055   1.528   .     S
C1053  H1088   1.106   .     S
C1054  C1061   1.384   .     A
C1054  H1107   1.079   .     S
C1055  C1056   1.526   .     S
C1055  H1091   1.111   .     S
C1055  H1704   1.111   1_545 S
C1056  H1095   1.110   .     S
C1056  H1094   1.111   .     S
C1056  H1093   1.111   .     S
C1057  H1097   1.115   .     S
C1057  C1058   1.527   .     S
C1057  H1096   1.115   .     S
C1057  O1114   1.414   .     S
C1058  C1059   1.527   .     S
C1058  H1098   1.107   .     S
C1058  H1099   1.110   .     S
C1059  H1101   1.110   .     S
C1059  H1102   1.111   .     S
C1059  H1103   1.111   .     S
C1060  H1067   1.083   .     S
C1061  H1078   1.077   .     S
C1061  C126    1.391   1_556 S
C1062  O1113   1.383   .     S
C1062  C1676   1.387   1_545 S
C1063  O1114   1.382   .     S
C1063  C1328   1.385   .     S
C1064  H1108   1.082   .     S
C1064  C1368   1.387   .     S
Cu1065 O1118   1.957   .     S
Cu1065 N1109   2.021   .     S
Cu1065 O1121   1.947   .     S
Cu1065 O1117   1.969   .     S
Cu1065 O1111   1.966   .     S
Cu1066 O1119   1.957   .     S
Cu1066 O1115   1.966   .     S
Cu1066 O1120   1.947   .     S
Cu1066 N1110   2.021   .     S
Cu1066 O1116   1.969   .     S
Cu1066 Cu1167  2.689   .     S
H1084  C1153   1.111   .     S
H1086  C1154   1.110   .     S
H1092  C1361   1.111   .     S
O1119  C1132   1.298   .     S
O1122  C1139   1.384   .     S
C1123  C1126   1.454   .     S
C1123  O1218   1.295   .     A
C1123  O1009   1.295   1_655 S
C1124  H1170   1.084   .     S
C1124  C1777   1.385   1_545 S
C1125  C1134   1.457   .     S
C1125  C1166   1.401   .     A
C1125  C961    1.413   1_655 S
C1126  C1164   1.411   .     A
C1126  C920    1.399   1_655 S
C1127  N1212   1.368   .     A
C1127  H1171   1.078   .     S
C1127  C1129   1.414   .     A
C1128  C1130   1.417   .     A
C1128  H1172   1.080   .     S
C1128  N1211   1.370   .     A
C1129  N1211   1.365   .     A
C1129  H1173   1.074   .     S
C1130  H1174   1.081   .     S
C1130  N1212   1.367   .     A
C1131  C1133   1.471   .     S
C1131  O1222   1.298   .     A
C1131  O1016   1.301   1_655 S
C1132  O1223   1.298   .     A
C1132  C1135   1.467   .     S
C1133  C1140   1.400   .     A
C1133  C1138   1.411   .     A
C1134  O1217   1.300   .     A
C1134  O1015   1.292   1_655 S
C1135  C1141   1.399   .     A
C1135  C1139   1.408   .     A
C1136  C1138   1.395   .     A
C1136  C1144   1.398   .     A
C1136  H1002   1.077   1_655 S
C1137  H1207   1.083   .     S
C1137  C1146   1.402   .     A
C1137  C1139   1.397   .     A
C1138  O1010   1.385   1_655 S
C1140  C1142   1.403   .     A
C1140  H1202   1.079   .     S
C1141  C1143   1.402   .     A
C1141  H1191   1.078   .     S
C1142  C1147   1.416   .     A
C1142  C1144   1.411   .     A
C1143  C1148   1.422   .     A
C1143  C1146   1.415   .     A
C1144  C244    1.393   1_556 S
C1145  C1162   1.389   .     A
C1145  C1148   1.416   .     A
C1145  H1208   1.078   .     S
C1147  C1156   1.411   .     A
C1147  C230    1.422   1_556 S
C1149  H1176   1.114   .     S
C1149  H1175   1.117   .     S
C1149  O1224   1.412   .     S
C1149  C1150   1.529   .     S
C1150  H1178   1.112   .     S
C1150  C1151   1.526   .     S
C1150  H1177   1.111   .     S
C1151  H1181   1.111   .     S
C1151  H1182   1.110   .     S
C1151  H1179   1.111   .     S
C1152  O1214   1.426   .     S
C1152  H1184   1.110   .     S
C1152  C1153   1.543   .     S
C1152  H1183   1.111   .     S
C1153  H1185   1.108   .     S
C1153  C1154   1.527   .     S
C1154  H1189   1.111   .     S
C1154  H1187   1.112   .     S
C1155  H1192   1.118   .     S
C1155  O1215   1.418   .     S
C1155  C1157   1.528   .     S
C1155  H1190   1.106   .     S
C1156  C1163   1.384   .     A
C1156  H1209   1.079   .     S
C1157  C1158   1.526   .     S
C1157  H1193   1.111   .     S
C1157  H1806   1.111   1_545 S
C1158  H1197   1.110   .     S
C1158  H1196   1.111   .     S
C1158  H1195   1.111   .     S
C1159  H1199   1.115   .     S
C1159  C1160   1.527   .     S
C1159  H1198   1.115   .     S
C1159  O1216   1.414   .     S
C1160  C1161   1.527   .     S
C1160  H1200   1.107   .     S
C1160  H1201   1.110   .     S
C1161  H1203   1.110   .     S
C1161  H1204   1.111   .     S
C1161  H1205   1.111   .     S
C1162  H1169   1.083   .     S
C1163  H1180   1.077   .     S
C1163  C228    1.391   1_556 S
C1164  O1215   1.383   .     S
C1164  C1778   1.387   1_545 S
C1165  O1216   1.382   .     S
C1165  C1430   1.385   .     S
C1166  H1210   1.082   .     S
C1166  C1470   1.387   .     S
Cu1167 O1220   1.957   .     S
Cu1167 N1211   2.021   .     S
Cu1167 O1223   1.947   .     S
Cu1167 O1219   1.969   .     S
Cu1167 O1213   1.966   .     S
Cu1168 O1221   1.957   .     S
Cu1168 O1217   1.966   .     S
Cu1168 O1222   1.947   .     S
Cu1168 N1212   2.021   .     S
Cu1168 O1218   1.969   .     S
Cu1168 Cu963   2.689   1_655 S
H1186  C949    1.111   1_655 S
H1188  C950    1.110   1_655 S
H1194  C1463   1.111   .     S
O1221  C928    1.298   1_655 S
O1224  C935    1.384   1_655 S
C1225  C1228   1.454   .     S
C1225  O1320   1.295   .     A
C1225  O1417   1.295   .     S
C1226  H1272   1.084   .     S
C1226  C1432   1.399   1_455 S
C1227  C1236   1.457   .     S
C1227  C1268   1.401   .     A
C1227  C1369   1.413   .     S
C1228  C1266   1.411   .     A
C1228  C1328   1.399   .     S
C1229  N1314   1.368   .     A
C1229  H1273   1.078   .     S
C1229  C1231   1.414   .     A
C1230  C1232   1.417   .     A
C1230  H1274   1.080   .     S
C1230  N1313   1.370   .     A
C1231  N1313   1.365   .     A
C1231  H1275   1.074   .     S
C1232  H1276   1.081   .     S
C1232  N1314   1.367   .     A
C1233  C1235   1.471   .     S
C1233  O1324   1.298   .     A
C1233  O1424   1.301   .     S
C1234  O1325   1.298   .     A
C1234  C1237   1.467   .     S
C1234  O1527   1.298   1_455 S
C1235  C1242   1.400   .     A
C1235  C1240   1.411   .     A
C1236  O1319   1.300   .     A
C1236  O1423   1.292   .     S
C1237  C1243   1.399   .     A
C1237  C1241   1.408   .     A
C1238  C1240   1.395   .     A
C1238  C1246   1.398   .     A
C1238  H1410   1.077   .     S
C1239  H1309   1.083   .     S
C1239  C1248   1.402   .     A
C1239  C1241   1.397   .     A
C1240  O1418   1.385   .     S
C1241  O1530   1.384   1_455 S
C1242  C1244   1.403   .     A
C1242  H1304   1.079   .     S
C1243  C1245   1.402   .     A
C1243  H1293   1.078   .     S
C1244  C1249   1.416   .     A
C1244  C1246   1.411   .     A
C1245  C1250   1.422   .     A
C1245  C1248   1.415   .     A
C1246  C346    1.393   1_556 S
C1247  C1264   1.389   .     A
C1247  C1250   1.416   .     A
C1247  H1310   1.078   .     S
C1249  C1258   1.411   .     A
C1249  C332    1.422   1_556 S
C1251  H1278   1.114   .     S
C1251  H1277   1.117   .     S
C1251  O1326   1.412   .     S
C1251  C1252   1.529   .     S
C1252  H1280   1.112   .     S
C1252  C1253   1.526   .     S
C1252  H1279   1.111   .     S
C1253  H1283   1.111   .     S
C1253  H1284   1.110   .     S
C1253  H1281   1.111   .     S
C1254  O1316   1.426   .     S
C1254  H1286   1.110   .     S
C1254  C1255   1.543   .     S
C1254  H1285   1.111   .     S
C1255  H1287   1.108   .     S
C1255  C1256   1.527   .     S
C1255  H1492   1.111   1_455 S
C1256  H1291   1.111   .     S
C1256  H1289   1.112   .     S
C1256  H1494   1.110   1_455 S
C1257  H1294   1.118   .     S
C1257  O1317   1.418   .     S
C1257  C1259   1.528   .     S
C1257  H1292   1.106   .     S
C1258  C1265   1.384   .     A
C1258  H1311   1.079   .     S
C1259  C1260   1.526   .     S
C1259  H1295   1.111   .     S
C1260  H1299   1.110   .     S
C1260  H1298   1.111   .     S
C1260  H1297   1.111   .     S
C1261  H1301   1.115   .     S
C1261  C1262   1.527   .     S
C1261  H1300   1.115   .     S
C1261  O1318   1.414   .     S
C1262  C1263   1.527   .     S
C1262  H1302   1.107   .     S
C1262  H1303   1.110   .     S
C1263  H1305   1.110   .     S
C1263  H1306   1.111   .     S
C1263  H1307   1.111   .     S
C1264  H1271   1.083   .     S
C1265  H1282   1.077   .     S
C1265  C330    1.391   1_556 S
C1266  O1317   1.383   .     S
C1267  O1318   1.382   .     S
C1267  C1431   1.413   1_455 S
C1267  C1532   1.385   .     S
C1268  H1312   1.082   .     S
C1268  C1572   1.387   .     S
Cu1269 O1322   1.957   .     S
Cu1269 N1313   2.021   .     S
Cu1269 O1325   1.947   .     S
Cu1269 O1321   1.969   .     S
Cu1269 O1315   1.966   .     S
Cu1269 Cu1474  2.689   1_455 S
Cu1270 O1323   1.957   .     S
Cu1270 O1319   1.966   .     S
Cu1270 O1324   1.947   .     S
Cu1270 N1314   2.021   .     S
Cu1270 O1320   1.969   .     S
Cu1270 Cu1371  2.689   .     S
H1288  C1357   1.111   .     S
H1290  C1358   1.110   .     S
H1296  C1565   1.111   .     S
H1308  C1442   1.077   1_455 S
O1315  C1429   1.295   1_455 S
O1316  C1444   1.385   1_455 S
O1321  C1440   1.292   1_455 S
O1322  C1437   1.301   1_455 S
O1323  C1336   1.298   .     S
O1326  C1343   1.384   .     S
C1327  C1330   1.454   .     S
C1327  O1422   1.295   .     A
C1327  O1519   1.295   .     S
C1328  H1374   1.084   .     S
C1329  C1338   1.457   .     S
C1329  C1370   1.401   .     A
C1329  C1471   1.413   .     S
C1330  C1368   1.411   .     A
C1330  C1430   1.399   .     S
C1331  N1416   1.368   .     A
C1331  H1375   1.078   .     S
C1331  C1333   1.414   .     A
C1332  C1334   1.417   .     A
C1332  H1376   1.080   .     S
C1332  N1415   1.370   .     A
C1333  N1415   1.365   .     A
C1333  H1377   1.074   .     S
C1334  H1378   1.081   .     S
C1334  N1416   1.367   .     A
C1335  C1337   1.471   .     S
C1335  O1426   1.298   .     A
C1335  O1526   1.301   .     S
C1336  O1427   1.298   .     A
C1336  C1339   1.467   .     S
C1337  C1344   1.400   .     A
C1337  C1342   1.411   .     A
C1338  O1421   1.300   .     A
C1338  O1525   1.292   .     S
C1339  C1345   1.399   .     A
C1339  C1343   1.408   .     A
C1340  C1342   1.395   .     A
C1340  C1348   1.398   .     A
C1340  H1512   1.077   .     S
C1341  H1411   1.083   .     S
C1341  C1350   1.402   .     A
C1341  C1343   1.397   .     A
C1342  O1520   1.385   .     S
C1344  C1346   1.403   .     A
C1344  H1406   1.079   .     S
C1345  C1347   1.402   .     A
C1345  H1395   1.078   .     S
C1346  C1351   1.416   .     A
C1346  C1348   1.411   .     A
C1347  C1352   1.422   .     A
C1347  C1350   1.415   .     A
C1348  C448    1.393   1_556 S
C1349  C1366   1.389   .     A
C1349  C1352   1.416   .     A
C1349  H1412   1.078   .     S
C1351  C1360   1.411   .     A
C1351  C434    1.422   1_556 S
C1353  H1380   1.114   .     S
C1353  H1379   1.117   .     S
C1353  O1428   1.412   .     S
C1353  C1354   1.529   .     S
C1354  H1382   1.112   .     S
C1354  C1355   1.526   .     S
C1354  H1381   1.111   .     S
C1355  H1385   1.111   .     S
C1355  H1386   1.110   .     S
C1355  H1383   1.111   .     S
C1356  O1418   1.426   .     S
C1356  H1388   1.110   .     S
C1356  C1357   1.543   .     S
C1356  H1387   1.111   .     S
C1357  H1389   1.108   .     S
C1357  C1358   1.527   .     S
C1358  H1393   1.111   .     S
C1358  H1391   1.112   .     S
C1359  H1396   1.118   .     S
C1359  O1419   1.418   .     S
C1359  C1361   1.528   .     S
C1359  H1394   1.106   .     S
C1360  C1367   1.384   .     A
C1360  H1413   1.079   .     S
C1361  C1362   1.526   .     S
C1361  H1397   1.111   .     S
C1362  H1401   1.110   .     S
C1362  H1400   1.111   .     S
C1362  H1399   1.111   .     S
C1363  H1403   1.115   .     S
C1363  C1364   1.527   .     S
C1363  H1402   1.115   .     S
C1363  O1420   1.414   .     S
C1364  C1365   1.527   .     S
C1364  H1404   1.107   .     S
C1364  H1405   1.110   .     S
C1365  H1407   1.110   .     S
C1365  H1408   1.111   .     S
C1365  H1409   1.111   .     S
C1366  H1373   1.083   .     S
C1367  H1384   1.077   .     S
C1367  C432    1.391   1_556 S
C1368  O1419   1.383   .     S
C1369  O1420   1.382   .     S
C1369  C1634   1.385   .     S
C1370  H1414   1.082   .     S
C1370  C1674   1.387   .     S
Cu1371 O1424   1.957   .     S
Cu1371 N1415   2.021   .     S
Cu1371 O1427   1.947   .     S
Cu1371 O1423   1.969   .     S
Cu1371 O1417   1.966   .     S
Cu1372 O1425   1.957   .     S
Cu1372 O1421   1.966   .     S
Cu1372 O1426   1.947   .     S
Cu1372 N1416   2.021   .     S
Cu1372 O1422   1.969   .     S
Cu1372 Cu1473  2.689   .     S
H1390  C1459   1.111   .     S
H1392  C1460   1.110   .     S
H1398  C1667   1.111   .     S
O1425  C1438   1.298   .     S
O1428  C1445   1.384   .     S
C1429  C1432   1.454   .     S
C1429  O1524   1.295   .     A
C1429  O1315   1.295   1_655 S
C1430  H1476   1.084   .     S
C1431  C1440   1.457   .     S
C1431  C1472   1.401   .     A
C1431  C1267   1.413   1_655 S
C1432  C1470   1.411   .     A
C1432  C1226   1.399   1_655 S
C1433  N1518   1.368   .     A
C1433  H1477   1.078   .     S
C1433  C1435   1.414   .     A
C1434  C1436   1.417   .     A
C1434  H1478   1.080   .     S
C1434  N1517   1.370   .     A
C1435  N1517   1.365   .     A
C1435  H1479   1.074   .     S
C1436  H1480   1.081   .     S
C1436  N1518   1.367   .     A
C1437  C1439   1.471   .     S
C1437  O1528   1.298   .     A
C1437  O1322   1.301   1_655 S
C1438  O1529   1.298   .     A
C1438  C1441   1.467   .     S
C1439  C1446   1.400   .     A
C1439  C1444   1.411   .     A
C1440  O1523   1.300   .     A
C1440  O1321   1.292   1_655 S
C1441  C1447   1.399   .     A
C1441  C1445   1.408   .     A
C1442  C1444   1.395   .     A
C1442  C1450   1.398   .     A
C1442  H1308   1.077   1_655 S
C1443  H1513   1.083   .     S
C1443  C1452   1.402   .     A
C1443  C1445   1.397   .     A
C1444  O1316   1.385   1_655 S
C1446  C1448   1.403   .     A
C1446  H1508   1.079   .     S
C1447  C1449   1.402   .     A
C1447  H1497   1.078   .     S
C1448  C1453   1.416   .     A
C1448  C1450   1.411   .     A
C1449  C1454   1.422   .     A
C1449  C1452   1.415   .     A
C1450  C550    1.393   1_556 S
C1451  C1468   1.389   .     A
C1451  C1454   1.416   .     A
C1451  H1514   1.078   .     S
C1453  C1462   1.411   .     A
C1453  C536    1.422   1_556 S
C1455  H1482   1.114   .     S
C1455  H1481   1.117   .     S
C1455  O1530   1.412   .     S
C1455  C1456   1.529   .     S
C1456  H1484   1.112   .     S
C1456  C1457   1.526   .     S
C1456  H1483   1.111   .     S
C1457  H1487   1.111   .     S
C1457  H1488   1.110   .     S
C1457  H1485   1.111   .     S
C1458  O1520   1.426   .     S
C1458  H1490   1.110   .     S
C1458  C1459   1.543   .     S
C1458  H1489   1.111   .     S
C1459  H1491   1.108   .     S
C1459  C1460   1.527   .     S
C1460  H1495   1.111   .     S
C1460  H1493   1.112   .     S
C1461  H1498   1.118   .     S
C1461  O1521   1.418   .     S
C1461  C1463   1.528   .     S
C1461  H1496   1.106   .     S
C1462  C1469   1.384   .     A
C1462  H1515   1.079   .     S
C1463  C1464   1.526   .     S
C1463  H1499   1.111   .     S
C1464  H1503   1.110   .     S
C1464  H1502   1.111   .     S
C1464  H1501   1.111   .     S
C1465  H1505   1.115   .     S
C1465  C1466   1.527   .     S
C1465  H1504   1.115   .     S
C1465  O1522   1.414   .     S
C1466  C1467   1.527   .     S
C1466  H1506   1.107   .     S
C1466  H1507   1.110   .     S
C1467  H1509   1.110   .     S
C1467  H1510   1.111   .     S
C1467  H1511   1.111   .     S
C1468  H1475   1.083   .     S
C1469  H1486   1.077   .     S
C1469  C534    1.391   1_556 S
C1470  O1521   1.383   .     S
C1471  O1522   1.382   .     S
C1471  C1736   1.385   .     S
C1472  H1516   1.082   .     S
C1472  C1776   1.387   .     S
Cu1473 O1526   1.957   .     S
Cu1473 N1517   2.021   .     S
Cu1473 O1529   1.947   .     S
Cu1473 O1525   1.969   .     S
Cu1473 O1519   1.966   .     S
Cu1474 O1527   1.957   .     S
Cu1474 O1523   1.966   .     S
Cu1474 O1528   1.947   .     S
Cu1474 N1518   2.021   .     S
Cu1474 O1524   1.969   .     S
Cu1474 Cu1269  2.689   1_655 S
H1492  C1255   1.111   1_655 S
H1494  C1256   1.110   1_655 S
H1500  C1769   1.111   .     S
O1527  C1234   1.298   1_655 S
O1530  C1241   1.384   1_655 S
C1531  C1534   1.454   .     S
C1531  O1626   1.295   .     A
C1531  O1723   1.295   .     S
C1532  H1578   1.084   .     S
C1532  C1738   1.399   1_455 S
C1533  C1542   1.457   .     S
C1533  C1574   1.401   .     A
C1533  C1675   1.413   .     S
C1534  C1572   1.411   .     A
C1534  C1634   1.399   .     S
C1535  N1620   1.368   .     A
C1535  H1579   1.078   .     S
C1535  C1537   1.414   .     A
C1536  C1538   1.417   .     A
C1536  H1580   1.080   .     S
C1536  N1619   1.370   .     A
C1537  N1619   1.365   .     A
C1537  H1581   1.074   .     S
C1538  H1582   1.081   .     S
C1538  N1620   1.367   .     A
C1539  C1541   1.471   .     S
C1539  O1630   1.298   .     A
C1539  O1730   1.301   .     S
C1540  O1631   1.298   .     A
C1540  C1543   1.467   .     S
C1540  O1833   1.298   1_455 S
C1541  C1548   1.400   .     A
C1541  C1546   1.411   .     A
C1542  O1625   1.300   .     A
C1542  O1729   1.292   .     S
C1543  C1549   1.399   .     A
C1543  C1547   1.408   .     A
C1544  C1546   1.395   .     A
C1544  C1552   1.398   .     A
C1544  H1716   1.077   .     S
C1545  H1615   1.083   .     S
C1545  C1554   1.402   .     A
C1545  C1547   1.397   .     A
C1546  O1724   1.385   .     S
C1547  O1836   1.384   1_455 S
C1548  C1550   1.403   .     A
C1548  H1610   1.079   .     S
C1549  C1551   1.402   .     A
C1549  H1599   1.078   .     S
C1550  C1555   1.416   .     A
C1550  C1552   1.411   .     A
C1551  C1556   1.422   .     A
C1551  C1554   1.415   .     A
C1552  C652    1.393   1_556 S
C1553  C1570   1.389   .     A
C1553  C1556   1.416   .     A
C1553  H1616   1.078   .     S
C1555  C1564   1.411   .     A
C1555  C638    1.422   1_556 S
C1557  H1584   1.114   .     S
C1557  H1583   1.117   .     S
C1557  O1632   1.412   .     S
C1557  C1558   1.529   .     S
C1558  H1586   1.112   .     S
C1558  C1559   1.526   .     S
C1558  H1585   1.111   .     S
C1559  H1589   1.111   .     S
C1559  H1590   1.110   .     S
C1559  H1587   1.111   .     S
C1560  O1622   1.426   .     S
C1560  H1592   1.110   .     S
C1560  C1561   1.543   .     S
C1560  H1591   1.111   .     S
C1561  H1593   1.108   .     S
C1561  C1562   1.527   .     S
C1561  H1798   1.111   1_455 S
C1562  H1597   1.111   .     S
C1562  H1595   1.112   .     S
C1562  H1800   1.110   1_455 S
C1563  H1600   1.118   .     S
C1563  O1623   1.418   .     S
C1563  C1565   1.528   .     S
C1563  H1598   1.106   .     S
C1564  C1571   1.384   .     A
C1564  H1617   1.079   .     S
C1565  C1566   1.526   .     S
C1565  H1601   1.111   .     S
C1566  H1605   1.110   .     S
C1566  H1604   1.111   .     S
C1566  H1603   1.111   .     S
C1567  H1607   1.115   .     S
C1567  C1568   1.527   .     S
C1567  H1606   1.115   .     S
C1567  O1624   1.414   .     S
C1568  C1569   1.527   .     S
C1568  H1608   1.107   .     S
C1568  H1609   1.110   .     S
C1569  H1611   1.110   .     S
C1569  H1612   1.111   .     S
C1569  H1613   1.111   .     S
C1570  H1577   1.083   .     S
C1571  H1588   1.077   .     S
C1571  C636    1.391   1_556 S
C1572  O1623   1.383   .     S
C1573  O1624   1.382   .     S
C1573  C1737   1.413   1_455 S
C1573  C920    1.385   1_565 S
C1574  H1618   1.082   .     S
C1574  C960    1.387   1_565 S
Cu1575 O1628   1.957   .     S
Cu1575 N1619   2.021   .     S
Cu1575 O1631   1.947   .     S
Cu1575 O1627   1.969   .     S
Cu1575 O1621   1.966   .     S
Cu1575 Cu1780  2.689   1_455 S
Cu1576 O1629   1.957   .     S
Cu1576 O1625   1.966   .     S
Cu1576 O1630   1.947   .     S
Cu1576 N1620   2.021   .     S
Cu1576 O1626   1.969   .     S
Cu1576 Cu1677  2.689   .     S
H1594  C1663   1.111   .     S
H1596  C1664   1.110   .     S
H1602  C953    1.111   1_565 S
H1614  C1748   1.077   1_455 S
O1621  C1735   1.295   1_455 S
O1622  C1750   1.385   1_455 S
O1627  C1746   1.292   1_455 S
O1628  C1743   1.301   1_455 S
O1629  C1642   1.298   .     S
O1632  C1649   1.384   .     S
C1633  C1636   1.454   .     S
C1633  O1728   1.295   .     A
C1633  O1825   1.295   .     S
C1634  H1680   1.084   .     S
C1635  C1644   1.457   .     S
C1635  C1676   1.401   .     A
C1635  C1777   1.413   .     S
C1636  C1674   1.411   .     A
C1636  C1736   1.399   .     S
C1637  N1722   1.368   .     A
C1637  H1681   1.078   .     S
C1637  C1639   1.414   .     A
C1638  C1640   1.417   .     A
C1638  H1682   1.080   .     S
C1638  N1721   1.370   .     A
C1639  N1721   1.365   .     A
C1639  H1683   1.074   .     S
C1640  H1684   1.081   .     S
C1640  N1722   1.367   .     A
C1641  C1643   1.471   .     S
C1641  O1732   1.298   .     A
C1641  O1832   1.301   .     S
C1642  O1733   1.298   .     A
C1642  C1645   1.467   .     S
C1643  C1650   1.400   .     A
C1643  C1648   1.411   .     A
C1644  O1727   1.300   .     A
C1644  O1831   1.292   .     S
C1645  C1651   1.399   .     A
C1645  C1649   1.408   .     A
C1646  C1648   1.395   .     A
C1646  C1654   1.398   .     A
C1646  H1818   1.077   .     S
C1647  H1717   1.083   .     S
C1647  C1656   1.402   .     A
C1647  C1649   1.397   .     A
C1648  O1826   1.385   .     S
C1650  C1652   1.403   .     A
C1650  H1712   1.079   .     S
C1651  C1653   1.402   .     A
C1651  H1701   1.078   .     S
C1652  C1657   1.416   .     A
C1652  C1654   1.411   .     A
C1653  C1658   1.422   .     A
C1653  C1656   1.415   .     A
C1654  C754    1.393   1_556 S
C1655  C1672   1.389   .     A
C1655  C1658   1.416   .     A
C1655  H1718   1.078   .     S
C1657  C1666   1.411   .     A
C1657  C740    1.422   1_556 S
C1659  H1686   1.114   .     S
C1659  H1685   1.117   .     S
C1659  O1734   1.412   .     S
C1659  C1660   1.529   .     S
C1660  H1688   1.112   .     S
C1660  C1661   1.526   .     S
C1660  H1687   1.111   .     S
C1661  H1691   1.111   .     S
C1661  H1692   1.110   .     S
C1661  H1689   1.111   .     S
C1662  O1724   1.426   .     S
C1662  H1694   1.110   .     S
C1662  C1663   1.543   .     S
C1662  H1693   1.111   .     S
C1663  H1695   1.108   .     S
C1663  C1664   1.527   .     S
C1664  H1699   1.111   .     S
C1664  H1697   1.112   .     S
C1665  H1702   1.118   .     S
C1665  O1725   1.418   .     S
C1665  C1667   1.528   .     S
C1665  H1700   1.106   .     S
C1666  C1673   1.384   .     A
C1666  H1719   1.079   .     S
C1667  C1668   1.526   .     S
C1667  H1703   1.111   .     S
C1668  H1707   1.110   .     S
C1668  H1706   1.111   .     S
C1668  H1705   1.111   .     S
C1669  H1709   1.115   .     S
C1669  C1670   1.527   .     S
C1669  H1708   1.115   .     S
C1669  O1726   1.414   .     S
C1670  C1671   1.527   .     S
C1670  H1710   1.107   .     S
C1670  H1711   1.110   .     S
C1671  H1713   1.110   .     S
C1671  H1714   1.111   .     S
C1671  H1715   1.111   .     S
C1672  H1679   1.083   .     S
C1673  H1690   1.077   .     S
C1673  C738    1.391   1_556 S
C1674  O1725   1.383   .     S
C1675  O1726   1.382   .     S
C1675  C1022   1.385   1_565 S
C1676  H1720   1.082   .     S
C1676  C1062   1.387   1_565 S
Cu1677 O1730   1.957   .     S
Cu1677 N1721   2.021   .     S
Cu1677 O1733   1.947   .     S
Cu1677 O1729   1.969   .     S
Cu1677 O1723   1.966   .     S
Cu1678 O1731   1.957   .     S
Cu1678 O1727   1.966   .     S
Cu1678 O1732   1.947   .     S
Cu1678 N1722   2.021   .     S
Cu1678 O1728   1.969   .     S
Cu1678 Cu1779  2.689   .     S
H1696  C1765   1.111   .     S
H1698  C1766   1.110   .     S
H1704  C1055   1.111   1_565 S
O1731  C1744   1.298   .     S
O1734  C1751   1.384   .     S
C1735  C1738   1.454   .     S
C1735  O1830   1.295   .     A
C1735  O1621   1.295   1_655 S
C1736  H1782   1.084   .     S
C1737  C1746   1.457   .     S
C1737  C1778   1.401   .     A
C1737  C1573   1.413   1_655 S
C1738  C1776   1.411   .     A
C1738  C1532   1.399   1_655 S
C1739  N1824   1.368   .     A
C1739  H1783   1.078   .     S
C1739  C1741   1.414   .     A
C1740  C1742   1.417   .     A
C1740  H1784   1.080   .     S
C1740  N1823   1.370   .     A
C1741  N1823   1.365   .     A
C1741  H1785   1.074   .     S
C1742  H1786   1.081   .     S
C1742  N1824   1.367   .     A
C1743  C1745   1.471   .     S
C1743  O1834   1.298   .     A
C1743  O1628   1.301   1_655 S
C1744  O1835   1.298   .     A
C1744  C1747   1.467   .     S
C1745  C1752   1.400   .     A
C1745  C1750   1.411   .     A
C1746  O1829   1.300   .     A
C1746  O1627   1.292   1_655 S
C1747  C1753   1.399   .     A
C1747  C1751   1.408   .     A
C1748  C1750   1.395   .     A
C1748  C1756   1.398   .     A
C1748  H1614   1.077   1_655 S
C1749  H1819   1.083   .     S
C1749  C1758   1.402   .     A
C1749  C1751   1.397   .     A
C1750  O1622   1.385   1_655 S
C1752  C1754   1.403   .     A
C1752  H1814   1.079   .     S
C1753  C1755   1.402   .     A
C1753  H1803   1.078   .     S
C1754  C1759   1.416   .     A
C1754  C1756   1.411   .     A
C1755  C1760   1.422   .     A
C1755  C1758   1.415   .     A
C1756  C856    1.393   1_556 S
C1757  C1774   1.389   .     A
C1757  C1760   1.416   .     A
C1757  H1820   1.078   .     S
C1759  C1768   1.411   .     A
C1759  C842    1.422   1_556 S
C1761  H1788   1.114   .     S
C1761  H1787   1.117   .     S
C1761  O1836   1.412   .     S
C1761  C1762   1.529   .     S
C1762  H1790   1.112   .     S
C1762  C1763   1.526   .     S
C1762  H1789   1.111   .     S
C1763  H1793   1.111   .     S
C1763  H1794   1.110   .     S
C1763  H1791   1.111   .     S
C1764  O1826   1.426   .     S
C1764  H1796   1.110   .     S
C1764  C1765   1.543   .     S
C1764  H1795   1.111   .     S
C1765  H1797   1.108   .     S
C1765  C1766   1.527   .     S
C1766  H1801   1.111   .     S
C1766  H1799   1.112   .     S
C1767  H1804   1.118   .     S
C1767  O1827   1.418   .     S
C1767  C1769   1.528   .     S
C1767  H1802   1.106   .     S
C1768  C1775   1.384   .     A
C1768  H1821   1.079   .     S
C1769  C1770   1.526   .     S
C1769  H1805   1.111   .     S
C1770  H1809   1.110   .     S
C1770  H1808   1.111   .     S
C1770  H1807   1.111   .     S
C1771  H1811   1.115   .     S
C1771  C1772   1.527   .     S
C1771  H1810   1.115   .     S
C1771  O1828   1.414   .     S
C1772  C1773   1.527   .     S
C1772  H1812   1.107   .     S
C1772  H1813   1.110   .     S
C1773  H1815   1.110   .     S
C1773  H1816   1.111   .     S
C1773  H1817   1.111   .     S
C1774  H1781   1.083   .     S
C1775  H1792   1.077   .     S
C1775  C840    1.391   1_556 S
C1776  O1827   1.383   .     S
C1777  O1828   1.382   .     S
C1777  C1124   1.385   1_565 S
C1778  H1822   1.082   .     S
C1778  C1164   1.387   1_565 S
Cu1779 O1832   1.957   .     S
Cu1779 N1823   2.021   .     S
Cu1779 O1835   1.947   .     S
Cu1779 O1831   1.969   .     S
Cu1779 O1825   1.966   .     S
Cu1780 O1833   1.957   .     S
Cu1780 O1829   1.966   .     S
Cu1780 O1834   1.947   .     S
Cu1780 N1824   2.021   .     S
Cu1780 O1830   1.969   .     S
Cu1780 Cu1575  2.689   1_655 S
H1798  C1561   1.111   1_655 S
H1800  C1562   1.110   1_655 S
H1806  C1157   1.111   1_565 S
O1833  C1540   1.298   1_655 S
O1836  C1547   1.384   1_655 S
