data_str_m3_o2_o5_pcu_sym.100
_audit_creation_date              2020-01-03
_audit_creation_method            'Materials Studio'
_symmetry_space_group_name_H-M    'P1'
_symmetry_Int_Tables_number       1
_symmetry_cell_setting            triclinic
loop_
_symmetry_equiv_pos_as_xyz
  x,y,z
_cell_length_a                    29.5946
_cell_length_b                    28.2970
_cell_length_c                    26.7579
_cell_angle_alpha                 89.9987
_cell_angle_beta                  90.0211
_cell_angle_gamma                 90.0746
loop_
_atom_site_label
_atom_site_type_symbol
_atom_site_fract_x
_atom_site_fract_y
_atom_site_fract_z
_atom_site_U_iso_or_equiv
_atom_site_adp_type
_atom_site_occupancy
C1     C     0.16356   0.24994   0.17171   0.00000  Uiso   1.00
C2     C     0.21619   0.44733   0.14160   0.00000  Uiso   1.00
C3     C     0.24995   0.25000   0.07282   0.00000  Uiso   1.00
C4     C     0.25005   0.25000   0.26052   0.00000  Uiso   1.00
C5     C     0.25000   0.02667   0.16667   0.00000  Uiso   1.00
C6     C     0.25000   0.47330   0.16667   0.00000  Uiso   1.00
C7     C     0.24998   0.24999   0.02177   0.00000  Uiso   1.00
C8     C     0.25002   0.24999   0.31156   0.00000  Uiso   1.00
C9     C     0.04432   0.29157   0.19362   0.00000  Uiso   1.00
C10    C     0.45554   0.20786   0.13992   0.00000  Uiso   1.00
C11    C     0.45577   0.29193   0.14021   0.00000  Uiso   1.00
C12    C     0.33644   0.25001   0.16159   0.00000  Uiso   1.00
C13    C     0.04432   0.20750   0.19263   0.00000  Uiso   1.00
C14    C     0.09145   0.29253   0.19272   0.00000  Uiso   1.00
C15    C     0.40844   0.20698   0.14113   0.00000  Uiso   1.00
C16    C     0.40866   0.29291   0.14117   0.00000  Uiso   1.00
C17    C     0.09141   0.20660   0.19140   0.00000  Uiso   1.00
C18    C     0.11508   0.24972   0.18369   0.00000  Uiso   1.00
C19    C     0.38490   0.24998   0.14955   0.00000  Uiso   1.00
C20    C     0.02225   0.24964   0.17964   0.00000  Uiso   1.00
C21    C     0.47772   0.24982   0.15355   0.00000  Uiso   1.00
C22    C     0.23278   0.10222   0.12683   0.00000  Uiso   1.00
C23    C     0.28301   0.39777   0.19150   0.00000  Uiso   1.00
C24    C     0.26722   0.10227   0.20650   0.00000  Uiso   1.00
C25    C     0.21698   0.39768   0.14185   0.00000  Uiso   1.00
C26    C     0.23264   0.05257   0.12597   0.00000  Uiso   1.00
C27    C     0.28380   0.44742   0.19175   0.00000  Uiso   1.00
C28    C     0.26736   0.05262   0.20737   0.00000  Uiso   1.00
Cl29   Cl    0.01430   0.33785   0.22336   0.00000  Uiso   1.00
Cl30   Cl    0.48530   0.16150   0.11000   0.00000  Uiso   1.00
Cl31   Cl    0.48593   0.33860   0.11115   0.00000  Uiso   1.00
Cl32   Cl    0.01442   0.16074   0.22184   0.00000  Uiso   1.00
Cl33   Cl    0.11879   0.34675   0.20637   0.00000  Uiso   1.00
Cl34   Cl    0.38105   0.15245   0.12882   0.00000  Uiso   1.00
Cl35   Cl    0.38150   0.34736   0.12845   0.00000  Uiso   1.00
Cl36   Cl    0.11859   0.15183   0.20268   0.00000  Uiso   1.00
H37    H     0.21955   0.03479   0.09322   0.00000  Uiso   1.00
H38    H     0.31113   0.46521   0.21095   0.00000  Uiso   1.00
H39    H     0.28044   0.03487   0.24012   0.00000  Uiso   1.00
H40    H     0.18886   0.46505   0.12241   0.00000  Uiso   1.00
H41    H     0.21918   0.12157   0.09540   0.00000  Uiso   1.00
H42    H     0.30905   0.37836   0.21105   0.00000  Uiso   1.00
H43    H     0.28082   0.12165   0.23793   0.00000  Uiso   1.00
H44    H     0.19093   0.37820   0.12232   0.00000  Uiso   1.00
N45    N     0.25000   0.12624   0.16667   0.00000  Uiso   1.00
N46    N     0.25000   0.37377   0.16667   0.00000  Uiso   1.00
O47    O     0.18453   0.28974   0.16667   0.00000  Uiso   1.00
O48    O     0.31547   0.21026   0.16666   0.00000  Uiso   1.00
O49    O     0.31547   0.28974   0.16666   0.00000  Uiso   1.00
O50    O     0.18453   0.21026   0.16667   0.00000  Uiso   1.00
O51    O     0.25000   0.28973   0.09511   0.00000  Uiso   1.00
O52    O     0.25000   0.21027   0.23822   0.00000  Uiso   1.00
O53    O     0.25000   0.28973   0.23822   0.00000  Uiso   1.00
O54    O     0.25000   0.21027   0.09511   0.00000  Uiso   1.00
Zn55   Zn    0.25000   0.30307   0.16667   0.00000  Uiso   1.00
Zn56   Zn    0.25000   0.19693   0.16667   0.00000  Uiso   1.00
C57    C     0.66356   0.24994   0.17171   0.00000  Uiso   1.00
C58    C     0.71619   0.44733   0.14160   0.00000  Uiso   1.00
C59    C     0.74995   0.25000   0.07282   0.00000  Uiso   1.00
C60    C     0.75005   0.25000   0.26052   0.00000  Uiso   1.00
C61    C     0.75000   0.02667   0.16667   0.00000  Uiso   1.00
C62    C     0.75000   0.47330   0.16667   0.00000  Uiso   1.00
C63    C     0.74998   0.24999   0.02177   0.00000  Uiso   1.00
C64    C     0.75002   0.24999   0.31156   0.00000  Uiso   1.00
C65    C     0.54432   0.29157   0.19362   0.00000  Uiso   1.00
C66    C     0.95554   0.20786   0.13992   0.00000  Uiso   1.00
C67    C     0.95577   0.29193   0.14021   0.00000  Uiso   1.00
C68    C     0.83644   0.25001   0.16159   0.00000  Uiso   1.00
C69    C     0.54432   0.20750   0.19263   0.00000  Uiso   1.00
C70    C     0.59145   0.29253   0.19272   0.00000  Uiso   1.00
C71    C     0.90844   0.20698   0.14113   0.00000  Uiso   1.00
C72    C     0.90866   0.29291   0.14117   0.00000  Uiso   1.00
C73    C     0.59141   0.20660   0.19140   0.00000  Uiso   1.00
C74    C     0.61508   0.24972   0.18369   0.00000  Uiso   1.00
C75    C     0.88490   0.24998   0.14955   0.00000  Uiso   1.00
C76    C     0.52225   0.24964   0.17964   0.00000  Uiso   1.00
C77    C     0.97772   0.24982   0.15355   0.00000  Uiso   1.00
C78    C     0.73278   0.10222   0.12683   0.00000  Uiso   1.00
C79    C     0.78301   0.39777   0.19150   0.00000  Uiso   1.00
C80    C     0.76722   0.10227   0.20650   0.00000  Uiso   1.00
C81    C     0.71698   0.39768   0.14185   0.00000  Uiso   1.00
C82    C     0.73264   0.05257   0.12597   0.00000  Uiso   1.00
C83    C     0.78380   0.44742   0.19175   0.00000  Uiso   1.00
C84    C     0.76736   0.05262   0.20737   0.00000  Uiso   1.00
Cl85   Cl    0.51430   0.33785   0.22336   0.00000  Uiso   1.00
Cl86   Cl    0.98530   0.16150   0.11000   0.00000  Uiso   1.00
Cl87   Cl    0.98593   0.33860   0.11115   0.00000  Uiso   1.00
Cl88   Cl    0.51442   0.16074   0.22184   0.00000  Uiso   1.00
Cl89   Cl    0.61879   0.34675   0.20637   0.00000  Uiso   1.00
Cl90   Cl    0.88105   0.15245   0.12882   0.00000  Uiso   1.00
Cl91   Cl    0.88150   0.34736   0.12845   0.00000  Uiso   1.00
Cl92   Cl    0.61859   0.15183   0.20268   0.00000  Uiso   1.00
H93    H     0.71955   0.03479   0.09322   0.00000  Uiso   1.00
H94    H     0.81113   0.46521   0.21095   0.00000  Uiso   1.00
H95    H     0.78044   0.03487   0.24012   0.00000  Uiso   1.00
H96    H     0.68886   0.46505   0.12241   0.00000  Uiso   1.00
H97    H     0.71918   0.12157   0.09540   0.00000  Uiso   1.00
H98    H     0.80905   0.37836   0.21105   0.00000  Uiso   1.00
H99    H     0.78082   0.12165   0.23793   0.00000  Uiso   1.00
H100   H     0.69093   0.37820   0.12232   0.00000  Uiso   1.00
N101   N     0.75000   0.12624   0.16667   0.00000  Uiso   1.00
N102   N     0.75000   0.37377   0.16667   0.00000  Uiso   1.00
O103   O     0.68453   0.28974   0.16667   0.00000  Uiso   1.00
O104   O     0.81547   0.21026   0.16666   0.00000  Uiso   1.00
O105   O     0.81547   0.28974   0.16666   0.00000  Uiso   1.00
O106   O     0.68453   0.21026   0.16667   0.00000  Uiso   1.00
O107   O     0.75000   0.28973   0.09511   0.00000  Uiso   1.00
O108   O     0.75000   0.21027   0.23822   0.00000  Uiso   1.00
O109   O     0.75000   0.28973   0.23822   0.00000  Uiso   1.00
O110   O     0.75000   0.21027   0.09511   0.00000  Uiso   1.00
Zn111  Zn    0.75000   0.30307   0.16667   0.00000  Uiso   1.00
Zn112  Zn    0.75000   0.19693   0.16667   0.00000  Uiso   1.00
C113   C     0.16356   0.74994   0.17171   0.00000  Uiso   1.00
C114   C     0.21619   0.94733   0.14160   0.00000  Uiso   1.00
C115   C     0.24995   0.75000   0.07282   0.00000  Uiso   1.00
C116   C     0.25005   0.75000   0.26052   0.00000  Uiso   1.00
C117   C     0.25000   0.52667   0.16667   0.00000  Uiso   1.00
C118   C     0.25000   0.97330   0.16667   0.00000  Uiso   1.00
C119   C     0.24998   0.74999   0.02177   0.00000  Uiso   1.00
C120   C     0.25002   0.74999   0.31156   0.00000  Uiso   1.00
C121   C     0.04432   0.79157   0.19362   0.00000  Uiso   1.00
C122   C     0.45554   0.70786   0.13992   0.00000  Uiso   1.00
C123   C     0.45577   0.79193   0.14021   0.00000  Uiso   1.00
C124   C     0.33644   0.75001   0.16159   0.00000  Uiso   1.00
C125   C     0.04432   0.70750   0.19263   0.00000  Uiso   1.00
C126   C     0.09145   0.79253   0.19272   0.00000  Uiso   1.00
C127   C     0.40844   0.70698   0.14113   0.00000  Uiso   1.00
C128   C     0.40866   0.79291   0.14117   0.00000  Uiso   1.00
C129   C     0.09141   0.70660   0.19140   0.00000  Uiso   1.00
C130   C     0.11508   0.74972   0.18369   0.00000  Uiso   1.00
C131   C     0.38490   0.74998   0.14955   0.00000  Uiso   1.00
C132   C     0.02225   0.74964   0.17964   0.00000  Uiso   1.00
C133   C     0.47772   0.74982   0.15355   0.00000  Uiso   1.00
C134   C     0.23278   0.60222   0.12683   0.00000  Uiso   1.00
C135   C     0.28301   0.89777   0.19150   0.00000  Uiso   1.00
C136   C     0.26722   0.60227   0.20650   0.00000  Uiso   1.00
C137   C     0.21698   0.89768   0.14185   0.00000  Uiso   1.00
C138   C     0.23264   0.55257   0.12597   0.00000  Uiso   1.00
C139   C     0.28380   0.94742   0.19175   0.00000  Uiso   1.00
C140   C     0.26736   0.55262   0.20737   0.00000  Uiso   1.00
Cl141  Cl    0.01430   0.83785   0.22336   0.00000  Uiso   1.00
Cl142  Cl    0.48530   0.66150   0.11000   0.00000  Uiso   1.00
Cl143  Cl    0.48593   0.83860   0.11115   0.00000  Uiso   1.00
Cl144  Cl    0.01442   0.66074   0.22184   0.00000  Uiso   1.00
Cl145  Cl    0.11879   0.84675   0.20637   0.00000  Uiso   1.00
Cl146  Cl    0.38105   0.65245   0.12882   0.00000  Uiso   1.00
Cl147  Cl    0.38150   0.84736   0.12845   0.00000  Uiso   1.00
Cl148  Cl    0.11859   0.65183   0.20268   0.00000  Uiso   1.00
H149   H     0.21955   0.53479   0.09322   0.00000  Uiso   1.00
H150   H     0.31113   0.96521   0.21095   0.00000  Uiso   1.00
H151   H     0.28044   0.53487   0.24012   0.00000  Uiso   1.00
H152   H     0.18886   0.96505   0.12241   0.00000  Uiso   1.00
H153   H     0.21918   0.62157   0.09540   0.00000  Uiso   1.00
H154   H     0.30905   0.87836   0.21105   0.00000  Uiso   1.00
H155   H     0.28082   0.62165   0.23793   0.00000  Uiso   1.00
H156   H     0.19093   0.87820   0.12232   0.00000  Uiso   1.00
N157   N     0.25000   0.62624   0.16667   0.00000  Uiso   1.00
N158   N     0.25000   0.87377   0.16667   0.00000  Uiso   1.00
O159   O     0.18453   0.78974   0.16667   0.00000  Uiso   1.00
O160   O     0.31547   0.71026   0.16666   0.00000  Uiso   1.00
O161   O     0.31547   0.78974   0.16666   0.00000  Uiso   1.00
O162   O     0.18453   0.71026   0.16667   0.00000  Uiso   1.00
O163   O     0.25000   0.78973   0.09511   0.00000  Uiso   1.00
O164   O     0.25000   0.71027   0.23822   0.00000  Uiso   1.00
O165   O     0.25000   0.78973   0.23822   0.00000  Uiso   1.00
O166   O     0.25000   0.71027   0.09511   0.00000  Uiso   1.00
Zn167  Zn    0.25000   0.80307   0.16667   0.00000  Uiso   1.00
Zn168  Zn    0.25000   0.69693   0.16667   0.00000  Uiso   1.00
C169   C     0.66356   0.74994   0.17171   0.00000  Uiso   1.00
C170   C     0.71619   0.94733   0.14160   0.00000  Uiso   1.00
C171   C     0.74995   0.75000   0.07282   0.00000  Uiso   1.00
C172   C     0.75005   0.75000   0.26052   0.00000  Uiso   1.00
C173   C     0.75000   0.52667   0.16667   0.00000  Uiso   1.00
C174   C     0.75000   0.97330   0.16667   0.00000  Uiso   1.00
C175   C     0.74998   0.74999   0.02177   0.00000  Uiso   1.00
C176   C     0.75002   0.74999   0.31156   0.00000  Uiso   1.00
C177   C     0.54432   0.79157   0.19362   0.00000  Uiso   1.00
C178   C     0.95554   0.70786   0.13992   0.00000  Uiso   1.00
C179   C     0.95577   0.79193   0.14021   0.00000  Uiso   1.00
C180   C     0.83644   0.75001   0.16159   0.00000  Uiso   1.00
C181   C     0.54432   0.70750   0.19263   0.00000  Uiso   1.00
C182   C     0.59145   0.79253   0.19272   0.00000  Uiso   1.00
C183   C     0.90844   0.70698   0.14113   0.00000  Uiso   1.00
C184   C     0.90866   0.79291   0.14117   0.00000  Uiso   1.00
C185   C     0.59141   0.70660   0.19140   0.00000  Uiso   1.00
C186   C     0.61508   0.74972   0.18369   0.00000  Uiso   1.00
C187   C     0.88490   0.74998   0.14955   0.00000  Uiso   1.00
C188   C     0.52225   0.74964   0.17964   0.00000  Uiso   1.00
C189   C     0.97772   0.74982   0.15355   0.00000  Uiso   1.00
C190   C     0.73278   0.60222   0.12683   0.00000  Uiso   1.00
C191   C     0.78301   0.89777   0.19150   0.00000  Uiso   1.00
C192   C     0.76722   0.60227   0.20650   0.00000  Uiso   1.00
C193   C     0.71698   0.89768   0.14185   0.00000  Uiso   1.00
C194   C     0.73264   0.55257   0.12597   0.00000  Uiso   1.00
C195   C     0.78380   0.94742   0.19175   0.00000  Uiso   1.00
C196   C     0.76736   0.55262   0.20737   0.00000  Uiso   1.00
Cl197  Cl    0.51430   0.83785   0.22336   0.00000  Uiso   1.00
Cl198  Cl    0.98530   0.66150   0.11000   0.00000  Uiso   1.00
Cl199  Cl    0.98593   0.83860   0.11115   0.00000  Uiso   1.00
Cl200  Cl    0.51442   0.66074   0.22184   0.00000  Uiso   1.00
Cl201  Cl    0.61879   0.84675   0.20637   0.00000  Uiso   1.00
Cl202  Cl    0.88105   0.65245   0.12882   0.00000  Uiso   1.00
Cl203  Cl    0.88150   0.84736   0.12845   0.00000  Uiso   1.00
Cl204  Cl    0.61859   0.65183   0.20268   0.00000  Uiso   1.00
H205   H     0.71955   0.53479   0.09322   0.00000  Uiso   1.00
H206   H     0.81113   0.96521   0.21095   0.00000  Uiso   1.00
H207   H     0.78044   0.53487   0.24012   0.00000  Uiso   1.00
H208   H     0.68886   0.96505   0.12241   0.00000  Uiso   1.00
H209   H     0.71918   0.62157   0.09540   0.00000  Uiso   1.00
H210   H     0.80905   0.87836   0.21105   0.00000  Uiso   1.00
H211   H     0.78082   0.62165   0.23793   0.00000  Uiso   1.00
H212   H     0.69093   0.87820   0.12232   0.00000  Uiso   1.00
N213   N     0.75000   0.62624   0.16667   0.00000  Uiso   1.00
N214   N     0.75000   0.87377   0.16667   0.00000  Uiso   1.00
O215   O     0.68453   0.78974   0.16667   0.00000  Uiso   1.00
O216   O     0.81547   0.71026   0.16666   0.00000  Uiso   1.00
O217   O     0.81547   0.78974   0.16666   0.00000  Uiso   1.00
O218   O     0.68453   0.71026   0.16667   0.00000  Uiso   1.00
O219   O     0.75000   0.78973   0.09511   0.00000  Uiso   1.00
O220   O     0.75000   0.71027   0.23822   0.00000  Uiso   1.00
O221   O     0.75000   0.78973   0.23822   0.00000  Uiso   1.00
O222   O     0.75000   0.71027   0.09511   0.00000  Uiso   1.00
Zn223  Zn    0.75000   0.80307   0.16667   0.00000  Uiso   1.00
Zn224  Zn    0.75000   0.69693   0.16667   0.00000  Uiso   1.00
C225   C     0.16356   0.24994   0.50505   0.00000  Uiso   1.00
C226   C     0.21619   0.44733   0.47493   0.00000  Uiso   1.00
C227   C     0.24995   0.25000   0.40615   0.00000  Uiso   1.00
C228   C     0.25005   0.25000   0.59385   0.00000  Uiso   1.00
C229   C     0.25000   0.02667   0.50000   0.00000  Uiso   1.00
C230   C     0.25000   0.47330   0.50001   0.00000  Uiso   1.00
C231   C     0.24998   0.24999   0.35511   0.00000  Uiso   1.00
C232   C     0.25002   0.24999   0.64489   0.00000  Uiso   1.00
C233   C     0.04432   0.29157   0.52696   0.00000  Uiso   1.00
C234   C     0.45554   0.20786   0.47326   0.00000  Uiso   1.00
C235   C     0.45577   0.29193   0.47354   0.00000  Uiso   1.00
C236   C     0.33644   0.25001   0.49492   0.00000  Uiso   1.00
C237   C     0.04432   0.20750   0.52596   0.00000  Uiso   1.00
C238   C     0.09145   0.29253   0.52605   0.00000  Uiso   1.00
C239   C     0.40844   0.20698   0.47446   0.00000  Uiso   1.00
C240   C     0.40866   0.29291   0.47451   0.00000  Uiso   1.00
C241   C     0.09141   0.20660   0.52474   0.00000  Uiso   1.00
C242   C     0.11508   0.24972   0.51702   0.00000  Uiso   1.00
C243   C     0.38490   0.24998   0.48289   0.00000  Uiso   1.00
C244   C     0.02225   0.24964   0.51297   0.00000  Uiso   1.00
C245   C     0.47772   0.24982   0.48689   0.00000  Uiso   1.00
C246   C     0.23278   0.10222   0.46017   0.00000  Uiso   1.00
C247   C     0.28301   0.39777   0.52483   0.00000  Uiso   1.00
C248   C     0.26722   0.10227   0.53983   0.00000  Uiso   1.00
C249   C     0.21698   0.39768   0.47518   0.00000  Uiso   1.00
C250   C     0.23264   0.05257   0.45930   0.00000  Uiso   1.00
C251   C     0.28380   0.44742   0.52509   0.00000  Uiso   1.00
C252   C     0.26736   0.05262   0.54070   0.00000  Uiso   1.00
Cl253  Cl    0.01430   0.33785   0.55669   0.00000  Uiso   1.00
Cl254  Cl    0.48530   0.16150   0.44333   0.00000  Uiso   1.00
Cl255  Cl    0.48593   0.33860   0.44448   0.00000  Uiso   1.00
Cl256  Cl    0.01442   0.16074   0.55518   0.00000  Uiso   1.00
Cl257  Cl    0.11879   0.34675   0.53970   0.00000  Uiso   1.00
Cl258  Cl    0.38105   0.15245   0.46216   0.00000  Uiso   1.00
Cl259  Cl    0.38150   0.34736   0.46178   0.00000  Uiso   1.00
Cl260  Cl    0.11859   0.15183   0.53601   0.00000  Uiso   1.00
H261   H     0.21955   0.03479   0.42655   0.00000  Uiso   1.00
H262   H     0.31113   0.46521   0.54428   0.00000  Uiso   1.00
H263   H     0.28044   0.03487   0.57346   0.00000  Uiso   1.00
H264   H     0.18886   0.46505   0.45574   0.00000  Uiso   1.00
H265   H     0.21918   0.12157   0.42874   0.00000  Uiso   1.00
H266   H     0.30905   0.37836   0.54438   0.00000  Uiso   1.00
H267   H     0.28082   0.12165   0.57127   0.00000  Uiso   1.00
H268   H     0.19093   0.37820   0.45565   0.00000  Uiso   1.00
N269   N     0.25000   0.12624   0.50000   0.00000  Uiso   1.00
N270   N     0.25000   0.37377   0.50000   0.00000  Uiso   1.00
O271   O     0.18453   0.28974   0.50000   0.00000  Uiso   1.00
O272   O     0.31547   0.21026   0.50000   0.00000  Uiso   1.00
O273   O     0.31547   0.28974   0.50000   0.00000  Uiso   1.00
O274   O     0.18453   0.21026   0.50000   0.00000  Uiso   1.00
O275   O     0.25000   0.28973   0.42845   0.00000  Uiso   1.00
O276   O     0.25000   0.21027   0.57155   0.00000  Uiso   1.00
O277   O     0.25000   0.28973   0.57155   0.00000  Uiso   1.00
O278   O     0.25000   0.21027   0.42845   0.00000  Uiso   1.00
Zn279  Zn    0.25000   0.30307   0.50000   0.00000  Uiso   1.00
Zn280  Zn    0.25000   0.19693   0.50000   0.00000  Uiso   1.00
C281   C     0.66356   0.24994   0.50505   0.00000  Uiso   1.00
C282   C     0.71619   0.44733   0.47493   0.00000  Uiso   1.00
C283   C     0.74995   0.25000   0.40615   0.00000  Uiso   1.00
C284   C     0.75005   0.25000   0.59385   0.00000  Uiso   1.00
C285   C     0.75000   0.02667   0.50000   0.00000  Uiso   1.00
C286   C     0.75000   0.47330   0.50001   0.00000  Uiso   1.00
C287   C     0.74998   0.24999   0.35511   0.00000  Uiso   1.00
C288   C     0.75002   0.24999   0.64489   0.00000  Uiso   1.00
C289   C     0.54432   0.29157   0.52696   0.00000  Uiso   1.00
C290   C     0.95554   0.20786   0.47326   0.00000  Uiso   1.00
C291   C     0.95577   0.29193   0.47354   0.00000  Uiso   1.00
C292   C     0.83644   0.25001   0.49492   0.00000  Uiso   1.00
C293   C     0.54432   0.20750   0.52596   0.00000  Uiso   1.00
C294   C     0.59145   0.29253   0.52605   0.00000  Uiso   1.00
C295   C     0.90844   0.20698   0.47446   0.00000  Uiso   1.00
C296   C     0.90866   0.29291   0.47451   0.00000  Uiso   1.00
C297   C     0.59141   0.20660   0.52474   0.00000  Uiso   1.00
C298   C     0.61508   0.24972   0.51702   0.00000  Uiso   1.00
C299   C     0.88490   0.24998   0.48289   0.00000  Uiso   1.00
C300   C     0.52225   0.24964   0.51297   0.00000  Uiso   1.00
C301   C     0.97772   0.24982   0.48689   0.00000  Uiso   1.00
C302   C     0.73278   0.10222   0.46017   0.00000  Uiso   1.00
C303   C     0.78301   0.39777   0.52483   0.00000  Uiso   1.00
C304   C     0.76722   0.10227   0.53983   0.00000  Uiso   1.00
C305   C     0.71698   0.39768   0.47518   0.00000  Uiso   1.00
C306   C     0.73264   0.05257   0.45930   0.00000  Uiso   1.00
C307   C     0.78380   0.44742   0.52509   0.00000  Uiso   1.00
C308   C     0.76736   0.05262   0.54070   0.00000  Uiso   1.00
Cl309  Cl    0.51430   0.33785   0.55669   0.00000  Uiso   1.00
Cl310  Cl    0.98530   0.16150   0.44333   0.00000  Uiso   1.00
Cl311  Cl    0.98593   0.33860   0.44448   0.00000  Uiso   1.00
Cl312  Cl    0.51442   0.16074   0.55518   0.00000  Uiso   1.00
Cl313  Cl    0.61879   0.34675   0.53970   0.00000  Uiso   1.00
Cl314  Cl    0.88105   0.15245   0.46216   0.00000  Uiso   1.00
Cl315  Cl    0.88150   0.34736   0.46178   0.00000  Uiso   1.00
Cl316  Cl    0.61859   0.15183   0.53601   0.00000  Uiso   1.00
H317   H     0.71955   0.03479   0.42655   0.00000  Uiso   1.00
H318   H     0.81113   0.46521   0.54428   0.00000  Uiso   1.00
H319   H     0.78044   0.03487   0.57346   0.00000  Uiso   1.00
H320   H     0.68886   0.46505   0.45574   0.00000  Uiso   1.00
H321   H     0.71918   0.12157   0.42874   0.00000  Uiso   1.00
H322   H     0.80905   0.37836   0.54438   0.00000  Uiso   1.00
H323   H     0.78082   0.12165   0.57127   0.00000  Uiso   1.00
H324   H     0.69093   0.37820   0.45565   0.00000  Uiso   1.00
N325   N     0.75000   0.12624   0.50000   0.00000  Uiso   1.00
N326   N     0.75000   0.37377   0.50000   0.00000  Uiso   1.00
O327   O     0.68453   0.28974   0.50000   0.00000  Uiso   1.00
O328   O     0.81547   0.21026   0.50000   0.00000  Uiso   1.00
O329   O     0.81547   0.28974   0.50000   0.00000  Uiso   1.00
O330   O     0.68453   0.21026   0.50000   0.00000  Uiso   1.00
O331   O     0.75000   0.28973   0.42845   0.00000  Uiso   1.00
O332   O     0.75000   0.21027   0.57155   0.00000  Uiso   1.00
O333   O     0.75000   0.28973   0.57155   0.00000  Uiso   1.00
O334   O     0.75000   0.21027   0.42845   0.00000  Uiso   1.00
Zn335  Zn    0.75000   0.30307   0.50000   0.00000  Uiso   1.00
Zn336  Zn    0.75000   0.19693   0.50000   0.00000  Uiso   1.00
C337   C     0.16356   0.74994   0.50505   0.00000  Uiso   1.00
C338   C     0.21619   0.94733   0.47493   0.00000  Uiso   1.00
C339   C     0.24995   0.75000   0.40615   0.00000  Uiso   1.00
C340   C     0.25005   0.75000   0.59385   0.00000  Uiso   1.00
C341   C     0.25000   0.52667   0.50000   0.00000  Uiso   1.00
C342   C     0.25000   0.97330   0.50001   0.00000  Uiso   1.00
C343   C     0.24998   0.74999   0.35511   0.00000  Uiso   1.00
C344   C     0.25002   0.74999   0.64489   0.00000  Uiso   1.00
C345   C     0.04432   0.79157   0.52696   0.00000  Uiso   1.00
C346   C     0.45554   0.70786   0.47326   0.00000  Uiso   1.00
C347   C     0.45577   0.79193   0.47354   0.00000  Uiso   1.00
C348   C     0.33644   0.75001   0.49492   0.00000  Uiso   1.00
C349   C     0.04432   0.70750   0.52596   0.00000  Uiso   1.00
C350   C     0.09145   0.79253   0.52605   0.00000  Uiso   1.00
C351   C     0.40844   0.70698   0.47446   0.00000  Uiso   1.00
C352   C     0.40866   0.79291   0.47451   0.00000  Uiso   1.00
C353   C     0.09141   0.70660   0.52474   0.00000  Uiso   1.00
C354   C     0.11508   0.74972   0.51702   0.00000  Uiso   1.00
C355   C     0.38490   0.74998   0.48289   0.00000  Uiso   1.00
C356   C     0.02225   0.74964   0.51297   0.00000  Uiso   1.00
C357   C     0.47772   0.74982   0.48689   0.00000  Uiso   1.00
C358   C     0.23278   0.60222   0.46017   0.00000  Uiso   1.00
C359   C     0.28301   0.89777   0.52483   0.00000  Uiso   1.00
C360   C     0.26722   0.60227   0.53983   0.00000  Uiso   1.00
C361   C     0.21698   0.89768   0.47518   0.00000  Uiso   1.00
C362   C     0.23264   0.55257   0.45930   0.00000  Uiso   1.00
C363   C     0.28380   0.94742   0.52509   0.00000  Uiso   1.00
C364   C     0.26736   0.55262   0.54070   0.00000  Uiso   1.00
Cl365  Cl    0.01430   0.83785   0.55669   0.00000  Uiso   1.00
Cl366  Cl    0.48530   0.66150   0.44333   0.00000  Uiso   1.00
Cl367  Cl    0.48593   0.83860   0.44448   0.00000  Uiso   1.00
Cl368  Cl    0.01442   0.66074   0.55518   0.00000  Uiso   1.00
Cl369  Cl    0.11879   0.84675   0.53970   0.00000  Uiso   1.00
Cl370  Cl    0.38105   0.65245   0.46216   0.00000  Uiso   1.00
Cl371  Cl    0.38150   0.84736   0.46178   0.00000  Uiso   1.00
Cl372  Cl    0.11859   0.65183   0.53601   0.00000  Uiso   1.00
H373   H     0.21955   0.53479   0.42655   0.00000  Uiso   1.00
H374   H     0.31113   0.96521   0.54428   0.00000  Uiso   1.00
H375   H     0.28044   0.53487   0.57346   0.00000  Uiso   1.00
H376   H     0.18886   0.96505   0.45574   0.00000  Uiso   1.00
H377   H     0.21918   0.62157   0.42874   0.00000  Uiso   1.00
H378   H     0.30905   0.87836   0.54438   0.00000  Uiso   1.00
H379   H     0.28082   0.62165   0.57127   0.00000  Uiso   1.00
H380   H     0.19093   0.87820   0.45565   0.00000  Uiso   1.00
N381   N     0.25000   0.62624   0.50000   0.00000  Uiso   1.00
N382   N     0.25000   0.87377   0.50000   0.00000  Uiso   1.00
O383   O     0.18453   0.78974   0.50000   0.00000  Uiso   1.00
O384   O     0.31547   0.71026   0.50000   0.00000  Uiso   1.00
O385   O     0.31547   0.78974   0.50000   0.00000  Uiso   1.00
O386   O     0.18453   0.71026   0.50000   0.00000  Uiso   1.00
O387   O     0.25000   0.78973   0.42845   0.00000  Uiso   1.00
O388   O     0.25000   0.71027   0.57155   0.00000  Uiso   1.00
O389   O     0.25000   0.78973   0.57155   0.00000  Uiso   1.00
O390   O     0.25000   0.71027   0.42845   0.00000  Uiso   1.00
Zn391  Zn    0.25000   0.80307   0.50000   0.00000  Uiso   1.00
Zn392  Zn    0.25000   0.69693   0.50000   0.00000  Uiso   1.00
C393   C     0.66356   0.74994   0.50505   0.00000  Uiso   1.00
C394   C     0.71619   0.94733   0.47493   0.00000  Uiso   1.00
C395   C     0.74995   0.75000   0.40615   0.00000  Uiso   1.00
C396   C     0.75005   0.75000   0.59385   0.00000  Uiso   1.00
C397   C     0.75000   0.52667   0.50000   0.00000  Uiso   1.00
C398   C     0.75000   0.97330   0.50001   0.00000  Uiso   1.00
C399   C     0.74998   0.74999   0.35511   0.00000  Uiso   1.00
C400   C     0.75002   0.74999   0.64489   0.00000  Uiso   1.00
C401   C     0.54432   0.79157   0.52696   0.00000  Uiso   1.00
C402   C     0.95554   0.70786   0.47326   0.00000  Uiso   1.00
C403   C     0.95577   0.79193   0.47354   0.00000  Uiso   1.00
C404   C     0.83644   0.75001   0.49492   0.00000  Uiso   1.00
C405   C     0.54432   0.70750   0.52596   0.00000  Uiso   1.00
C406   C     0.59145   0.79253   0.52605   0.00000  Uiso   1.00
C407   C     0.90844   0.70698   0.47446   0.00000  Uiso   1.00
C408   C     0.90866   0.79291   0.47451   0.00000  Uiso   1.00
C409   C     0.59141   0.70660   0.52474   0.00000  Uiso   1.00
C410   C     0.61508   0.74972   0.51702   0.00000  Uiso   1.00
C411   C     0.88490   0.74998   0.48289   0.00000  Uiso   1.00
C412   C     0.52225   0.74964   0.51297   0.00000  Uiso   1.00
C413   C     0.97772   0.74982   0.48689   0.00000  Uiso   1.00
C414   C     0.73278   0.60222   0.46017   0.00000  Uiso   1.00
C415   C     0.78301   0.89777   0.52483   0.00000  Uiso   1.00
C416   C     0.76722   0.60227   0.53983   0.00000  Uiso   1.00
C417   C     0.71698   0.89768   0.47518   0.00000  Uiso   1.00
C418   C     0.73264   0.55257   0.45930   0.00000  Uiso   1.00
C419   C     0.78380   0.94742   0.52509   0.00000  Uiso   1.00
C420   C     0.76736   0.55262   0.54070   0.00000  Uiso   1.00
Cl421  Cl    0.51430   0.83785   0.55669   0.00000  Uiso   1.00
Cl422  Cl    0.98530   0.66150   0.44333   0.00000  Uiso   1.00
Cl423  Cl    0.98593   0.83860   0.44448   0.00000  Uiso   1.00
Cl424  Cl    0.51442   0.66074   0.55518   0.00000  Uiso   1.00
Cl425  Cl    0.61879   0.84675   0.53970   0.00000  Uiso   1.00
Cl426  Cl    0.88105   0.65245   0.46216   0.00000  Uiso   1.00
Cl427  Cl    0.88150   0.84736   0.46178   0.00000  Uiso   1.00
Cl428  Cl    0.61859   0.65183   0.53601   0.00000  Uiso   1.00
H429   H     0.71955   0.53479   0.42655   0.00000  Uiso   1.00
H430   H     0.81113   0.96521   0.54428   0.00000  Uiso   1.00
H431   H     0.78044   0.53487   0.57346   0.00000  Uiso   1.00
H432   H     0.68886   0.96505   0.45574   0.00000  Uiso   1.00
H433   H     0.71918   0.62157   0.42874   0.00000  Uiso   1.00
H434   H     0.80905   0.87836   0.54438   0.00000  Uiso   1.00
H435   H     0.78082   0.62165   0.57127   0.00000  Uiso   1.00
H436   H     0.69093   0.87820   0.45565   0.00000  Uiso   1.00
N437   N     0.75000   0.62624   0.50000   0.00000  Uiso   1.00
N438   N     0.75000   0.87377   0.50000   0.00000  Uiso   1.00
O439   O     0.68453   0.78974   0.50000   0.00000  Uiso   1.00
O440   O     0.81547   0.71026   0.50000   0.00000  Uiso   1.00
O441   O     0.81547   0.78974   0.50000   0.00000  Uiso   1.00
O442   O     0.68453   0.71026   0.50000   0.00000  Uiso   1.00
O443   O     0.75000   0.78973   0.42845   0.00000  Uiso   1.00
O444   O     0.75000   0.71027   0.57155   0.00000  Uiso   1.00
O445   O     0.75000   0.78973   0.57155   0.00000  Uiso   1.00
O446   O     0.75000   0.71027   0.42845   0.00000  Uiso   1.00
Zn447  Zn    0.75000   0.80307   0.50000   0.00000  Uiso   1.00
Zn448  Zn    0.75000   0.69693   0.50000   0.00000  Uiso   1.00
C449   C     0.16356   0.24994   0.83838   0.00000  Uiso   1.00
C450   C     0.21619   0.44733   0.80826   0.00000  Uiso   1.00
C451   C     0.24995   0.25000   0.73948   0.00000  Uiso   1.00
C452   C     0.25005   0.25000   0.92718   0.00000  Uiso   1.00
C453   C     0.25000   0.02667   0.83334   0.00000  Uiso   1.00
C454   C     0.25000   0.47330   0.83334   0.00000  Uiso   1.00
C455   C     0.24998   0.24999   0.68844   0.00000  Uiso   1.00
C456   C     0.25002   0.24999   0.97823   0.00000  Uiso   1.00
C457   C     0.04432   0.29157   0.86029   0.00000  Uiso   1.00
C458   C     0.45554   0.20786   0.80659   0.00000  Uiso   1.00
C459   C     0.45577   0.29193   0.80688   0.00000  Uiso   1.00
C460   C     0.33644   0.25001   0.82826   0.00000  Uiso   1.00
C461   C     0.04432   0.20750   0.85929   0.00000  Uiso   1.00
C462   C     0.09145   0.29253   0.85938   0.00000  Uiso   1.00
C463   C     0.40844   0.20698   0.80779   0.00000  Uiso   1.00
C464   C     0.40866   0.29291   0.80784   0.00000  Uiso   1.00
C465   C     0.09141   0.20660   0.85807   0.00000  Uiso   1.00
C466   C     0.11508   0.24972   0.85035   0.00000  Uiso   1.00
C467   C     0.38490   0.24998   0.81622   0.00000  Uiso   1.00
C468   C     0.02225   0.24964   0.84630   0.00000  Uiso   1.00
C469   C     0.47772   0.24982   0.82022   0.00000  Uiso   1.00
C470   C     0.23278   0.10222   0.79350   0.00000  Uiso   1.00
C471   C     0.28301   0.39777   0.85816   0.00000  Uiso   1.00
C472   C     0.26722   0.10227   0.87317   0.00000  Uiso   1.00
C473   C     0.21698   0.39768   0.80852   0.00000  Uiso   1.00
C474   C     0.23264   0.05257   0.79263   0.00000  Uiso   1.00
C475   C     0.28380   0.44742   0.85842   0.00000  Uiso   1.00
C476   C     0.26736   0.05262   0.87404   0.00000  Uiso   1.00
Cl477  Cl    0.01430   0.33785   0.89002   0.00000  Uiso   1.00
Cl478  Cl    0.48530   0.16150   0.77667   0.00000  Uiso   1.00
Cl479  Cl    0.48593   0.33860   0.77782   0.00000  Uiso   1.00
Cl480  Cl    0.01442   0.16074   0.88851   0.00000  Uiso   1.00
Cl481  Cl    0.11879   0.34675   0.87303   0.00000  Uiso   1.00
Cl482  Cl    0.38105   0.15245   0.79549   0.00000  Uiso   1.00
Cl483  Cl    0.38150   0.34736   0.79512   0.00000  Uiso   1.00
Cl484  Cl    0.11859   0.15183   0.86935   0.00000  Uiso   1.00
H485   H     0.21955   0.03479   0.75988   0.00000  Uiso   1.00
H486   H     0.31113   0.46521   0.87761   0.00000  Uiso   1.00
H487   H     0.28044   0.03487   0.90679   0.00000  Uiso   1.00
H488   H     0.18886   0.46505   0.78908   0.00000  Uiso   1.00
H489   H     0.21918   0.12157   0.76207   0.00000  Uiso   1.00
H490   H     0.30905   0.37836   0.87771   0.00000  Uiso   1.00
H491   H     0.28082   0.12165   0.90460   0.00000  Uiso   1.00
H492   H     0.19093   0.37820   0.78898   0.00000  Uiso   1.00
N493   N     0.25000   0.12624   0.83333   0.00000  Uiso   1.00
N494   N     0.25000   0.37377   0.83333   0.00000  Uiso   1.00
O495   O     0.18453   0.28974   0.83334   0.00000  Uiso   1.00
O496   O     0.31547   0.21026   0.83333   0.00000  Uiso   1.00
O497   O     0.31547   0.28974   0.83333   0.00000  Uiso   1.00
O498   O     0.18453   0.21026   0.83334   0.00000  Uiso   1.00
O499   O     0.25000   0.28973   0.76178   0.00000  Uiso   1.00
O500   O     0.25000   0.21027   0.90489   0.00000  Uiso   1.00
O501   O     0.25000   0.28973   0.90489   0.00000  Uiso   1.00
O502   O     0.25000   0.21027   0.76178   0.00000  Uiso   1.00
Zn503  Zn    0.25000   0.30307   0.83333   0.00000  Uiso   1.00
Zn504  Zn    0.25000   0.19693   0.83333   0.00000  Uiso   1.00
C505   C     0.66356   0.24994   0.83838   0.00000  Uiso   1.00
C506   C     0.71619   0.44733   0.80826   0.00000  Uiso   1.00
C507   C     0.74995   0.25000   0.73948   0.00000  Uiso   1.00
C508   C     0.75005   0.25000   0.92718   0.00000  Uiso   1.00
C509   C     0.75000   0.02667   0.83334   0.00000  Uiso   1.00
C510   C     0.75000   0.47330   0.83334   0.00000  Uiso   1.00
C511   C     0.74998   0.24999   0.68844   0.00000  Uiso   1.00
C512   C     0.75002   0.24999   0.97823   0.00000  Uiso   1.00
C513   C     0.54432   0.29157   0.86029   0.00000  Uiso   1.00
C514   C     0.95554   0.20786   0.80659   0.00000  Uiso   1.00
C515   C     0.95577   0.29193   0.80688   0.00000  Uiso   1.00
C516   C     0.83644   0.25001   0.82826   0.00000  Uiso   1.00
C517   C     0.54432   0.20750   0.85929   0.00000  Uiso   1.00
C518   C     0.59145   0.29253   0.85938   0.00000  Uiso   1.00
C519   C     0.90844   0.20698   0.80779   0.00000  Uiso   1.00
C520   C     0.90866   0.29291   0.80784   0.00000  Uiso   1.00
C521   C     0.59141   0.20660   0.85807   0.00000  Uiso   1.00
C522   C     0.61508   0.24972   0.85035   0.00000  Uiso   1.00
C523   C     0.88490   0.24998   0.81622   0.00000  Uiso   1.00
C524   C     0.52225   0.24964   0.84630   0.00000  Uiso   1.00
C525   C     0.97772   0.24982   0.82022   0.00000  Uiso   1.00
C526   C     0.73278   0.10222   0.79350   0.00000  Uiso   1.00
C527   C     0.78301   0.39777   0.85816   0.00000  Uiso   1.00
C528   C     0.76722   0.10227   0.87317   0.00000  Uiso   1.00
C529   C     0.71698   0.39768   0.80852   0.00000  Uiso   1.00
C530   C     0.73264   0.05257   0.79263   0.00000  Uiso   1.00
C531   C     0.78380   0.44742   0.85842   0.00000  Uiso   1.00
C532   C     0.76736   0.05262   0.87404   0.00000  Uiso   1.00
Cl533  Cl    0.51430   0.33785   0.89002   0.00000  Uiso   1.00
Cl534  Cl    0.98530   0.16150   0.77667   0.00000  Uiso   1.00
Cl535  Cl    0.98593   0.33860   0.77782   0.00000  Uiso   1.00
Cl536  Cl    0.51442   0.16074   0.88851   0.00000  Uiso   1.00
Cl537  Cl    0.61879   0.34675   0.87303   0.00000  Uiso   1.00
Cl538  Cl    0.88105   0.15245   0.79549   0.00000  Uiso   1.00
Cl539  Cl    0.88150   0.34736   0.79512   0.00000  Uiso   1.00
Cl540  Cl    0.61859   0.15183   0.86935   0.00000  Uiso   1.00
H541   H     0.71955   0.03479   0.75988   0.00000  Uiso   1.00
H542   H     0.81113   0.46521   0.87761   0.00000  Uiso   1.00
H543   H     0.78044   0.03487   0.90679   0.00000  Uiso   1.00
H544   H     0.68886   0.46505   0.78908   0.00000  Uiso   1.00
H545   H     0.71918   0.12157   0.76207   0.00000  Uiso   1.00
H546   H     0.80905   0.37836   0.87771   0.00000  Uiso   1.00
H547   H     0.78082   0.12165   0.90460   0.00000  Uiso   1.00
H548   H     0.69093   0.37820   0.78898   0.00000  Uiso   1.00
N549   N     0.75000   0.12624   0.83333   0.00000  Uiso   1.00
N550   N     0.75000   0.37377   0.83333   0.00000  Uiso   1.00
O551   O     0.68453   0.28974   0.83334   0.00000  Uiso   1.00
O552   O     0.81547   0.21026   0.83333   0.00000  Uiso   1.00
O553   O     0.81547   0.28974   0.83333   0.00000  Uiso   1.00
O554   O     0.68453   0.21026   0.83334   0.00000  Uiso   1.00
O555   O     0.75000   0.28973   0.76178   0.00000  Uiso   1.00
O556   O     0.75000   0.21027   0.90489   0.00000  Uiso   1.00
O557   O     0.75000   0.28973   0.90489   0.00000  Uiso   1.00
O558   O     0.75000   0.21027   0.76178   0.00000  Uiso   1.00
Zn559  Zn    0.75000   0.30307   0.83333   0.00000  Uiso   1.00
Zn560  Zn    0.75000   0.19693   0.83333   0.00000  Uiso   1.00
C561   C     0.16356   0.74994   0.83838   0.00000  Uiso   1.00
C562   C     0.21619   0.94733   0.80826   0.00000  Uiso   1.00
C563   C     0.24995   0.75000   0.73948   0.00000  Uiso   1.00
C564   C     0.25005   0.75000   0.92718   0.00000  Uiso   1.00
C565   C     0.25000   0.52667   0.83334   0.00000  Uiso   1.00
C566   C     0.25000   0.97330   0.83334   0.00000  Uiso   1.00
C567   C     0.24998   0.74999   0.68844   0.00000  Uiso   1.00
C568   C     0.25002   0.74999   0.97823   0.00000  Uiso   1.00
C569   C     0.04432   0.79157   0.86029   0.00000  Uiso   1.00
C570   C     0.45554   0.70786   0.80659   0.00000  Uiso   1.00
C571   C     0.45577   0.79193   0.80688   0.00000  Uiso   1.00
C572   C     0.33644   0.75001   0.82826   0.00000  Uiso   1.00
C573   C     0.04432   0.70750   0.85929   0.00000  Uiso   1.00
C574   C     0.09145   0.79253   0.85938   0.00000  Uiso   1.00
C575   C     0.40844   0.70698   0.80779   0.00000  Uiso   1.00
C576   C     0.40866   0.79291   0.80784   0.00000  Uiso   1.00
C577   C     0.09141   0.70660   0.85807   0.00000  Uiso   1.00
C578   C     0.11508   0.74972   0.85035   0.00000  Uiso   1.00
C579   C     0.38490   0.74998   0.81622   0.00000  Uiso   1.00
C580   C     0.02225   0.74964   0.84630   0.00000  Uiso   1.00
C581   C     0.47772   0.74982   0.82022   0.00000  Uiso   1.00
C582   C     0.23278   0.60222   0.79350   0.00000  Uiso   1.00
C583   C     0.28301   0.89777   0.85816   0.00000  Uiso   1.00
C584   C     0.26722   0.60227   0.87317   0.00000  Uiso   1.00
C585   C     0.21698   0.89768   0.80852   0.00000  Uiso   1.00
C586   C     0.23264   0.55257   0.79263   0.00000  Uiso   1.00
C587   C     0.28380   0.94742   0.85842   0.00000  Uiso   1.00
C588   C     0.26736   0.55262   0.87404   0.00000  Uiso   1.00
Cl589  Cl    0.01430   0.83785   0.89002   0.00000  Uiso   1.00
Cl590  Cl    0.48530   0.66150   0.77667   0.00000  Uiso   1.00
Cl591  Cl    0.48593   0.83860   0.77782   0.00000  Uiso   1.00
Cl592  Cl    0.01442   0.66074   0.88851   0.00000  Uiso   1.00
Cl593  Cl    0.11879   0.84675   0.87303   0.00000  Uiso   1.00
Cl594  Cl    0.38105   0.65245   0.79549   0.00000  Uiso   1.00
Cl595  Cl    0.38150   0.84736   0.79512   0.00000  Uiso   1.00
Cl596  Cl    0.11859   0.65183   0.86935   0.00000  Uiso   1.00
H597   H     0.21955   0.53479   0.75988   0.00000  Uiso   1.00
H598   H     0.31113   0.96521   0.87761   0.00000  Uiso   1.00
H599   H     0.28044   0.53487   0.90679   0.00000  Uiso   1.00
H600   H     0.18886   0.96505   0.78908   0.00000  Uiso   1.00
H601   H     0.21918   0.62157   0.76207   0.00000  Uiso   1.00
H602   H     0.30905   0.87836   0.87771   0.00000  Uiso   1.00
H603   H     0.28082   0.62165   0.90460   0.00000  Uiso   1.00
H604   H     0.19093   0.87820   0.78898   0.00000  Uiso   1.00
N605   N     0.25000   0.62624   0.83333   0.00000  Uiso   1.00
N606   N     0.25000   0.87377   0.83333   0.00000  Uiso   1.00
O607   O     0.18453   0.78974   0.83334   0.00000  Uiso   1.00
O608   O     0.31547   0.71026   0.83333   0.00000  Uiso   1.00
O609   O     0.31547   0.78974   0.83333   0.00000  Uiso   1.00
O610   O     0.18453   0.71026   0.83334   0.00000  Uiso   1.00
O611   O     0.25000   0.78973   0.76178   0.00000  Uiso   1.00
O612   O     0.25000   0.71027   0.90489   0.00000  Uiso   1.00
O613   O     0.25000   0.78973   0.90489   0.00000  Uiso   1.00
O614   O     0.25000   0.71027   0.76178   0.00000  Uiso   1.00
Zn615  Zn    0.25000   0.80307   0.83333   0.00000  Uiso   1.00
Zn616  Zn    0.25000   0.69693   0.83333   0.00000  Uiso   1.00
C617   C     0.66356   0.74994   0.83838   0.00000  Uiso   1.00
C618   C     0.71619   0.94733   0.80826   0.00000  Uiso   1.00
C619   C     0.74995   0.75000   0.73948   0.00000  Uiso   1.00
C620   C     0.75005   0.75000   0.92718   0.00000  Uiso   1.00
C621   C     0.75000   0.52667   0.83334   0.00000  Uiso   1.00
C622   C     0.75000   0.97330   0.83334   0.00000  Uiso   1.00
C623   C     0.74998   0.74999   0.68844   0.00000  Uiso   1.00
C624   C     0.75002   0.74999   0.97823   0.00000  Uiso   1.00
C625   C     0.54432   0.79157   0.86029   0.00000  Uiso   1.00
C626   C     0.95554   0.70786   0.80659   0.00000  Uiso   1.00
C627   C     0.95577   0.79193   0.80688   0.00000  Uiso   1.00
C628   C     0.83644   0.75001   0.82826   0.00000  Uiso   1.00
C629   C     0.54432   0.70750   0.85929   0.00000  Uiso   1.00
C630   C     0.59145   0.79253   0.85938   0.00000  Uiso   1.00
C631   C     0.90844   0.70698   0.80779   0.00000  Uiso   1.00
C632   C     0.90866   0.79291   0.80784   0.00000  Uiso   1.00
C633   C     0.59141   0.70660   0.85807   0.00000  Uiso   1.00
C634   C     0.61508   0.74972   0.85035   0.00000  Uiso   1.00
C635   C     0.88490   0.74998   0.81622   0.00000  Uiso   1.00
C636   C     0.52225   0.74964   0.84630   0.00000  Uiso   1.00
C637   C     0.97772   0.74982   0.82022   0.00000  Uiso   1.00
C638   C     0.73278   0.60222   0.79350   0.00000  Uiso   1.00
C639   C     0.78301   0.89777   0.85816   0.00000  Uiso   1.00
C640   C     0.76722   0.60227   0.87317   0.00000  Uiso   1.00
C641   C     0.71698   0.89768   0.80852   0.00000  Uiso   1.00
C642   C     0.73264   0.55257   0.79263   0.00000  Uiso   1.00
C643   C     0.78380   0.94742   0.85842   0.00000  Uiso   1.00
C644   C     0.76736   0.55262   0.87404   0.00000  Uiso   1.00
Cl645  Cl    0.51430   0.83785   0.89002   0.00000  Uiso   1.00
Cl646  Cl    0.98530   0.66150   0.77667   0.00000  Uiso   1.00
Cl647  Cl    0.98593   0.83860   0.77782   0.00000  Uiso   1.00
Cl648  Cl    0.51442   0.66074   0.88851   0.00000  Uiso   1.00
Cl649  Cl    0.61879   0.84675   0.87303   0.00000  Uiso   1.00
Cl650  Cl    0.88105   0.65245   0.79549   0.00000  Uiso   1.00
Cl651  Cl    0.88150   0.84736   0.79512   0.00000  Uiso   1.00
Cl652  Cl    0.61859   0.65183   0.86935   0.00000  Uiso   1.00
H653   H     0.71955   0.53479   0.75988   0.00000  Uiso   1.00
H654   H     0.81113   0.96521   0.87761   0.00000  Uiso   1.00
H655   H     0.78044   0.53487   0.90679   0.00000  Uiso   1.00
H656   H     0.68886   0.96505   0.78908   0.00000  Uiso   1.00
H657   H     0.71918   0.62157   0.76207   0.00000  Uiso   1.00
H658   H     0.80905   0.87836   0.87771   0.00000  Uiso   1.00
H659   H     0.78082   0.62165   0.90460   0.00000  Uiso   1.00
H660   H     0.69093   0.87820   0.78898   0.00000  Uiso   1.00
N661   N     0.75000   0.62624   0.83333   0.00000  Uiso   1.00
N662   N     0.75000   0.87377   0.83333   0.00000  Uiso   1.00
O663   O     0.68453   0.78974   0.83334   0.00000  Uiso   1.00
O664   O     0.81547   0.71026   0.83333   0.00000  Uiso   1.00
O665   O     0.81547   0.78974   0.83333   0.00000  Uiso   1.00
O666   O     0.68453   0.71026   0.83334   0.00000  Uiso   1.00
O667   O     0.75000   0.78973   0.76178   0.00000  Uiso   1.00
O668   O     0.75000   0.71027   0.90489   0.00000  Uiso   1.00
O669   O     0.75000   0.78973   0.90489   0.00000  Uiso   1.00
O670   O     0.75000   0.71027   0.76178   0.00000  Uiso   1.00
Zn671  Zn    0.75000   0.80307   0.83333   0.00000  Uiso   1.00
Zn672  Zn    0.75000   0.69693   0.83333   0.00000  Uiso   1.00
loop_
_geom_bond_atom_site_label_1
_geom_bond_atom_site_label_2
_geom_bond_distance
_geom_bond_site_symmetry_2
_ccdc_geom_bond_type
C1     O50     1.291   .     A
C1     C18     1.470   .     S
C1     O47     1.292   .     A
C2     C6      1.410   .     A
C2     H40     1.082   .     S
C2     C25     1.405   .     A
C3     C7      1.366   .     S
C3     O54     1.273   .     A
C3     O51     1.273   .     A
C4     O53     1.273   .     A
C4     C8      1.366   .     S
C4     O52     1.273   .     A
C5     C28     1.410   .     A
C5     C26     1.410   .     A
C5     C118    1.510   1_545 S
C6     C27     1.410   .     A
C6     C117    1.510   .     S
C7     C456    1.165   1_554 S
C8     C231    1.165   .     S
C9     C14     1.395   .     A
C9     Cl29    1.773   .     S
C9     C20     1.404   .     A
C10    C21     1.404   .     A
C10    Cl30    1.773   .     S
C10    C15     1.395   .     A
C11    Cl31    1.773   .     S
C11    C21     1.404   .     A
C11    C16     1.395   .     A
C12    O48     1.291   .     A
C12    C19     1.470   .     S
C12    O49     1.292   .     A
C13    Cl32    1.773   .     S
C13    C20     1.404   .     A
C13    C17     1.394   .     A
C14    C18     1.420   .     A
C14    Cl33    1.772   .     S
C15    C19     1.421   .     A
C15    Cl34    1.773   .     S
C16    C19     1.421   .     A
C16    Cl35    1.772   .     S
C17    Cl36    1.773   .     S
C17    C18     1.421   .     A
C20    C77     1.491   1_455 S
C21    C76     1.491   .     S
C22    H41     1.081   .     S
C22    N45     1.362   .     A
C22    C26     1.405   .     A
C23    N46     1.362   .     A
C23    H42     1.082   .     S
C23    C27     1.405   .     A
C24    N45     1.362   .     A
C24    C28     1.405   .     A
C24    H43     1.081   .     S
C25    H44     1.082   .     S
C25    N46     1.362   .     A
C26    H37     1.082   .     S
C27    H38     1.082   .     S
C28    H39     1.082   .     S
N45    Zn56    2.000   .     S
N46    Zn55    2.000   .     S
O47    Zn55    1.973   .     S
O48    Zn56    1.973   .     S
O49    Zn55    1.974   .     S
O50    Zn56    1.974   .     S
O51    Zn55    1.951   .     S
O52    Zn56    1.951   .     S
O53    Zn55    1.951   .     S
O54    Zn56    1.951   .     S
C57    O106    1.291   .     A
C57    C74     1.470   .     S
C57    O103    1.292   .     A
C58    C62     1.410   .     A
C58    H96     1.082   .     S
C58    C81     1.405   .     A
C59    C63     1.366   .     S
C59    O110    1.273   .     A
C59    O107    1.273   .     A
C60    O109    1.273   .     A
C60    C64     1.366   .     S
C60    O108    1.273   .     A
C61    C84     1.410   .     A
C61    C82     1.410   .     A
C61    C174    1.510   1_545 S
C62    C83     1.410   .     A
C62    C173    1.510   .     S
C63    C512    1.165   1_554 S
C64    C287    1.165   .     S
C65    C70     1.395   .     A
C65    Cl85    1.773   .     S
C65    C76     1.404   .     A
C66    C77     1.404   .     A
C66    Cl86    1.773   .     S
C66    C71     1.395   .     A
C67    Cl87    1.773   .     S
C67    C77     1.404   .     A
C67    C72     1.395   .     A
C68    O104    1.291   .     A
C68    C75     1.470   .     S
C68    O105    1.292   .     A
C69    Cl88    1.773   .     S
C69    C76     1.404   .     A
C69    C73     1.394   .     A
C70    C74     1.420   .     A
C70    Cl89    1.772   .     S
C71    C75     1.421   .     A
C71    Cl90    1.773   .     S
C72    C75     1.421   .     A
C72    Cl91    1.772   .     S
C73    Cl92    1.773   .     S
C73    C74     1.421   .     A
C77    C20     1.491   1_655 S
C78    H97     1.081   .     S
C78    N101    1.362   .     A
C78    C82     1.405   .     A
C79    N102    1.362   .     A
C79    H98     1.082   .     S
C79    C83     1.405   .     A
C80    N101    1.362   .     A
C80    C84     1.405   .     A
C80    H99     1.081   .     S
C81    H100    1.082   .     S
C81    N102    1.362   .     A
C82    H93     1.082   .     S
C83    H94     1.082   .     S
C84    H95     1.082   .     S
N101   Zn112   2.000   .     S
N102   Zn111   2.000   .     S
O103   Zn111   1.973   .     S
O104   Zn112   1.973   .     S
O105   Zn111   1.974   .     S
O106   Zn112   1.974   .     S
O107   Zn111   1.951   .     S
O108   Zn112   1.951   .     S
O109   Zn111   1.951   .     S
O110   Zn112   1.951   .     S
C113   O162    1.291   .     A
C113   C130    1.470   .     S
C113   O159    1.292   .     A
C114   C118    1.410   .     A
C114   H152    1.082   .     S
C114   C137    1.405   .     A
C115   C119    1.366   .     S
C115   O166    1.273   .     A
C115   O163    1.273   .     A
C116   O165    1.273   .     A
C116   C120    1.366   .     S
C116   O164    1.273   .     A
C117   C140    1.410   .     A
C117   C138    1.410   .     A
C118   C139    1.410   .     A
C118   C5      1.510   1_565 S
C119   C568    1.165   1_554 S
C120   C343    1.165   .     S
C121   C126    1.395   .     A
C121   Cl141   1.773   .     S
C121   C132    1.404   .     A
C122   C133    1.404   .     A
C122   Cl142   1.773   .     S
C122   C127    1.395   .     A
C123   Cl143   1.773   .     S
C123   C133    1.404   .     A
C123   C128    1.395   .     A
C124   O160    1.291   .     A
C124   C131    1.470   .     S
C124   O161    1.292   .     A
C125   Cl144   1.773   .     S
C125   C132    1.404   .     A
C125   C129    1.394   .     A
C126   C130    1.420   .     A
C126   Cl145   1.772   .     S
C127   C131    1.421   .     A
C127   Cl146   1.773   .     S
C128   C131    1.421   .     A
C128   Cl147   1.772   .     S
C129   Cl148   1.773   .     S
C129   C130    1.421   .     A
C132   C189    1.491   1_455 S
C133   C188    1.491   .     S
C134   H153    1.081   .     S
C134   N157    1.362   .     A
C134   C138    1.405   .     A
C135   N158    1.362   .     A
C135   H154    1.082   .     S
C135   C139    1.405   .     A
C136   N157    1.362   .     A
C136   C140    1.405   .     A
C136   H155    1.081   .     S
C137   H156    1.082   .     S
C137   N158    1.362   .     A
C138   H149    1.082   .     S
C139   H150    1.082   .     S
C140   H151    1.082   .     S
N157   Zn168   2.000   .     S
N158   Zn167   2.000   .     S
O159   Zn167   1.973   .     S
O160   Zn168   1.973   .     S
O161   Zn167   1.974   .     S
O162   Zn168   1.974   .     S
O163   Zn167   1.951   .     S
O164   Zn168   1.951   .     S
O165   Zn167   1.951   .     S
O166   Zn168   1.951   .     S
C169   O218    1.291   .     A
C169   C186    1.470   .     S
C169   O215    1.292   .     A
C170   C174    1.410   .     A
C170   H208    1.082   .     S
C170   C193    1.405   .     A
C171   C175    1.366   .     S
C171   O222    1.273   .     A
C171   O219    1.273   .     A
C172   O221    1.273   .     A
C172   C176    1.366   .     S
C172   O220    1.273   .     A
C173   C196    1.410   .     A
C173   C194    1.410   .     A
C174   C195    1.410   .     A
C174   C61     1.510   1_565 S
C175   C624    1.165   1_554 S
C176   C399    1.165   .     S
C177   C182    1.395   .     A
C177   Cl197   1.773   .     S
C177   C188    1.404   .     A
C178   C189    1.404   .     A
C178   Cl198   1.773   .     S
C178   C183    1.395   .     A
C179   Cl199   1.773   .     S
C179   C189    1.404   .     A
C179   C184    1.395   .     A
C180   O216    1.291   .     A
C180   C187    1.470   .     S
C180   O217    1.292   .     A
C181   Cl200   1.773   .     S
C181   C188    1.404   .     A
C181   C185    1.394   .     A
C182   C186    1.420   .     A
C182   Cl201   1.772   .     S
C183   C187    1.421   .     A
C183   Cl202   1.773   .     S
C184   C187    1.421   .     A
C184   Cl203   1.772   .     S
C185   Cl204   1.773   .     S
C185   C186    1.421   .     A
C189   C132    1.491   1_655 S
C190   H209    1.081   .     S
C190   N213    1.362   .     A
C190   C194    1.405   .     A
C191   N214    1.362   .     A
C191   H210    1.082   .     S
C191   C195    1.405   .     A
C192   N213    1.362   .     A
C192   C196    1.405   .     A
C192   H211    1.081   .     S
C193   H212    1.082   .     S
C193   N214    1.362   .     A
C194   H205    1.082   .     S
C195   H206    1.082   .     S
C196   H207    1.082   .     S
N213   Zn224   2.000   .     S
N214   Zn223   2.000   .     S
O215   Zn223   1.973   .     S
O216   Zn224   1.973   .     S
O217   Zn223   1.974   .     S
O218   Zn224   1.974   .     S
O219   Zn223   1.951   .     S
O220   Zn224   1.951   .     S
O221   Zn223   1.951   .     S
O222   Zn224   1.951   .     S
C225   O274    1.291   .     A
C225   C242    1.470   .     S
C225   O271    1.292   .     A
C226   C230    1.410   .     A
C226   H264    1.082   .     S
C226   C249    1.405   .     A
C227   C231    1.366   .     S
C227   O278    1.273   .     A
C227   O275    1.273   .     A
C228   O277    1.273   .     A
C228   C232    1.366   .     S
C228   O276    1.273   .     A
C229   C252    1.410   .     A
C229   C250    1.410   .     A
C229   C342    1.510   1_545 S
C230   C251    1.410   .     A
C230   C341    1.510   .     S
C232   C455    1.165   .     S
C233   C238    1.395   .     A
C233   Cl253   1.773   .     S
C233   C244    1.404   .     A
C234   C245    1.404   .     A
C234   Cl254   1.773   .     S
C234   C239    1.395   .     A
C235   Cl255   1.773   .     S
C235   C245    1.404   .     A
C235   C240    1.395   .     A
C236   O272    1.291   .     A
C236   C243    1.470   .     S
C236   O273    1.292   .     A
C237   Cl256   1.773   .     S
C237   C244    1.404   .     A
C237   C241    1.394   .     A
C238   C242    1.420   .     A
C238   Cl257   1.772   .     S
C239   C243    1.421   .     A
C239   Cl258   1.773   .     S
C240   C243    1.421   .     A
C240   Cl259   1.772   .     S
C241   Cl260   1.773   .     S
C241   C242    1.421   .     A
C244   C301    1.491   1_455 S
C245   C300    1.491   .     S
C246   H265    1.081   .     S
C246   N269    1.362   .     A
C246   C250    1.405   .     A
C247   N270    1.362   .     A
C247   H266    1.082   .     S
C247   C251    1.405   .     A
C248   N269    1.362   .     A
C248   C252    1.405   .     A
C248   H267    1.081   .     S
C249   H268    1.082   .     S
C249   N270    1.362   .     A
C250   H261    1.082   .     S
C251   H262    1.082   .     S
C252   H263    1.082   .     S
N269   Zn280   2.000   .     S
N270   Zn279   2.000   .     S
O271   Zn279   1.973   .     S
O272   Zn280   1.973   .     S
O273   Zn279   1.974   .     S
O274   Zn280   1.974   .     S
O275   Zn279   1.951   .     S
O276   Zn280   1.951   .     S
O277   Zn279   1.951   .     S
O278   Zn280   1.951   .     S
C281   O330    1.291   .     A
C281   C298    1.470   .     S
C281   O327    1.292   .     A
C282   C286    1.410   .     A
C282   H320    1.082   .     S
C282   C305    1.405   .     A
C283   C287    1.366   .     S
C283   O334    1.273   .     A
C283   O331    1.273   .     A
C284   O333    1.273   .     A
C284   C288    1.366   .     S
C284   O332    1.273   .     A
C285   C308    1.410   .     A
C285   C306    1.410   .     A
C285   C398    1.510   1_545 S
C286   C307    1.410   .     A
C286   C397    1.510   .     S
C288   C511    1.165   .     S
C289   C294    1.395   .     A
C289   Cl309   1.773   .     S
C289   C300    1.404   .     A
C290   C301    1.404   .     A
C290   Cl310   1.773   .     S
C290   C295    1.395   .     A
C291   Cl311   1.773   .     S
C291   C301    1.404   .     A
C291   C296    1.395   .     A
C292   O328    1.291   .     A
C292   C299    1.470   .     S
C292   O329    1.292   .     A
C293   Cl312   1.773   .     S
C293   C300    1.404   .     A
C293   C297    1.394   .     A
C294   C298    1.420   .     A
C294   Cl313   1.772   .     S
C295   C299    1.421   .     A
C295   Cl314   1.773   .     S
C296   C299    1.421   .     A
C296   Cl315   1.772   .     S
C297   Cl316   1.773   .     S
C297   C298    1.421   .     A
C301   C244    1.491   1_655 S
C302   H321    1.081   .     S
C302   N325    1.362   .     A
C302   C306    1.405   .     A
C303   N326    1.362   .     A
C303   H322    1.082   .     S
C303   C307    1.405   .     A
C304   N325    1.362   .     A
C304   C308    1.405   .     A
C304   H323    1.081   .     S
C305   H324    1.082   .     S
C305   N326    1.362   .     A
C306   H317    1.082   .     S
C307   H318    1.082   .     S
C308   H319    1.082   .     S
N325   Zn336   2.000   .     S
N326   Zn335   2.000   .     S
O327   Zn335   1.973   .     S
O328   Zn336   1.973   .     S
O329   Zn335   1.974   .     S
O330   Zn336   1.974   .     S
O331   Zn335   1.951   .     S
O332   Zn336   1.951   .     S
O333   Zn335   1.951   .     S
O334   Zn336   1.951   .     S
C337   O386    1.291   .     A
C337   C354    1.470   .     S
C337   O383    1.292   .     A
C338   C342    1.410   .     A
C338   H376    1.082   .     S
C338   C361    1.405   .     A
C339   C343    1.366   .     S
C339   O390    1.273   .     A
C339   O387    1.273   .     A
C340   O389    1.273   .     A
C340   C344    1.366   .     S
C340   O388    1.273   .     A
C341   C364    1.410   .     A
C341   C362    1.410   .     A
C342   C363    1.410   .     A
C342   C229    1.510   1_565 S
C344   C567    1.165   .     S
C345   C350    1.395   .     A
C345   Cl365   1.773   .     S
C345   C356    1.404   .     A
C346   C357    1.404   .     A
C346   Cl366   1.773   .     S
C346   C351    1.395   .     A
C347   Cl367   1.773   .     S
C347   C357    1.404   .     A
C347   C352    1.395   .     A
C348   O384    1.291   .     A
C348   C355    1.470   .     S
C348   O385    1.292   .     A
C349   Cl368   1.773   .     S
C349   C356    1.404   .     A
C349   C353    1.394   .     A
C350   C354    1.420   .     A
C350   Cl369   1.772   .     S
C351   C355    1.421   .     A
C351   Cl370   1.773   .     S
C352   C355    1.421   .     A
C352   Cl371   1.772   .     S
C353   Cl372   1.773   .     S
C353   C354    1.421   .     A
C356   C413    1.491   1_455 S
C357   C412    1.491   .     S
C358   H377    1.081   .     S
C358   N381    1.362   .     A
C358   C362    1.405   .     A
C359   N382    1.362   .     A
C359   H378    1.082   .     S
C359   C363    1.405   .     A
C360   N381    1.362   .     A
C360   C364    1.405   .     A
C360   H379    1.081   .     S
C361   H380    1.082   .     S
C361   N382    1.362   .     A
C362   H373    1.082   .     S
C363   H374    1.082   .     S
C364   H375    1.082   .     S
N381   Zn392   2.000   .     S
N382   Zn391   2.000   .     S
O383   Zn391   1.973   .     S
O384   Zn392   1.973   .     S
O385   Zn391   1.974   .     S
O386   Zn392   1.974   .     S
O387   Zn391   1.951   .     S
O388   Zn392   1.951   .     S
O389   Zn391   1.951   .     S
O390   Zn392   1.951   .     S
C393   O442    1.291   .     A
C393   C410    1.470   .     S
C393   O439    1.292   .     A
C394   C398    1.410   .     A
C394   H432    1.082   .     S
C394   C417    1.405   .     A
C395   C399    1.366   .     S
C395   O446    1.273   .     A
C395   O443    1.273   .     A
C396   O445    1.273   .     A
C396   C400    1.366   .     S
C396   O444    1.273   .     A
C397   C420    1.410   .     A
C397   C418    1.410   .     A
C398   C419    1.410   .     A
C398   C285    1.510   1_565 S
C400   C623    1.165   .     S
C401   C406    1.395   .     A
C401   Cl421   1.773   .     S
C401   C412    1.404   .     A
C402   C413    1.404   .     A
C402   Cl422   1.773   .     S
C402   C407    1.395   .     A
C403   Cl423   1.773   .     S
C403   C413    1.404   .     A
C403   C408    1.395   .     A
C404   O440    1.291   .     A
C404   C411    1.470   .     S
C404   O441    1.292   .     A
C405   Cl424   1.773   .     S
C405   C412    1.404   .     A
C405   C409    1.394   .     A
C406   C410    1.420   .     A
C406   Cl425   1.772   .     S
C407   C411    1.421   .     A
C407   Cl426   1.773   .     S
C408   C411    1.421   .     A
C408   Cl427   1.772   .     S
C409   Cl428   1.773   .     S
C409   C410    1.421   .     A
C413   C356    1.491   1_655 S
C414   H433    1.081   .     S
C414   N437    1.362   .     A
C414   C418    1.405   .     A
C415   N438    1.362   .     A
C415   H434    1.082   .     S
C415   C419    1.405   .     A
C416   N437    1.362   .     A
C416   C420    1.405   .     A
C416   H435    1.081   .     S
C417   H436    1.082   .     S
C417   N438    1.362   .     A
C418   H429    1.082   .     S
C419   H430    1.082   .     S
C420   H431    1.082   .     S
N437   Zn448   2.000   .     S
N438   Zn447   2.000   .     S
O439   Zn447   1.973   .     S
O440   Zn448   1.973   .     S
O441   Zn447   1.974   .     S
O442   Zn448   1.974   .     S
O443   Zn447   1.951   .     S
O444   Zn448   1.951   .     S
O445   Zn447   1.951   .     S
O446   Zn448   1.951   .     S
C449   O498    1.291   .     A
C449   C466    1.470   .     S
C449   O495    1.292   .     A
C450   C454    1.410   .     A
C450   H488    1.082   .     S
C450   C473    1.405   .     A
C451   C455    1.366   .     S
C451   O502    1.273   .     A
C451   O499    1.273   .     A
C452   O501    1.273   .     A
C452   C456    1.366   .     S
C452   O500    1.273   .     A
C453   C476    1.410   .     A
C453   C474    1.410   .     A
C453   C566    1.510   1_545 S
C454   C475    1.410   .     A
C454   C565    1.510   .     S
C456   C7      1.165   1_556 S
C457   C462    1.395   .     A
C457   Cl477   1.773   .     S
C457   C468    1.404   .     A
C458   C469    1.404   .     A
C458   Cl478   1.773   .     S
C458   C463    1.395   .     A
C459   Cl479   1.773   .     S
C459   C469    1.404   .     A
C459   C464    1.395   .     A
C460   O496    1.291   .     A
C460   C467    1.470   .     S
C460   O497    1.292   .     A
C461   Cl480   1.773   .     S
C461   C468    1.404   .     A
C461   C465    1.394   .     A
C462   C466    1.420   .     A
C462   Cl481   1.772   .     S
C463   C467    1.421   .     A
C463   Cl482   1.773   .     S
C464   C467    1.421   .     A
C464   Cl483   1.772   .     S
C465   Cl484   1.773   .     S
C465   C466    1.421   .     A
C468   C525    1.491   1_455 S
C469   C524    1.491   .     S
C470   H489    1.081   .     S
C470   N493    1.362   .     A
C470   C474    1.405   .     A
C471   N494    1.362   .     A
C471   H490    1.082   .     S
C471   C475    1.405   .     A
C472   N493    1.362   .     A
C472   C476    1.405   .     A
C472   H491    1.081   .     S
C473   H492    1.082   .     S
C473   N494    1.362   .     A
C474   H485    1.082   .     S
C475   H486    1.082   .     S
C476   H487    1.082   .     S
N493   Zn504   2.000   .     S
N494   Zn503   2.000   .     S
O495   Zn503   1.973   .     S
O496   Zn504   1.973   .     S
O497   Zn503   1.974   .     S
O498   Zn504   1.974   .     S
O499   Zn503   1.951   .     S
O500   Zn504   1.951   .     S
O501   Zn503   1.951   .     S
O502   Zn504   1.951   .     S
C505   O554    1.291   .     A
C505   C522    1.470   .     S
C505   O551    1.292   .     A
C506   C510    1.410   .     A
C506   H544    1.082   .     S
C506   C529    1.405   .     A
C507   C511    1.366   .     S
C507   O558    1.273   .     A
C507   O555    1.273   .     A
C508   O557    1.273   .     A
C508   C512    1.366   .     S
C508   O556    1.273   .     A
C509   C532    1.410   .     A
C509   C530    1.410   .     A
C509   C622    1.510   1_545 S
C510   C531    1.410   .     A
C510   C621    1.510   .     S
C512   C63     1.165   1_556 S
C513   C518    1.395   .     A
C513   Cl533   1.773   .     S
C513   C524    1.404   .     A
C514   C525    1.404   .     A
C514   Cl534   1.773   .     S
C514   C519    1.395   .     A
C515   Cl535   1.773   .     S
C515   C525    1.404   .     A
C515   C520    1.395   .     A
C516   O552    1.291   .     A
C516   C523    1.470   .     S
C516   O553    1.292   .     A
C517   Cl536   1.773   .     S
C517   C524    1.404   .     A
C517   C521    1.394   .     A
C518   C522    1.420   .     A
C518   Cl537   1.772   .     S
C519   C523    1.421   .     A
C519   Cl538   1.773   .     S
C520   C523    1.421   .     A
C520   Cl539   1.772   .     S
C521   Cl540   1.773   .     S
C521   C522    1.421   .     A
C525   C468    1.491   1_655 S
C526   H545    1.081   .     S
C526   N549    1.362   .     A
C526   C530    1.405   .     A
C527   N550    1.362   .     A
C527   H546    1.082   .     S
C527   C531    1.405   .     A
C528   N549    1.362   .     A
C528   C532    1.405   .     A
C528   H547    1.081   .     S
C529   H548    1.082   .     S
C529   N550    1.362   .     A
C530   H541    1.082   .     S
C531   H542    1.082   .     S
C532   H543    1.082   .     S
N549   Zn560   2.000   .     S
N550   Zn559   2.000   .     S
O551   Zn559   1.973   .     S
O552   Zn560   1.973   .     S
O553   Zn559   1.974   .     S
O554   Zn560   1.974   .     S
O555   Zn559   1.951   .     S
O556   Zn560   1.951   .     S
O557   Zn559   1.951   .     S
O558   Zn560   1.951   .     S
C561   O610    1.291   .     A
C561   C578    1.470   .     S
C561   O607    1.292   .     A
C562   C566    1.410   .     A
C562   H600    1.082   .     S
C562   C585    1.405   .     A
C563   C567    1.366   .     S
C563   O614    1.273   .     A
C563   O611    1.273   .     A
C564   O613    1.273   .     A
C564   C568    1.366   .     S
C564   O612    1.273   .     A
C565   C588    1.410   .     A
C565   C586    1.410   .     A
C566   C587    1.410   .     A
C566   C453    1.510   1_565 S
C568   C119    1.165   1_556 S
C569   C574    1.395   .     A
C569   Cl589   1.773   .     S
C569   C580    1.404   .     A
C570   C581    1.404   .     A
C570   Cl590   1.773   .     S
C570   C575    1.395   .     A
C571   Cl591   1.773   .     S
C571   C581    1.404   .     A
C571   C576    1.395   .     A
C572   O608    1.291   .     A
C572   C579    1.470   .     S
C572   O609    1.292   .     A
C573   Cl592   1.773   .     S
C573   C580    1.404   .     A
C573   C577    1.394   .     A
C574   C578    1.420   .     A
C574   Cl593   1.772   .     S
C575   C579    1.421   .     A
C575   Cl594   1.773   .     S
C576   C579    1.421   .     A
C576   Cl595   1.772   .     S
C577   Cl596   1.773   .     S
C577   C578    1.421   .     A
C580   C637    1.491   1_455 S
C581   C636    1.491   .     S
C582   H601    1.081   .     S
C582   N605    1.362   .     A
C582   C586    1.405   .     A
C583   N606    1.362   .     A
C583   H602    1.082   .     S
C583   C587    1.405   .     A
C584   N605    1.362   .     A
C584   C588    1.405   .     A
C584   H603    1.081   .     S
C585   H604    1.082   .     S
C585   N606    1.362   .     A
C586   H597    1.082   .     S
C587   H598    1.082   .     S
C588   H599    1.082   .     S
N605   Zn616   2.000   .     S
N606   Zn615   2.000   .     S
O607   Zn615   1.973   .     S
O608   Zn616   1.973   .     S
O609   Zn615   1.974   .     S
O610   Zn616   1.974   .     S
O611   Zn615   1.951   .     S
O612   Zn616   1.951   .     S
O613   Zn615   1.951   .     S
O614   Zn616   1.951   .     S
C617   O666    1.291   .     A
C617   C634    1.470   .     S
C617   O663    1.292   .     A
C618   C622    1.410   .     A
C618   H656    1.082   .     S
C618   C641    1.405   .     A
C619   C623    1.366   .     S
C619   O670    1.273   .     A
C619   O667    1.273   .     A
C620   O669    1.273   .     A
C620   C624    1.366   .     S
C620   O668    1.273   .     A
C621   C644    1.410   .     A
C621   C642    1.410   .     A
C622   C643    1.410   .     A
C622   C509    1.510   1_565 S
C624   C175    1.165   1_556 S
C625   C630    1.395   .     A
C625   Cl645   1.773   .     S
C625   C636    1.404   .     A
C626   C637    1.404   .     A
C626   Cl646   1.773   .     S
C626   C631    1.395   .     A
C627   Cl647   1.773   .     S
C627   C637    1.404   .     A
C627   C632    1.395   .     A
C628   O664    1.291   .     A
C628   C635    1.470   .     S
C628   O665    1.292   .     A
C629   Cl648   1.773   .     S
C629   C636    1.404   .     A
C629   C633    1.394   .     A
C630   C634    1.420   .     A
C630   Cl649   1.772   .     S
C631   C635    1.421   .     A
C631   Cl650   1.773   .     S
C632   C635    1.421   .     A
C632   Cl651   1.772   .     S
C633   Cl652   1.773   .     S
C633   C634    1.421   .     A
C637   C580    1.491   1_655 S
C638   H657    1.081   .     S
C638   N661    1.362   .     A
C638   C642    1.405   .     A
C639   N662    1.362   .     A
C639   H658    1.082   .     S
C639   C643    1.405   .     A
C640   N661    1.362   .     A
C640   C644    1.405   .     A
C640   H659    1.081   .     S
C641   H660    1.082   .     S
C641   N662    1.362   .     A
C642   H653    1.082   .     S
C643   H654    1.082   .     S
C644   H655    1.082   .     S
N661   Zn672   2.000   .     S
N662   Zn671   2.000   .     S
O663   Zn671   1.973   .     S
O664   Zn672   1.973   .     S
O665   Zn671   1.974   .     S
O666   Zn672   1.974   .     S
O667   Zn671   1.951   .     S
O668   Zn672   1.951   .     S
O669   Zn671   1.951   .     S
O670   Zn672   1.951   .     S
