data_str_m2_o1_o2_pcu_sym.44
_audit_creation_date              2020-01-03
_audit_creation_method            'Materials Studio'
_symmetry_space_group_name_H-M    'P1'
_symmetry_Int_Tables_number       1
_symmetry_cell_setting            triclinic
loop_
_symmetry_equiv_pos_as_xyz
  x,y,z
_cell_length_a                    32.4856
_cell_length_b                    28.8155
_cell_length_c                    30.3010
_cell_angle_alpha                 88.8408
_cell_angle_beta                  92.0575
_cell_angle_gamma                 89.5212
loop_
_atom_site_label
_atom_site_type_symbol
_atom_site_fract_x
_atom_site_fract_y
_atom_site_fract_z
_atom_site_U_iso_or_equiv
_atom_site_adp_type
_atom_site_occupancy
C1     C     0.08744   0.16681   0.24963   0.00000  Uiso   1.00
C2     C     0.31190   0.20836   0.25460   0.00000  Uiso   1.00
C3     C     0.31217   0.12540   0.24204   0.00000  Uiso   1.00
C4     C     0.02117   0.20850   0.25463   0.00000  Uiso   1.00
C5     C     0.13126   0.18654   0.04719   0.00000  Uiso   1.00
C6     C     0.17380   0.12576   0.45524   0.00000  Uiso   1.00
C7     C     0.15210   0.20617   0.45232   0.00000  Uiso   1.00
C8     C     0.19774   0.14737   0.04950   0.00000  Uiso   1.00
C9     C     0.13186   0.18703   0.09326   0.00000  Uiso   1.00
C10    C     0.17419   0.12499   0.40924   0.00000  Uiso   1.00
C11    C     0.15214   0.20635   0.40626   0.00000  Uiso   1.00
C12    C     0.24589   0.16658   0.24962   0.00000  Uiso   1.00
C13    C     0.19871   0.14758   0.09556   0.00000  Uiso   1.00
C14    C     0.16580   0.16772   0.11740   0.00000  Uiso   1.00
C15    C     0.16412   0.16577   0.38400   0.00000  Uiso   1.00
C16    C     0.16411   0.16679   0.02522   0.00000  Uiso   1.00
C17    C     0.16329   0.16625   0.47685   0.00000  Uiso   1.00
C18    C     0.29054   0.16670   0.24879   0.00000  Uiso   1.00
C19    C     0.04278   0.16696   0.24893   0.00000  Uiso   1.00
C20    C     0.16630   0.16705   0.16532   0.00000  Uiso   1.00
C21    C     0.16595   0.16630   0.33518   0.00000  Uiso   1.00
C22    C     0.14023   0.02624   0.22263   0.00000  Uiso   1.00
C23    C     0.19281   0.30716   0.27771   0.00000  Uiso   1.00
C24    C     0.19426   0.02315   0.27640   0.00000  Uiso   1.00
C25    C     0.14108   0.31029   0.22135   0.00000  Uiso   1.00
C26    C     0.02143   0.12546   0.24245   0.00000  Uiso   1.00
Cu27   Cu    0.16667   0.21355   0.25000   0.00000  Uiso   1.00
Cu28   Cu    0.16667   0.11978   0.25000   0.00000  Uiso   1.00
H29    H     0.10479   0.20079   0.02864   0.00000  Uiso   1.00
H30    H     0.08279   0.04119   0.19842   0.00000  Uiso   1.00
H31    H     0.21520   0.29146   0.33927   0.00000  Uiso   1.00
H32    H     0.25049   0.28960   0.29965   0.00000  Uiso   1.00
H33    H     0.25089   0.05108   0.27744   0.00000  Uiso   1.00
H34    H     0.21938   0.07409   0.31495   0.00000  Uiso   1.00
H35    H     0.09605   0.26555   0.19968   0.00000  Uiso   1.00
H36    H     0.13527   0.27599   0.16357   0.00000  Uiso   1.00
H37    H     0.09229   0.23961   0.10416   0.00000  Uiso   1.00
H38    H     0.07138   0.18624   0.10628   0.00000  Uiso   1.00
H39    H     0.16446   0.05697   0.39816   0.00000  Uiso   1.00
H40    H     0.18161   0.09437   0.47415   0.00000  Uiso   1.00
H41    H     0.21457   0.07249   0.40072   0.00000  Uiso   1.00
H42    H     0.10902   0.25562   0.39096   0.00000  Uiso   1.00
H43    H     0.15803   0.27495   0.39284   0.00000  Uiso   1.00
H44    H     0.25981   0.14516   0.11049   0.00000  Uiso   1.00
H45    H     0.23619   0.09312   0.11164   0.00000  Uiso   1.00
H46    H     0.14370   0.23765   0.46894   0.00000  Uiso   1.00
H47    H     0.22345   0.13244   0.03273   0.00000  Uiso   1.00
H48    H     0.03750   0.09304   0.23755   0.00000  Uiso   1.00
H49    H     0.29584   0.24080   0.25933   0.00000  Uiso   1.00
H50    H     0.29635   0.09314   0.23616   0.00000  Uiso   1.00
H51    H     0.03707   0.24099   0.25954   0.00000  Uiso   1.00
H52    H     0.12003   0.04492   0.16087   0.00000  Uiso   1.00
N53    N     0.16667   0.28402   0.25000   0.00000  Uiso   1.00
N54    N     0.23332   0.12793   0.12021   0.00000  Uiso   1.00
N55    N     0.16667   0.04931   0.25000   0.00000  Uiso   1.00
N56    N     0.11283   0.05231   0.19335   0.00000  Uiso   1.00
N57    N     0.22024   0.28116   0.30701   0.00000  Uiso   1.00
N58    N     0.22813   0.04388   0.29990   0.00000  Uiso   1.00
N59    N     0.11635   0.28967   0.18717   0.00000  Uiso   1.00
N60    N     0.09734   0.20546   0.11550   0.00000  Uiso   1.00
N61    N     0.18520   0.08256   0.38870   0.00000  Uiso   1.00
N62    N     0.13916   0.24774   0.38246   0.00000  Uiso   1.00
O63    O     0.10655   0.20625   0.24999   0.00000  Uiso   1.00
O64    O     0.22679   0.12709   0.25000   0.00000  Uiso   1.00
O65    O     0.22679   0.20625   0.25000   0.00000  Uiso   1.00
O66    O     0.10655   0.12709   0.24999   0.00000  Uiso   1.00
O67    O     0.16666   0.20626   0.18573   0.00000  Uiso   1.00
O68    O     0.16667   0.12707   0.31427   0.00000  Uiso   1.00
O69    O     0.16667   0.20626   0.31427   0.00000  Uiso   1.00
O70    O     0.16666   0.12707   0.18573   0.00000  Uiso   1.00
C71    C     0.42078   0.16681   0.24963   0.00000  Uiso   1.00
C72    C     0.64524   0.20836   0.25460   0.00000  Uiso   1.00
C73    C     0.64550   0.12540   0.24204   0.00000  Uiso   1.00
C74    C     0.35450   0.20850   0.25463   0.00000  Uiso   1.00
C75    C     0.46460   0.18654   0.04719   0.00000  Uiso   1.00
C76    C     0.50713   0.12576   0.45524   0.00000  Uiso   1.00
C77    C     0.48543   0.20617   0.45232   0.00000  Uiso   1.00
C78    C     0.53108   0.14737   0.04950   0.00000  Uiso   1.00
C79    C     0.46520   0.18703   0.09326   0.00000  Uiso   1.00
C80    C     0.50753   0.12499   0.40924   0.00000  Uiso   1.00
C81    C     0.48548   0.20635   0.40626   0.00000  Uiso   1.00
C82    C     0.57922   0.16658   0.24962   0.00000  Uiso   1.00
C83    C     0.53204   0.14758   0.09556   0.00000  Uiso   1.00
C84    C     0.49913   0.16772   0.11740   0.00000  Uiso   1.00
C85    C     0.49745   0.16577   0.38400   0.00000  Uiso   1.00
C86    C     0.49745   0.16679   0.02522   0.00000  Uiso   1.00
C87    C     0.49663   0.16625   0.47685   0.00000  Uiso   1.00
C88    C     0.62388   0.16670   0.24879   0.00000  Uiso   1.00
C89    C     0.37612   0.16696   0.24893   0.00000  Uiso   1.00
C90    C     0.49963   0.16705   0.16532   0.00000  Uiso   1.00
C91    C     0.49928   0.16630   0.33518   0.00000  Uiso   1.00
C92    C     0.47356   0.02624   0.22263   0.00000  Uiso   1.00
C93    C     0.52614   0.30716   0.27771   0.00000  Uiso   1.00
C94    C     0.52759   0.02315   0.27640   0.00000  Uiso   1.00
C95    C     0.47442   0.31029   0.22135   0.00000  Uiso   1.00
C96    C     0.35476   0.12546   0.24245   0.00000  Uiso   1.00
Cu97   Cu    0.50000   0.21355   0.25000   0.00000  Uiso   1.00
Cu98   Cu    0.50000   0.11978   0.25000   0.00000  Uiso   1.00
H99    H     0.43813   0.20079   0.02864   0.00000  Uiso   1.00
H100   H     0.41612   0.04119   0.19842   0.00000  Uiso   1.00
H101   H     0.54854   0.29146   0.33927   0.00000  Uiso   1.00
H102   H     0.58382   0.28960   0.29965   0.00000  Uiso   1.00
H103   H     0.58422   0.05108   0.27744   0.00000  Uiso   1.00
H104   H     0.55272   0.07409   0.31495   0.00000  Uiso   1.00
H105   H     0.42938   0.26555   0.19968   0.00000  Uiso   1.00
H106   H     0.46861   0.27599   0.16357   0.00000  Uiso   1.00
H107   H     0.42563   0.23961   0.10416   0.00000  Uiso   1.00
H108   H     0.40472   0.18624   0.10628   0.00000  Uiso   1.00
H109   H     0.49779   0.05697   0.39816   0.00000  Uiso   1.00
H110   H     0.51494   0.09437   0.47415   0.00000  Uiso   1.00
H111   H     0.54791   0.07249   0.40072   0.00000  Uiso   1.00
H112   H     0.44235   0.25562   0.39096   0.00000  Uiso   1.00
H113   H     0.49136   0.27495   0.39284   0.00000  Uiso   1.00
H114   H     0.59314   0.14516   0.11049   0.00000  Uiso   1.00
H115   H     0.56953   0.09312   0.11164   0.00000  Uiso   1.00
H116   H     0.47703   0.23765   0.46894   0.00000  Uiso   1.00
H117   H     0.55679   0.13244   0.03273   0.00000  Uiso   1.00
H118   H     0.37084   0.09304   0.23755   0.00000  Uiso   1.00
H119   H     0.62917   0.24080   0.25933   0.00000  Uiso   1.00
H120   H     0.62968   0.09314   0.23616   0.00000  Uiso   1.00
H121   H     0.37041   0.24099   0.25954   0.00000  Uiso   1.00
H122   H     0.45336   0.04492   0.16087   0.00000  Uiso   1.00
N123   N     0.50000   0.28402   0.25000   0.00000  Uiso   1.00
N124   N     0.56665   0.12793   0.12021   0.00000  Uiso   1.00
N125   N     0.50000   0.04931   0.25000   0.00000  Uiso   1.00
N126   N     0.44616   0.05231   0.19335   0.00000  Uiso   1.00
N127   N     0.55358   0.28116   0.30701   0.00000  Uiso   1.00
N128   N     0.56146   0.04388   0.29990   0.00000  Uiso   1.00
N129   N     0.44968   0.28967   0.18717   0.00000  Uiso   1.00
N130   N     0.43068   0.20546   0.11550   0.00000  Uiso   1.00
N131   N     0.51853   0.08256   0.38870   0.00000  Uiso   1.00
N132   N     0.47249   0.24774   0.38246   0.00000  Uiso   1.00
O133   O     0.43988   0.20625   0.24999   0.00000  Uiso   1.00
O134   O     0.56012   0.12709   0.25000   0.00000  Uiso   1.00
O135   O     0.56012   0.20625   0.25000   0.00000  Uiso   1.00
O136   O     0.43988   0.12709   0.24999   0.00000  Uiso   1.00
O137   O     0.50000   0.20626   0.18573   0.00000  Uiso   1.00
O138   O     0.50000   0.12707   0.31427   0.00000  Uiso   1.00
O139   O     0.50000   0.20626   0.31427   0.00000  Uiso   1.00
O140   O     0.50000   0.12707   0.18573   0.00000  Uiso   1.00
C141   C     0.75411   0.16681   0.24963   0.00000  Uiso   1.00
C142   C     0.97857   0.20836   0.25460   0.00000  Uiso   1.00
C143   C     0.97884   0.12540   0.24204   0.00000  Uiso   1.00
C144   C     0.68783   0.20850   0.25463   0.00000  Uiso   1.00
C145   C     0.79793   0.18654   0.04719   0.00000  Uiso   1.00
C146   C     0.84047   0.12576   0.45524   0.00000  Uiso   1.00
C147   C     0.81877   0.20617   0.45232   0.00000  Uiso   1.00
C148   C     0.86441   0.14737   0.04950   0.00000  Uiso   1.00
C149   C     0.79853   0.18703   0.09326   0.00000  Uiso   1.00
C150   C     0.84086   0.12499   0.40924   0.00000  Uiso   1.00
C151   C     0.81881   0.20635   0.40626   0.00000  Uiso   1.00
C152   C     0.91256   0.16658   0.24962   0.00000  Uiso   1.00
C153   C     0.86538   0.14758   0.09556   0.00000  Uiso   1.00
C154   C     0.83247   0.16772   0.11740   0.00000  Uiso   1.00
C155   C     0.83078   0.16577   0.38400   0.00000  Uiso   1.00
C156   C     0.83078   0.16679   0.02522   0.00000  Uiso   1.00
C157   C     0.82996   0.16625   0.47685   0.00000  Uiso   1.00
C158   C     0.95721   0.16670   0.24879   0.00000  Uiso   1.00
C159   C     0.70945   0.16696   0.24893   0.00000  Uiso   1.00
C160   C     0.83296   0.16705   0.16532   0.00000  Uiso   1.00
C161   C     0.83262   0.16630   0.33518   0.00000  Uiso   1.00
C162   C     0.80690   0.02624   0.22263   0.00000  Uiso   1.00
C163   C     0.85948   0.30716   0.27771   0.00000  Uiso   1.00
C164   C     0.86093   0.02315   0.27640   0.00000  Uiso   1.00
C165   C     0.80775   0.31029   0.22135   0.00000  Uiso   1.00
C166   C     0.68809   0.12546   0.24245   0.00000  Uiso   1.00
Cu167  Cu    0.83333   0.21355   0.25000   0.00000  Uiso   1.00
Cu168  Cu    0.83333   0.11978   0.25000   0.00000  Uiso   1.00
H169   H     0.77146   0.20079   0.02864   0.00000  Uiso   1.00
H170   H     0.74945   0.04119   0.19842   0.00000  Uiso   1.00
H171   H     0.88187   0.29146   0.33927   0.00000  Uiso   1.00
H172   H     0.91716   0.28960   0.29965   0.00000  Uiso   1.00
H173   H     0.91756   0.05108   0.27744   0.00000  Uiso   1.00
H174   H     0.88605   0.07409   0.31495   0.00000  Uiso   1.00
H175   H     0.76271   0.26555   0.19968   0.00000  Uiso   1.00
H176   H     0.80194   0.27599   0.16357   0.00000  Uiso   1.00
H177   H     0.75896   0.23961   0.10416   0.00000  Uiso   1.00
H178   H     0.73805   0.18624   0.10628   0.00000  Uiso   1.00
H179   H     0.83112   0.05697   0.39816   0.00000  Uiso   1.00
H180   H     0.84827   0.09437   0.47415   0.00000  Uiso   1.00
H181   H     0.88124   0.07249   0.40072   0.00000  Uiso   1.00
H182   H     0.77569   0.25562   0.39096   0.00000  Uiso   1.00
H183   H     0.82470   0.27495   0.39284   0.00000  Uiso   1.00
H184   H     0.92647   0.14516   0.11049   0.00000  Uiso   1.00
H185   H     0.90286   0.09312   0.11164   0.00000  Uiso   1.00
H186   H     0.81036   0.23765   0.46894   0.00000  Uiso   1.00
H187   H     0.89012   0.13244   0.03273   0.00000  Uiso   1.00
H188   H     0.70417   0.09304   0.23755   0.00000  Uiso   1.00
H189   H     0.96251   0.24080   0.25933   0.00000  Uiso   1.00
H190   H     0.96301   0.09314   0.23616   0.00000  Uiso   1.00
H191   H     0.70374   0.24099   0.25954   0.00000  Uiso   1.00
H192   H     0.78669   0.04492   0.16087   0.00000  Uiso   1.00
N193   N     0.83333   0.28402   0.25000   0.00000  Uiso   1.00
N194   N     0.89998   0.12793   0.12021   0.00000  Uiso   1.00
N195   N     0.83333   0.04931   0.25000   0.00000  Uiso   1.00
N196   N     0.77949   0.05231   0.19335   0.00000  Uiso   1.00
N197   N     0.88691   0.28116   0.30701   0.00000  Uiso   1.00
N198   N     0.89479   0.04388   0.29990   0.00000  Uiso   1.00
N199   N     0.78301   0.28967   0.18717   0.00000  Uiso   1.00
N200   N     0.76401   0.20546   0.11550   0.00000  Uiso   1.00
N201   N     0.85186   0.08256   0.38870   0.00000  Uiso   1.00
N202   N     0.80583   0.24774   0.38246   0.00000  Uiso   1.00
O203   O     0.77321   0.20625   0.24999   0.00000  Uiso   1.00
O204   O     0.89345   0.12709   0.25000   0.00000  Uiso   1.00
O205   O     0.89345   0.20625   0.25000   0.00000  Uiso   1.00
O206   O     0.77321   0.12709   0.24999   0.00000  Uiso   1.00
O207   O     0.83333   0.20626   0.18573   0.00000  Uiso   1.00
O208   O     0.83334   0.12707   0.31427   0.00000  Uiso   1.00
O209   O     0.83334   0.20626   0.31427   0.00000  Uiso   1.00
O210   O     0.83333   0.12707   0.18573   0.00000  Uiso   1.00
C211   C     0.08744   0.50014   0.24963   0.00000  Uiso   1.00
C212   C     0.31190   0.54169   0.25460   0.00000  Uiso   1.00
C213   C     0.31217   0.45873   0.24204   0.00000  Uiso   1.00
C214   C     0.02117   0.54184   0.25463   0.00000  Uiso   1.00
C215   C     0.13126   0.51987   0.04719   0.00000  Uiso   1.00
C216   C     0.17380   0.45909   0.45524   0.00000  Uiso   1.00
C217   C     0.15210   0.53951   0.45232   0.00000  Uiso   1.00
C218   C     0.19774   0.48070   0.04950   0.00000  Uiso   1.00
C219   C     0.13186   0.52036   0.09326   0.00000  Uiso   1.00
C220   C     0.17419   0.45832   0.40924   0.00000  Uiso   1.00
C221   C     0.15214   0.53968   0.40626   0.00000  Uiso   1.00
C222   C     0.24589   0.49992   0.24962   0.00000  Uiso   1.00
C223   C     0.19871   0.48092   0.09556   0.00000  Uiso   1.00
C224   C     0.16580   0.50105   0.11740   0.00000  Uiso   1.00
C225   C     0.16412   0.49910   0.38400   0.00000  Uiso   1.00
C226   C     0.16411   0.50012   0.02522   0.00000  Uiso   1.00
C227   C     0.16329   0.49958   0.47685   0.00000  Uiso   1.00
C228   C     0.29054   0.50004   0.24879   0.00000  Uiso   1.00
C229   C     0.04278   0.50030   0.24893   0.00000  Uiso   1.00
C230   C     0.16630   0.50038   0.16532   0.00000  Uiso   1.00
C231   C     0.16595   0.49963   0.33518   0.00000  Uiso   1.00
C232   C     0.14023   0.35957   0.22263   0.00000  Uiso   1.00
C233   C     0.19281   0.64049   0.27771   0.00000  Uiso   1.00
C234   C     0.19426   0.35649   0.27640   0.00000  Uiso   1.00
C235   C     0.14108   0.64362   0.22135   0.00000  Uiso   1.00
C236   C     0.02143   0.45879   0.24245   0.00000  Uiso   1.00
Cu237  Cu    0.16667   0.54689   0.25000   0.00000  Uiso   1.00
Cu238  Cu    0.16667   0.45311   0.25000   0.00000  Uiso   1.00
H239   H     0.10479   0.53413   0.02864   0.00000  Uiso   1.00
H240   H     0.08279   0.37452   0.19842   0.00000  Uiso   1.00
H241   H     0.21520   0.62479   0.33927   0.00000  Uiso   1.00
H242   H     0.25049   0.62293   0.29965   0.00000  Uiso   1.00
H243   H     0.25089   0.38442   0.27744   0.00000  Uiso   1.00
H244   H     0.21938   0.40742   0.31495   0.00000  Uiso   1.00
H245   H     0.09605   0.59889   0.19968   0.00000  Uiso   1.00
H246   H     0.13527   0.60932   0.16357   0.00000  Uiso   1.00
H247   H     0.09229   0.57294   0.10416   0.00000  Uiso   1.00
H248   H     0.07138   0.51957   0.10628   0.00000  Uiso   1.00
H249   H     0.16446   0.39030   0.39816   0.00000  Uiso   1.00
H250   H     0.18161   0.42771   0.47415   0.00000  Uiso   1.00
H251   H     0.21457   0.40582   0.40072   0.00000  Uiso   1.00
H252   H     0.10902   0.58896   0.39096   0.00000  Uiso   1.00
H253   H     0.15803   0.60829   0.39284   0.00000  Uiso   1.00
H254   H     0.25981   0.47849   0.11049   0.00000  Uiso   1.00
H255   H     0.23619   0.42645   0.11164   0.00000  Uiso   1.00
H256   H     0.14370   0.57098   0.46894   0.00000  Uiso   1.00
H257   H     0.22345   0.46577   0.03273   0.00000  Uiso   1.00
H258   H     0.03750   0.42637   0.23755   0.00000  Uiso   1.00
H259   H     0.29584   0.57414   0.25933   0.00000  Uiso   1.00
H260   H     0.29635   0.42647   0.23616   0.00000  Uiso   1.00
H261   H     0.03707   0.57432   0.25954   0.00000  Uiso   1.00
H262   H     0.12003   0.37825   0.16087   0.00000  Uiso   1.00
N263   N     0.16667   0.61736   0.25000   0.00000  Uiso   1.00
N264   N     0.23332   0.46127   0.12021   0.00000  Uiso   1.00
N265   N     0.16667   0.38264   0.25000   0.00000  Uiso   1.00
N266   N     0.11283   0.38564   0.19335   0.00000  Uiso   1.00
N267   N     0.22024   0.61449   0.30701   0.00000  Uiso   1.00
N268   N     0.22813   0.37721   0.29990   0.00000  Uiso   1.00
N269   N     0.11635   0.62301   0.18717   0.00000  Uiso   1.00
N270   N     0.09734   0.53879   0.11550   0.00000  Uiso   1.00
N271   N     0.18520   0.41589   0.38870   0.00000  Uiso   1.00
N272   N     0.13916   0.58108   0.38246   0.00000  Uiso   1.00
O273   O     0.10655   0.53958   0.24999   0.00000  Uiso   1.00
O274   O     0.22679   0.46042   0.25000   0.00000  Uiso   1.00
O275   O     0.22679   0.53958   0.25000   0.00000  Uiso   1.00
O276   O     0.10655   0.46042   0.24999   0.00000  Uiso   1.00
O277   O     0.16666   0.53959   0.18573   0.00000  Uiso   1.00
O278   O     0.16667   0.46041   0.31427   0.00000  Uiso   1.00
O279   O     0.16667   0.53959   0.31427   0.00000  Uiso   1.00
O280   O     0.16666   0.46041   0.18573   0.00000  Uiso   1.00
C281   C     0.42078   0.50014   0.24963   0.00000  Uiso   1.00
C282   C     0.64524   0.54169   0.25460   0.00000  Uiso   1.00
C283   C     0.64550   0.45873   0.24204   0.00000  Uiso   1.00
C284   C     0.35450   0.54184   0.25463   0.00000  Uiso   1.00
C285   C     0.46460   0.51987   0.04719   0.00000  Uiso   1.00
C286   C     0.50713   0.45909   0.45524   0.00000  Uiso   1.00
C287   C     0.48543   0.53951   0.45232   0.00000  Uiso   1.00
C288   C     0.53108   0.48070   0.04950   0.00000  Uiso   1.00
C289   C     0.46520   0.52036   0.09326   0.00000  Uiso   1.00
C290   C     0.50753   0.45832   0.40924   0.00000  Uiso   1.00
C291   C     0.48548   0.53968   0.40626   0.00000  Uiso   1.00
C292   C     0.57922   0.49992   0.24962   0.00000  Uiso   1.00
C293   C     0.53204   0.48092   0.09556   0.00000  Uiso   1.00
C294   C     0.49913   0.50105   0.11740   0.00000  Uiso   1.00
C295   C     0.49745   0.49910   0.38400   0.00000  Uiso   1.00
C296   C     0.49745   0.50012   0.02522   0.00000  Uiso   1.00
C297   C     0.49663   0.49958   0.47685   0.00000  Uiso   1.00
C298   C     0.62388   0.50004   0.24879   0.00000  Uiso   1.00
C299   C     0.37612   0.50030   0.24893   0.00000  Uiso   1.00
C300   C     0.49963   0.50038   0.16532   0.00000  Uiso   1.00
C301   C     0.49928   0.49963   0.33518   0.00000  Uiso   1.00
C302   C     0.47356   0.35957   0.22263   0.00000  Uiso   1.00
C303   C     0.52614   0.64049   0.27771   0.00000  Uiso   1.00
C304   C     0.52759   0.35649   0.27640   0.00000  Uiso   1.00
C305   C     0.47442   0.64362   0.22135   0.00000  Uiso   1.00
C306   C     0.35476   0.45879   0.24245   0.00000  Uiso   1.00
Cu307  Cu    0.50000   0.54689   0.25000   0.00000  Uiso   1.00
Cu308  Cu    0.50000   0.45311   0.25000   0.00000  Uiso   1.00
H309   H     0.43813   0.53413   0.02864   0.00000  Uiso   1.00
H310   H     0.41612   0.37452   0.19842   0.00000  Uiso   1.00
H311   H     0.54854   0.62479   0.33927   0.00000  Uiso   1.00
H312   H     0.58382   0.62293   0.29965   0.00000  Uiso   1.00
H313   H     0.58422   0.38442   0.27744   0.00000  Uiso   1.00
H314   H     0.55272   0.40742   0.31495   0.00000  Uiso   1.00
H315   H     0.42938   0.59889   0.19968   0.00000  Uiso   1.00
H316   H     0.46861   0.60932   0.16357   0.00000  Uiso   1.00
H317   H     0.42563   0.57294   0.10416   0.00000  Uiso   1.00
H318   H     0.40472   0.51957   0.10628   0.00000  Uiso   1.00
H319   H     0.49779   0.39030   0.39816   0.00000  Uiso   1.00
H320   H     0.51494   0.42771   0.47415   0.00000  Uiso   1.00
H321   H     0.54791   0.40582   0.40072   0.00000  Uiso   1.00
H322   H     0.44235   0.58896   0.39096   0.00000  Uiso   1.00
H323   H     0.49136   0.60829   0.39284   0.00000  Uiso   1.00
H324   H     0.59314   0.47849   0.11049   0.00000  Uiso   1.00
H325   H     0.56953   0.42645   0.11164   0.00000  Uiso   1.00
H326   H     0.47703   0.57098   0.46894   0.00000  Uiso   1.00
H327   H     0.55679   0.46577   0.03273   0.00000  Uiso   1.00
H328   H     0.37084   0.42637   0.23755   0.00000  Uiso   1.00
H329   H     0.62917   0.57414   0.25933   0.00000  Uiso   1.00
H330   H     0.62968   0.42647   0.23616   0.00000  Uiso   1.00
H331   H     0.37041   0.57432   0.25954   0.00000  Uiso   1.00
H332   H     0.45336   0.37825   0.16087   0.00000  Uiso   1.00
N333   N     0.50000   0.61736   0.25000   0.00000  Uiso   1.00
N334   N     0.56665   0.46127   0.12021   0.00000  Uiso   1.00
N335   N     0.50000   0.38264   0.25000   0.00000  Uiso   1.00
N336   N     0.44616   0.38564   0.19335   0.00000  Uiso   1.00
N337   N     0.55358   0.61449   0.30701   0.00000  Uiso   1.00
N338   N     0.56146   0.37721   0.29990   0.00000  Uiso   1.00
N339   N     0.44968   0.62301   0.18717   0.00000  Uiso   1.00
N340   N     0.43068   0.53879   0.11550   0.00000  Uiso   1.00
N341   N     0.51853   0.41589   0.38870   0.00000  Uiso   1.00
N342   N     0.47249   0.58108   0.38246   0.00000  Uiso   1.00
O343   O     0.43988   0.53958   0.24999   0.00000  Uiso   1.00
O344   O     0.56012   0.46042   0.25000   0.00000  Uiso   1.00
O345   O     0.56012   0.53958   0.25000   0.00000  Uiso   1.00
O346   O     0.43988   0.46042   0.24999   0.00000  Uiso   1.00
O347   O     0.50000   0.53959   0.18573   0.00000  Uiso   1.00
O348   O     0.50000   0.46041   0.31427   0.00000  Uiso   1.00
O349   O     0.50000   0.53959   0.31427   0.00000  Uiso   1.00
O350   O     0.50000   0.46041   0.18573   0.00000  Uiso   1.00
C351   C     0.75411   0.50014   0.24963   0.00000  Uiso   1.00
C352   C     0.97857   0.54169   0.25460   0.00000  Uiso   1.00
C353   C     0.97884   0.45873   0.24204   0.00000  Uiso   1.00
C354   C     0.68783   0.54184   0.25463   0.00000  Uiso   1.00
C355   C     0.79793   0.51987   0.04719   0.00000  Uiso   1.00
C356   C     0.84047   0.45909   0.45524   0.00000  Uiso   1.00
C357   C     0.81877   0.53951   0.45232   0.00000  Uiso   1.00
C358   C     0.86441   0.48070   0.04950   0.00000  Uiso   1.00
C359   C     0.79853   0.52036   0.09326   0.00000  Uiso   1.00
C360   C     0.84086   0.45832   0.40924   0.00000  Uiso   1.00
C361   C     0.81881   0.53968   0.40626   0.00000  Uiso   1.00
C362   C     0.91256   0.49992   0.24962   0.00000  Uiso   1.00
C363   C     0.86538   0.48092   0.09556   0.00000  Uiso   1.00
C364   C     0.83247   0.50105   0.11740   0.00000  Uiso   1.00
C365   C     0.83078   0.49910   0.38400   0.00000  Uiso   1.00
C366   C     0.83078   0.50012   0.02522   0.00000  Uiso   1.00
C367   C     0.82996   0.49958   0.47685   0.00000  Uiso   1.00
C368   C     0.95721   0.50004   0.24879   0.00000  Uiso   1.00
C369   C     0.70945   0.50030   0.24893   0.00000  Uiso   1.00
C370   C     0.83296   0.50038   0.16532   0.00000  Uiso   1.00
C371   C     0.83262   0.49963   0.33518   0.00000  Uiso   1.00
C372   C     0.80690   0.35957   0.22263   0.00000  Uiso   1.00
C373   C     0.85948   0.64049   0.27771   0.00000  Uiso   1.00
C374   C     0.86093   0.35649   0.27640   0.00000  Uiso   1.00
C375   C     0.80775   0.64362   0.22135   0.00000  Uiso   1.00
C376   C     0.68809   0.45879   0.24245   0.00000  Uiso   1.00
Cu377  Cu    0.83333   0.54689   0.25000   0.00000  Uiso   1.00
Cu378  Cu    0.83333   0.45311   0.25000   0.00000  Uiso   1.00
H379   H     0.77146   0.53413   0.02864   0.00000  Uiso   1.00
H380   H     0.74945   0.37452   0.19842   0.00000  Uiso   1.00
H381   H     0.88187   0.62479   0.33927   0.00000  Uiso   1.00
H382   H     0.91716   0.62293   0.29965   0.00000  Uiso   1.00
H383   H     0.91756   0.38442   0.27744   0.00000  Uiso   1.00
H384   H     0.88605   0.40742   0.31495   0.00000  Uiso   1.00
H385   H     0.76271   0.59889   0.19968   0.00000  Uiso   1.00
H386   H     0.80194   0.60932   0.16357   0.00000  Uiso   1.00
H387   H     0.75896   0.57294   0.10416   0.00000  Uiso   1.00
H388   H     0.73805   0.51957   0.10628   0.00000  Uiso   1.00
H389   H     0.83112   0.39030   0.39816   0.00000  Uiso   1.00
H390   H     0.84827   0.42771   0.47415   0.00000  Uiso   1.00
H391   H     0.88124   0.40582   0.40072   0.00000  Uiso   1.00
H392   H     0.77569   0.58896   0.39096   0.00000  Uiso   1.00
H393   H     0.82470   0.60829   0.39284   0.00000  Uiso   1.00
H394   H     0.92647   0.47849   0.11049   0.00000  Uiso   1.00
H395   H     0.90286   0.42645   0.11164   0.00000  Uiso   1.00
H396   H     0.81036   0.57098   0.46894   0.00000  Uiso   1.00
H397   H     0.89012   0.46577   0.03273   0.00000  Uiso   1.00
H398   H     0.70417   0.42637   0.23755   0.00000  Uiso   1.00
H399   H     0.96251   0.57414   0.25933   0.00000  Uiso   1.00
H400   H     0.96301   0.42647   0.23616   0.00000  Uiso   1.00
H401   H     0.70374   0.57432   0.25954   0.00000  Uiso   1.00
H402   H     0.78669   0.37825   0.16087   0.00000  Uiso   1.00
N403   N     0.83333   0.61736   0.25000   0.00000  Uiso   1.00
N404   N     0.89998   0.46127   0.12021   0.00000  Uiso   1.00
N405   N     0.83333   0.38264   0.25000   0.00000  Uiso   1.00
N406   N     0.77949   0.38564   0.19335   0.00000  Uiso   1.00
N407   N     0.88691   0.61449   0.30701   0.00000  Uiso   1.00
N408   N     0.89479   0.37721   0.29990   0.00000  Uiso   1.00
N409   N     0.78301   0.62301   0.18717   0.00000  Uiso   1.00
N410   N     0.76401   0.53879   0.11550   0.00000  Uiso   1.00
N411   N     0.85186   0.41589   0.38870   0.00000  Uiso   1.00
N412   N     0.80583   0.58108   0.38246   0.00000  Uiso   1.00
O413   O     0.77321   0.53958   0.24999   0.00000  Uiso   1.00
O414   O     0.89345   0.46042   0.25000   0.00000  Uiso   1.00
O415   O     0.89345   0.53958   0.25000   0.00000  Uiso   1.00
O416   O     0.77321   0.46042   0.24999   0.00000  Uiso   1.00
O417   O     0.83333   0.53959   0.18573   0.00000  Uiso   1.00
O418   O     0.83334   0.46041   0.31427   0.00000  Uiso   1.00
O419   O     0.83334   0.53959   0.31427   0.00000  Uiso   1.00
O420   O     0.83333   0.46041   0.18573   0.00000  Uiso   1.00
C421   C     0.08744   0.83347   0.24963   0.00000  Uiso   1.00
C422   C     0.31190   0.87502   0.25460   0.00000  Uiso   1.00
C423   C     0.31217   0.79207   0.24204   0.00000  Uiso   1.00
C424   C     0.02117   0.87517   0.25463   0.00000  Uiso   1.00
C425   C     0.13126   0.85320   0.04719   0.00000  Uiso   1.00
C426   C     0.17380   0.79243   0.45524   0.00000  Uiso   1.00
C427   C     0.15210   0.87284   0.45232   0.00000  Uiso   1.00
C428   C     0.19774   0.81403   0.04950   0.00000  Uiso   1.00
C429   C     0.13186   0.85369   0.09326   0.00000  Uiso   1.00
C430   C     0.17419   0.79165   0.40924   0.00000  Uiso   1.00
C431   C     0.15214   0.87301   0.40626   0.00000  Uiso   1.00
C432   C     0.24589   0.83325   0.24962   0.00000  Uiso   1.00
C433   C     0.19871   0.81425   0.09556   0.00000  Uiso   1.00
C434   C     0.16580   0.83439   0.11740   0.00000  Uiso   1.00
C435   C     0.16412   0.83244   0.38400   0.00000  Uiso   1.00
C436   C     0.16411   0.83346   0.02522   0.00000  Uiso   1.00
C437   C     0.16329   0.83291   0.47685   0.00000  Uiso   1.00
C438   C     0.29054   0.83337   0.24879   0.00000  Uiso   1.00
C439   C     0.04278   0.83363   0.24893   0.00000  Uiso   1.00
C440   C     0.16630   0.83371   0.16532   0.00000  Uiso   1.00
C441   C     0.16595   0.83297   0.33518   0.00000  Uiso   1.00
C442   C     0.14023   0.69290   0.22263   0.00000  Uiso   1.00
C443   C     0.19281   0.97382   0.27771   0.00000  Uiso   1.00
C444   C     0.19426   0.68982   0.27640   0.00000  Uiso   1.00
C445   C     0.14108   0.97695   0.22135   0.00000  Uiso   1.00
C446   C     0.02143   0.79213   0.24245   0.00000  Uiso   1.00
Cu447  Cu    0.16667   0.88022   0.25000   0.00000  Uiso   1.00
Cu448  Cu    0.16667   0.78645   0.25000   0.00000  Uiso   1.00
H449   H     0.10479   0.86746   0.02864   0.00000  Uiso   1.00
H450   H     0.08279   0.70785   0.19842   0.00000  Uiso   1.00
H451   H     0.21520   0.95812   0.33927   0.00000  Uiso   1.00
H452   H     0.25049   0.95626   0.29965   0.00000  Uiso   1.00
H453   H     0.25089   0.71775   0.27744   0.00000  Uiso   1.00
H454   H     0.21938   0.74076   0.31495   0.00000  Uiso   1.00
H455   H     0.09605   0.93222   0.19968   0.00000  Uiso   1.00
H456   H     0.13527   0.94266   0.16357   0.00000  Uiso   1.00
H457   H     0.09229   0.90627   0.10416   0.00000  Uiso   1.00
H458   H     0.07138   0.85291   0.10628   0.00000  Uiso   1.00
H459   H     0.16446   0.72363   0.39816   0.00000  Uiso   1.00
H460   H     0.18161   0.76104   0.47415   0.00000  Uiso   1.00
H461   H     0.21457   0.73916   0.40072   0.00000  Uiso   1.00
H462   H     0.10902   0.92229   0.39096   0.00000  Uiso   1.00
H463   H     0.15803   0.94162   0.39284   0.00000  Uiso   1.00
H464   H     0.25981   0.81183   0.11049   0.00000  Uiso   1.00
H465   H     0.23619   0.75979   0.11164   0.00000  Uiso   1.00
H466   H     0.14370   0.90431   0.46894   0.00000  Uiso   1.00
H467   H     0.22345   0.79911   0.03273   0.00000  Uiso   1.00
H468   H     0.03750   0.75971   0.23755   0.00000  Uiso   1.00
H469   H     0.29584   0.90747   0.25933   0.00000  Uiso   1.00
H470   H     0.29635   0.75980   0.23616   0.00000  Uiso   1.00
H471   H     0.03707   0.90765   0.25954   0.00000  Uiso   1.00
H472   H     0.12003   0.71159   0.16087   0.00000  Uiso   1.00
N473   N     0.16667   0.95069   0.25000   0.00000  Uiso   1.00
N474   N     0.23332   0.79460   0.12021   0.00000  Uiso   1.00
N475   N     0.16667   0.71598   0.25000   0.00000  Uiso   1.00
N476   N     0.11283   0.71897   0.19335   0.00000  Uiso   1.00
N477   N     0.22024   0.94783   0.30701   0.00000  Uiso   1.00
N478   N     0.22813   0.71055   0.29990   0.00000  Uiso   1.00
N479   N     0.11635   0.95634   0.18717   0.00000  Uiso   1.00
N480   N     0.09734   0.87212   0.11550   0.00000  Uiso   1.00
N481   N     0.18520   0.74923   0.38870   0.00000  Uiso   1.00
N482   N     0.13916   0.91441   0.38246   0.00000  Uiso   1.00
O483   O     0.10655   0.87291   0.24999   0.00000  Uiso   1.00
O484   O     0.22679   0.79375   0.25000   0.00000  Uiso   1.00
O485   O     0.22679   0.87291   0.25000   0.00000  Uiso   1.00
O486   O     0.10655   0.79375   0.24999   0.00000  Uiso   1.00
O487   O     0.16666   0.87293   0.18573   0.00000  Uiso   1.00
O488   O     0.16667   0.79374   0.31427   0.00000  Uiso   1.00
O489   O     0.16667   0.87293   0.31427   0.00000  Uiso   1.00
O490   O     0.16666   0.79374   0.18573   0.00000  Uiso   1.00
C491   C     0.42078   0.83347   0.24963   0.00000  Uiso   1.00
C492   C     0.64524   0.87502   0.25460   0.00000  Uiso   1.00
C493   C     0.64550   0.79207   0.24204   0.00000  Uiso   1.00
C494   C     0.35450   0.87517   0.25463   0.00000  Uiso   1.00
C495   C     0.46460   0.85320   0.04719   0.00000  Uiso   1.00
C496   C     0.50713   0.79243   0.45524   0.00000  Uiso   1.00
C497   C     0.48543   0.87284   0.45232   0.00000  Uiso   1.00
C498   C     0.53108   0.81403   0.04950   0.00000  Uiso   1.00
C499   C     0.46520   0.85369   0.09326   0.00000  Uiso   1.00
C500   C     0.50753   0.79165   0.40924   0.00000  Uiso   1.00
C501   C     0.48548   0.87301   0.40626   0.00000  Uiso   1.00
C502   C     0.57922   0.83325   0.24962   0.00000  Uiso   1.00
C503   C     0.53204   0.81425   0.09556   0.00000  Uiso   1.00
C504   C     0.49913   0.83439   0.11740   0.00000  Uiso   1.00
C505   C     0.49745   0.83244   0.38400   0.00000  Uiso   1.00
C506   C     0.49745   0.83346   0.02522   0.00000  Uiso   1.00
C507   C     0.49663   0.83291   0.47685   0.00000  Uiso   1.00
C508   C     0.62388   0.83337   0.24879   0.00000  Uiso   1.00
C509   C     0.37612   0.83363   0.24893   0.00000  Uiso   1.00
C510   C     0.49963   0.83371   0.16532   0.00000  Uiso   1.00
C511   C     0.49928   0.83297   0.33518   0.00000  Uiso   1.00
C512   C     0.47356   0.69290   0.22263   0.00000  Uiso   1.00
C513   C     0.52614   0.97382   0.27771   0.00000  Uiso   1.00
C514   C     0.52759   0.68982   0.27640   0.00000  Uiso   1.00
C515   C     0.47442   0.97695   0.22135   0.00000  Uiso   1.00
C516   C     0.35476   0.79213   0.24245   0.00000  Uiso   1.00
Cu517  Cu    0.50000   0.88022   0.25000   0.00000  Uiso   1.00
Cu518  Cu    0.50000   0.78645   0.25000   0.00000  Uiso   1.00
H519   H     0.43813   0.86746   0.02864   0.00000  Uiso   1.00
H520   H     0.41612   0.70785   0.19842   0.00000  Uiso   1.00
H521   H     0.54854   0.95812   0.33927   0.00000  Uiso   1.00
H522   H     0.58382   0.95626   0.29965   0.00000  Uiso   1.00
H523   H     0.58422   0.71775   0.27744   0.00000  Uiso   1.00
H524   H     0.55272   0.74076   0.31495   0.00000  Uiso   1.00
H525   H     0.42938   0.93222   0.19968   0.00000  Uiso   1.00
H526   H     0.46861   0.94266   0.16357   0.00000  Uiso   1.00
H527   H     0.42563   0.90627   0.10416   0.00000  Uiso   1.00
H528   H     0.40472   0.85291   0.10628   0.00000  Uiso   1.00
H529   H     0.49779   0.72363   0.39816   0.00000  Uiso   1.00
H530   H     0.51494   0.76104   0.47415   0.00000  Uiso   1.00
H531   H     0.54791   0.73916   0.40072   0.00000  Uiso   1.00
H532   H     0.44235   0.92229   0.39096   0.00000  Uiso   1.00
H533   H     0.49136   0.94162   0.39284   0.00000  Uiso   1.00
H534   H     0.59314   0.81183   0.11049   0.00000  Uiso   1.00
H535   H     0.56953   0.75979   0.11164   0.00000  Uiso   1.00
H536   H     0.47703   0.90431   0.46894   0.00000  Uiso   1.00
H537   H     0.55679   0.79911   0.03273   0.00000  Uiso   1.00
H538   H     0.37084   0.75971   0.23755   0.00000  Uiso   1.00
H539   H     0.62917   0.90747   0.25933   0.00000  Uiso   1.00
H540   H     0.62968   0.75980   0.23616   0.00000  Uiso   1.00
H541   H     0.37041   0.90765   0.25954   0.00000  Uiso   1.00
H542   H     0.45336   0.71159   0.16087   0.00000  Uiso   1.00
N543   N     0.50000   0.95069   0.25000   0.00000  Uiso   1.00
N544   N     0.56665   0.79460   0.12021   0.00000  Uiso   1.00
N545   N     0.50000   0.71598   0.25000   0.00000  Uiso   1.00
N546   N     0.44616   0.71897   0.19335   0.00000  Uiso   1.00
N547   N     0.55358   0.94783   0.30701   0.00000  Uiso   1.00
N548   N     0.56146   0.71055   0.29990   0.00000  Uiso   1.00
N549   N     0.44968   0.95634   0.18717   0.00000  Uiso   1.00
N550   N     0.43068   0.87212   0.11550   0.00000  Uiso   1.00
N551   N     0.51853   0.74923   0.38870   0.00000  Uiso   1.00
N552   N     0.47249   0.91441   0.38246   0.00000  Uiso   1.00
O553   O     0.43988   0.87291   0.24999   0.00000  Uiso   1.00
O554   O     0.56012   0.79375   0.25000   0.00000  Uiso   1.00
O555   O     0.56012   0.87291   0.25000   0.00000  Uiso   1.00
O556   O     0.43988   0.79375   0.24999   0.00000  Uiso   1.00
O557   O     0.50000   0.87293   0.18573   0.00000  Uiso   1.00
O558   O     0.50000   0.79374   0.31427   0.00000  Uiso   1.00
O559   O     0.50000   0.87293   0.31427   0.00000  Uiso   1.00
O560   O     0.50000   0.79374   0.18573   0.00000  Uiso   1.00
C561   C     0.75411   0.83347   0.24963   0.00000  Uiso   1.00
C562   C     0.97857   0.87502   0.25460   0.00000  Uiso   1.00
C563   C     0.97884   0.79207   0.24204   0.00000  Uiso   1.00
C564   C     0.68783   0.87517   0.25463   0.00000  Uiso   1.00
C565   C     0.79793   0.85320   0.04719   0.00000  Uiso   1.00
C566   C     0.84047   0.79243   0.45524   0.00000  Uiso   1.00
C567   C     0.81877   0.87284   0.45232   0.00000  Uiso   1.00
C568   C     0.86441   0.81403   0.04950   0.00000  Uiso   1.00
C569   C     0.79853   0.85369   0.09326   0.00000  Uiso   1.00
C570   C     0.84086   0.79165   0.40924   0.00000  Uiso   1.00
C571   C     0.81881   0.87301   0.40626   0.00000  Uiso   1.00
C572   C     0.91256   0.83325   0.24962   0.00000  Uiso   1.00
C573   C     0.86538   0.81425   0.09556   0.00000  Uiso   1.00
C574   C     0.83247   0.83439   0.11740   0.00000  Uiso   1.00
C575   C     0.83078   0.83244   0.38400   0.00000  Uiso   1.00
C576   C     0.83078   0.83346   0.02522   0.00000  Uiso   1.00
C577   C     0.82996   0.83291   0.47685   0.00000  Uiso   1.00
C578   C     0.95721   0.83337   0.24879   0.00000  Uiso   1.00
C579   C     0.70945   0.83363   0.24893   0.00000  Uiso   1.00
C580   C     0.83296   0.83371   0.16532   0.00000  Uiso   1.00
C581   C     0.83262   0.83297   0.33518   0.00000  Uiso   1.00
C582   C     0.80690   0.69290   0.22263   0.00000  Uiso   1.00
C583   C     0.85948   0.97382   0.27771   0.00000  Uiso   1.00
C584   C     0.86093   0.68982   0.27640   0.00000  Uiso   1.00
C585   C     0.80775   0.97695   0.22135   0.00000  Uiso   1.00
C586   C     0.68809   0.79213   0.24245   0.00000  Uiso   1.00
Cu587  Cu    0.83333   0.88022   0.25000   0.00000  Uiso   1.00
Cu588  Cu    0.83333   0.78645   0.25000   0.00000  Uiso   1.00
H589   H     0.77146   0.86746   0.02864   0.00000  Uiso   1.00
H590   H     0.74945   0.70785   0.19842   0.00000  Uiso   1.00
H591   H     0.88187   0.95812   0.33927   0.00000  Uiso   1.00
H592   H     0.91716   0.95626   0.29965   0.00000  Uiso   1.00
H593   H     0.91756   0.71775   0.27744   0.00000  Uiso   1.00
H594   H     0.88605   0.74076   0.31495   0.00000  Uiso   1.00
H595   H     0.76271   0.93222   0.19968   0.00000  Uiso   1.00
H596   H     0.80194   0.94266   0.16357   0.00000  Uiso   1.00
H597   H     0.75896   0.90627   0.10416   0.00000  Uiso   1.00
H598   H     0.73805   0.85291   0.10628   0.00000  Uiso   1.00
H599   H     0.83112   0.72363   0.39816   0.00000  Uiso   1.00
H600   H     0.84827   0.76104   0.47415   0.00000  Uiso   1.00
H601   H     0.88124   0.73916   0.40072   0.00000  Uiso   1.00
H602   H     0.77569   0.92229   0.39096   0.00000  Uiso   1.00
H603   H     0.82470   0.94162   0.39284   0.00000  Uiso   1.00
H604   H     0.92647   0.81183   0.11049   0.00000  Uiso   1.00
H605   H     0.90286   0.75979   0.11164   0.00000  Uiso   1.00
H606   H     0.81036   0.90431   0.46894   0.00000  Uiso   1.00
H607   H     0.89012   0.79911   0.03273   0.00000  Uiso   1.00
H608   H     0.70417   0.75971   0.23755   0.00000  Uiso   1.00
H609   H     0.96251   0.90747   0.25933   0.00000  Uiso   1.00
H610   H     0.96301   0.75980   0.23616   0.00000  Uiso   1.00
H611   H     0.70374   0.90765   0.25954   0.00000  Uiso   1.00
H612   H     0.78669   0.71159   0.16087   0.00000  Uiso   1.00
N613   N     0.83333   0.95069   0.25000   0.00000  Uiso   1.00
N614   N     0.89998   0.79460   0.12021   0.00000  Uiso   1.00
N615   N     0.83333   0.71598   0.25000   0.00000  Uiso   1.00
N616   N     0.77949   0.71897   0.19335   0.00000  Uiso   1.00
N617   N     0.88691   0.94783   0.30701   0.00000  Uiso   1.00
N618   N     0.89479   0.71055   0.29990   0.00000  Uiso   1.00
N619   N     0.78301   0.95634   0.18717   0.00000  Uiso   1.00
N620   N     0.76401   0.87212   0.11550   0.00000  Uiso   1.00
N621   N     0.85186   0.74923   0.38870   0.00000  Uiso   1.00
N622   N     0.80583   0.91441   0.38246   0.00000  Uiso   1.00
O623   O     0.77321   0.87291   0.24999   0.00000  Uiso   1.00
O624   O     0.89345   0.79375   0.25000   0.00000  Uiso   1.00
O625   O     0.89345   0.87291   0.25000   0.00000  Uiso   1.00
O626   O     0.77321   0.79375   0.24999   0.00000  Uiso   1.00
O627   O     0.83333   0.87293   0.18573   0.00000  Uiso   1.00
O628   O     0.83334   0.79374   0.31427   0.00000  Uiso   1.00
O629   O     0.83334   0.87293   0.31427   0.00000  Uiso   1.00
O630   O     0.83333   0.79374   0.18573   0.00000  Uiso   1.00
C631   C     0.08744   0.16681   0.74963   0.00000  Uiso   1.00
C632   C     0.31190   0.20836   0.75460   0.00000  Uiso   1.00
C633   C     0.31217   0.12540   0.74204   0.00000  Uiso   1.00
C634   C     0.02117   0.20850   0.75463   0.00000  Uiso   1.00
C635   C     0.13126   0.18654   0.54719   0.00000  Uiso   1.00
C636   C     0.17380   0.12576   0.95524   0.00000  Uiso   1.00
C637   C     0.15210   0.20617   0.95232   0.00000  Uiso   1.00
C638   C     0.19774   0.14737   0.54950   0.00000  Uiso   1.00
C639   C     0.13186   0.18703   0.59326   0.00000  Uiso   1.00
C640   C     0.17419   0.12499   0.90924   0.00000  Uiso   1.00
C641   C     0.15214   0.20635   0.90626   0.00000  Uiso   1.00
C642   C     0.24589   0.16658   0.74962   0.00000  Uiso   1.00
C643   C     0.19871   0.14758   0.59556   0.00000  Uiso   1.00
C644   C     0.16580   0.16772   0.61740   0.00000  Uiso   1.00
C645   C     0.16412   0.16577   0.88400   0.00000  Uiso   1.00
C646   C     0.16411   0.16679   0.52522   0.00000  Uiso   1.00
C647   C     0.16329   0.16625   0.97685   0.00000  Uiso   1.00
C648   C     0.29054   0.16670   0.74879   0.00000  Uiso   1.00
C649   C     0.04278   0.16696   0.74893   0.00000  Uiso   1.00
C650   C     0.16630   0.16705   0.66532   0.00000  Uiso   1.00
C651   C     0.16595   0.16630   0.83518   0.00000  Uiso   1.00
C652   C     0.14023   0.02624   0.72263   0.00000  Uiso   1.00
C653   C     0.19281   0.30716   0.77771   0.00000  Uiso   1.00
C654   C     0.19426   0.02315   0.77640   0.00000  Uiso   1.00
C655   C     0.14108   0.31029   0.72135   0.00000  Uiso   1.00
C656   C     0.02143   0.12546   0.74245   0.00000  Uiso   1.00
Cu657  Cu    0.16667   0.21355   0.75000   0.00000  Uiso   1.00
Cu658  Cu    0.16667   0.11978   0.75000   0.00000  Uiso   1.00
H659   H     0.10479   0.20079   0.52864   0.00000  Uiso   1.00
H660   H     0.08279   0.04119   0.69842   0.00000  Uiso   1.00
H661   H     0.21520   0.29146   0.83927   0.00000  Uiso   1.00
H662   H     0.25049   0.28960   0.79965   0.00000  Uiso   1.00
H663   H     0.25089   0.05108   0.77744   0.00000  Uiso   1.00
H664   H     0.21938   0.07409   0.81495   0.00000  Uiso   1.00
H665   H     0.09605   0.26555   0.69968   0.00000  Uiso   1.00
H666   H     0.13527   0.27599   0.66357   0.00000  Uiso   1.00
H667   H     0.09229   0.23961   0.60416   0.00000  Uiso   1.00
H668   H     0.07138   0.18624   0.60628   0.00000  Uiso   1.00
H669   H     0.16446   0.05697   0.89816   0.00000  Uiso   1.00
H670   H     0.18161   0.09437   0.97415   0.00000  Uiso   1.00
H671   H     0.21457   0.07249   0.90072   0.00000  Uiso   1.00
H672   H     0.10902   0.25562   0.89096   0.00000  Uiso   1.00
H673   H     0.15803   0.27495   0.89284   0.00000  Uiso   1.00
H674   H     0.25981   0.14516   0.61049   0.00000  Uiso   1.00
H675   H     0.23619   0.09312   0.61164   0.00000  Uiso   1.00
H676   H     0.14370   0.23765   0.96894   0.00000  Uiso   1.00
H677   H     0.22345   0.13244   0.53273   0.00000  Uiso   1.00
H678   H     0.03750   0.09304   0.73755   0.00000  Uiso   1.00
H679   H     0.29584   0.24080   0.75933   0.00000  Uiso   1.00
H680   H     0.29635   0.09314   0.73616   0.00000  Uiso   1.00
H681   H     0.03707   0.24099   0.75954   0.00000  Uiso   1.00
H682   H     0.12003   0.04492   0.66087   0.00000  Uiso   1.00
N683   N     0.16667   0.28402   0.75000   0.00000  Uiso   1.00
N684   N     0.23332   0.12793   0.62021   0.00000  Uiso   1.00
N685   N     0.16667   0.04931   0.75000   0.00000  Uiso   1.00
N686   N     0.11283   0.05231   0.69335   0.00000  Uiso   1.00
N687   N     0.22024   0.28116   0.80701   0.00000  Uiso   1.00
N688   N     0.22813   0.04388   0.79990   0.00000  Uiso   1.00
N689   N     0.11635   0.28967   0.68717   0.00000  Uiso   1.00
N690   N     0.09734   0.20546   0.61550   0.00000  Uiso   1.00
N691   N     0.18520   0.08256   0.88870   0.00000  Uiso   1.00
N692   N     0.13916   0.24774   0.88246   0.00000  Uiso   1.00
O693   O     0.10655   0.20625   0.74999   0.00000  Uiso   1.00
O694   O     0.22679   0.12709   0.75000   0.00000  Uiso   1.00
O695   O     0.22679   0.20625   0.75000   0.00000  Uiso   1.00
O696   O     0.10655   0.12709   0.74999   0.00000  Uiso   1.00
O697   O     0.16666   0.20626   0.68573   0.00000  Uiso   1.00
O698   O     0.16667   0.12707   0.81427   0.00000  Uiso   1.00
O699   O     0.16667   0.20626   0.81427   0.00000  Uiso   1.00
O700   O     0.16666   0.12707   0.68573   0.00000  Uiso   1.00
C701   C     0.42078   0.16681   0.74963   0.00000  Uiso   1.00
C702   C     0.64524   0.20836   0.75460   0.00000  Uiso   1.00
C703   C     0.64550   0.12540   0.74204   0.00000  Uiso   1.00
C704   C     0.35450   0.20850   0.75463   0.00000  Uiso   1.00
C705   C     0.46460   0.18654   0.54719   0.00000  Uiso   1.00
C706   C     0.50713   0.12576   0.95524   0.00000  Uiso   1.00
C707   C     0.48543   0.20617   0.95232   0.00000  Uiso   1.00
C708   C     0.53108   0.14737   0.54950   0.00000  Uiso   1.00
C709   C     0.46520   0.18703   0.59326   0.00000  Uiso   1.00
C710   C     0.50753   0.12499   0.90924   0.00000  Uiso   1.00
C711   C     0.48548   0.20635   0.90626   0.00000  Uiso   1.00
C712   C     0.57922   0.16658   0.74962   0.00000  Uiso   1.00
C713   C     0.53204   0.14758   0.59556   0.00000  Uiso   1.00
C714   C     0.49913   0.16772   0.61740   0.00000  Uiso   1.00
C715   C     0.49745   0.16577   0.88400   0.00000  Uiso   1.00
C716   C     0.49745   0.16679   0.52522   0.00000  Uiso   1.00
C717   C     0.49663   0.16625   0.97685   0.00000  Uiso   1.00
C718   C     0.62388   0.16670   0.74879   0.00000  Uiso   1.00
C719   C     0.37612   0.16696   0.74893   0.00000  Uiso   1.00
C720   C     0.49963   0.16705   0.66532   0.00000  Uiso   1.00
C721   C     0.49928   0.16630   0.83518   0.00000  Uiso   1.00
C722   C     0.47356   0.02624   0.72263   0.00000  Uiso   1.00
C723   C     0.52614   0.30716   0.77771   0.00000  Uiso   1.00
C724   C     0.52759   0.02315   0.77640   0.00000  Uiso   1.00
C725   C     0.47442   0.31029   0.72135   0.00000  Uiso   1.00
C726   C     0.35476   0.12546   0.74245   0.00000  Uiso   1.00
Cu727  Cu    0.50000   0.21355   0.75000   0.00000  Uiso   1.00
Cu728  Cu    0.50000   0.11978   0.75000   0.00000  Uiso   1.00
H729   H     0.43813   0.20079   0.52864   0.00000  Uiso   1.00
H730   H     0.41612   0.04119   0.69842   0.00000  Uiso   1.00
H731   H     0.54854   0.29146   0.83927   0.00000  Uiso   1.00
H732   H     0.58382   0.28960   0.79965   0.00000  Uiso   1.00
H733   H     0.58422   0.05108   0.77744   0.00000  Uiso   1.00
H734   H     0.55272   0.07409   0.81495   0.00000  Uiso   1.00
H735   H     0.42938   0.26555   0.69968   0.00000  Uiso   1.00
H736   H     0.46861   0.27599   0.66357   0.00000  Uiso   1.00
H737   H     0.42563   0.23961   0.60416   0.00000  Uiso   1.00
H738   H     0.40472   0.18624   0.60628   0.00000  Uiso   1.00
H739   H     0.49779   0.05697   0.89816   0.00000  Uiso   1.00
H740   H     0.51494   0.09437   0.97415   0.00000  Uiso   1.00
H741   H     0.54791   0.07249   0.90072   0.00000  Uiso   1.00
H742   H     0.44235   0.25562   0.89096   0.00000  Uiso   1.00
H743   H     0.49136   0.27495   0.89284   0.00000  Uiso   1.00
H744   H     0.59314   0.14516   0.61049   0.00000  Uiso   1.00
H745   H     0.56953   0.09312   0.61164   0.00000  Uiso   1.00
H746   H     0.47703   0.23765   0.96894   0.00000  Uiso   1.00
H747   H     0.55679   0.13244   0.53273   0.00000  Uiso   1.00
H748   H     0.37084   0.09304   0.73755   0.00000  Uiso   1.00
H749   H     0.62917   0.24080   0.75933   0.00000  Uiso   1.00
H750   H     0.62968   0.09314   0.73616   0.00000  Uiso   1.00
H751   H     0.37041   0.24099   0.75954   0.00000  Uiso   1.00
H752   H     0.45336   0.04492   0.66087   0.00000  Uiso   1.00
N753   N     0.50000   0.28402   0.75000   0.00000  Uiso   1.00
N754   N     0.56665   0.12793   0.62021   0.00000  Uiso   1.00
N755   N     0.50000   0.04931   0.75000   0.00000  Uiso   1.00
N756   N     0.44616   0.05231   0.69335   0.00000  Uiso   1.00
N757   N     0.55358   0.28116   0.80701   0.00000  Uiso   1.00
N758   N     0.56146   0.04388   0.79990   0.00000  Uiso   1.00
N759   N     0.44968   0.28967   0.68717   0.00000  Uiso   1.00
N760   N     0.43068   0.20546   0.61550   0.00000  Uiso   1.00
N761   N     0.51853   0.08256   0.88870   0.00000  Uiso   1.00
N762   N     0.47249   0.24774   0.88246   0.00000  Uiso   1.00
O763   O     0.43988   0.20625   0.74999   0.00000  Uiso   1.00
O764   O     0.56012   0.12709   0.75000   0.00000  Uiso   1.00
O765   O     0.56012   0.20625   0.75000   0.00000  Uiso   1.00
O766   O     0.43988   0.12709   0.74999   0.00000  Uiso   1.00
O767   O     0.50000   0.20626   0.68573   0.00000  Uiso   1.00
O768   O     0.50000   0.12707   0.81427   0.00000  Uiso   1.00
O769   O     0.50000   0.20626   0.81427   0.00000  Uiso   1.00
O770   O     0.50000   0.12707   0.68573   0.00000  Uiso   1.00
C771   C     0.75411   0.16681   0.74963   0.00000  Uiso   1.00
C772   C     0.97857   0.20836   0.75460   0.00000  Uiso   1.00
C773   C     0.97884   0.12540   0.74204   0.00000  Uiso   1.00
C774   C     0.68783   0.20850   0.75463   0.00000  Uiso   1.00
C775   C     0.79793   0.18654   0.54719   0.00000  Uiso   1.00
C776   C     0.84047   0.12576   0.95524   0.00000  Uiso   1.00
C777   C     0.81877   0.20617   0.95232   0.00000  Uiso   1.00
C778   C     0.86441   0.14737   0.54950   0.00000  Uiso   1.00
C779   C     0.79853   0.18703   0.59326   0.00000  Uiso   1.00
C780   C     0.84086   0.12499   0.90924   0.00000  Uiso   1.00
C781   C     0.81881   0.20635   0.90626   0.00000  Uiso   1.00
C782   C     0.91256   0.16658   0.74962   0.00000  Uiso   1.00
C783   C     0.86538   0.14758   0.59556   0.00000  Uiso   1.00
C784   C     0.83247   0.16772   0.61740   0.00000  Uiso   1.00
C785   C     0.83078   0.16577   0.88400   0.00000  Uiso   1.00
C786   C     0.83078   0.16679   0.52522   0.00000  Uiso   1.00
C787   C     0.82996   0.16625   0.97685   0.00000  Uiso   1.00
C788   C     0.95721   0.16670   0.74879   0.00000  Uiso   1.00
C789   C     0.70945   0.16696   0.74893   0.00000  Uiso   1.00
C790   C     0.83296   0.16705   0.66532   0.00000  Uiso   1.00
C791   C     0.83262   0.16630   0.83518   0.00000  Uiso   1.00
C792   C     0.80690   0.02624   0.72263   0.00000  Uiso   1.00
C793   C     0.85948   0.30716   0.77771   0.00000  Uiso   1.00
C794   C     0.86093   0.02315   0.77640   0.00000  Uiso   1.00
C795   C     0.80775   0.31029   0.72135   0.00000  Uiso   1.00
C796   C     0.68809   0.12546   0.74245   0.00000  Uiso   1.00
Cu797  Cu    0.83333   0.21355   0.75000   0.00000  Uiso   1.00
Cu798  Cu    0.83333   0.11978   0.75000   0.00000  Uiso   1.00
H799   H     0.77146   0.20079   0.52864   0.00000  Uiso   1.00
H800   H     0.74945   0.04119   0.69842   0.00000  Uiso   1.00
H801   H     0.88187   0.29146   0.83927   0.00000  Uiso   1.00
H802   H     0.91716   0.28960   0.79965   0.00000  Uiso   1.00
H803   H     0.91756   0.05108   0.77744   0.00000  Uiso   1.00
H804   H     0.88605   0.07409   0.81495   0.00000  Uiso   1.00
H805   H     0.76271   0.26555   0.69968   0.00000  Uiso   1.00
H806   H     0.80194   0.27599   0.66357   0.00000  Uiso   1.00
H807   H     0.75896   0.23961   0.60416   0.00000  Uiso   1.00
H808   H     0.73805   0.18624   0.60628   0.00000  Uiso   1.00
H809   H     0.83112   0.05697   0.89816   0.00000  Uiso   1.00
H810   H     0.84827   0.09437   0.97415   0.00000  Uiso   1.00
H811   H     0.88124   0.07249   0.90072   0.00000  Uiso   1.00
H812   H     0.77569   0.25562   0.89096   0.00000  Uiso   1.00
H813   H     0.82470   0.27495   0.89284   0.00000  Uiso   1.00
H814   H     0.92647   0.14516   0.61049   0.00000  Uiso   1.00
H815   H     0.90286   0.09312   0.61164   0.00000  Uiso   1.00
H816   H     0.81036   0.23765   0.96894   0.00000  Uiso   1.00
H817   H     0.89012   0.13244   0.53273   0.00000  Uiso   1.00
H818   H     0.70417   0.09304   0.73755   0.00000  Uiso   1.00
H819   H     0.96251   0.24080   0.75933   0.00000  Uiso   1.00
H820   H     0.96301   0.09314   0.73616   0.00000  Uiso   1.00
H821   H     0.70374   0.24099   0.75954   0.00000  Uiso   1.00
H822   H     0.78669   0.04492   0.66087   0.00000  Uiso   1.00
N823   N     0.83333   0.28402   0.75000   0.00000  Uiso   1.00
N824   N     0.89998   0.12793   0.62021   0.00000  Uiso   1.00
N825   N     0.83333   0.04931   0.75000   0.00000  Uiso   1.00
N826   N     0.77949   0.05231   0.69335   0.00000  Uiso   1.00
N827   N     0.88691   0.28116   0.80701   0.00000  Uiso   1.00
N828   N     0.89479   0.04388   0.79990   0.00000  Uiso   1.00
N829   N     0.78301   0.28967   0.68717   0.00000  Uiso   1.00
N830   N     0.76401   0.20546   0.61550   0.00000  Uiso   1.00
N831   N     0.85186   0.08256   0.88870   0.00000  Uiso   1.00
N832   N     0.80583   0.24774   0.88246   0.00000  Uiso   1.00
O833   O     0.77321   0.20625   0.74999   0.00000  Uiso   1.00
O834   O     0.89345   0.12709   0.75000   0.00000  Uiso   1.00
O835   O     0.89345   0.20625   0.75000   0.00000  Uiso   1.00
O836   O     0.77321   0.12709   0.74999   0.00000  Uiso   1.00
O837   O     0.83333   0.20626   0.68573   0.00000  Uiso   1.00
O838   O     0.83334   0.12707   0.81427   0.00000  Uiso   1.00
O839   O     0.83334   0.20626   0.81427   0.00000  Uiso   1.00
O840   O     0.83333   0.12707   0.68573   0.00000  Uiso   1.00
C841   C     0.08744   0.50014   0.74963   0.00000  Uiso   1.00
C842   C     0.31190   0.54169   0.75460   0.00000  Uiso   1.00
C843   C     0.31217   0.45873   0.74204   0.00000  Uiso   1.00
C844   C     0.02117   0.54184   0.75463   0.00000  Uiso   1.00
C845   C     0.13126   0.51987   0.54719   0.00000  Uiso   1.00
C846   C     0.17380   0.45909   0.95524   0.00000  Uiso   1.00
C847   C     0.15210   0.53951   0.95232   0.00000  Uiso   1.00
C848   C     0.19774   0.48070   0.54950   0.00000  Uiso   1.00
C849   C     0.13186   0.52036   0.59326   0.00000  Uiso   1.00
C850   C     0.17419   0.45832   0.90924   0.00000  Uiso   1.00
C851   C     0.15214   0.53968   0.90626   0.00000  Uiso   1.00
C852   C     0.24589   0.49992   0.74962   0.00000  Uiso   1.00
C853   C     0.19871   0.48092   0.59556   0.00000  Uiso   1.00
C854   C     0.16580   0.50105   0.61740   0.00000  Uiso   1.00
C855   C     0.16412   0.49910   0.88400   0.00000  Uiso   1.00
C856   C     0.16411   0.50012   0.52522   0.00000  Uiso   1.00
C857   C     0.16329   0.49958   0.97685   0.00000  Uiso   1.00
C858   C     0.29054   0.50004   0.74879   0.00000  Uiso   1.00
C859   C     0.04278   0.50030   0.74893   0.00000  Uiso   1.00
C860   C     0.16630   0.50038   0.66532   0.00000  Uiso   1.00
C861   C     0.16595   0.49963   0.83518   0.00000  Uiso   1.00
C862   C     0.14023   0.35957   0.72263   0.00000  Uiso   1.00
C863   C     0.19281   0.64049   0.77771   0.00000  Uiso   1.00
C864   C     0.19426   0.35649   0.77640   0.00000  Uiso   1.00
C865   C     0.14108   0.64362   0.72135   0.00000  Uiso   1.00
C866   C     0.02143   0.45879   0.74245   0.00000  Uiso   1.00
Cu867  Cu    0.16667   0.54689   0.75000   0.00000  Uiso   1.00
Cu868  Cu    0.16667   0.45311   0.75000   0.00000  Uiso   1.00
H869   H     0.10479   0.53413   0.52864   0.00000  Uiso   1.00
H870   H     0.08279   0.37452   0.69842   0.00000  Uiso   1.00
H871   H     0.21520   0.62479   0.83927   0.00000  Uiso   1.00
H872   H     0.25049   0.62293   0.79965   0.00000  Uiso   1.00
H873   H     0.25089   0.38442   0.77744   0.00000  Uiso   1.00
H874   H     0.21938   0.40742   0.81495   0.00000  Uiso   1.00
H875   H     0.09605   0.59889   0.69968   0.00000  Uiso   1.00
H876   H     0.13527   0.60932   0.66357   0.00000  Uiso   1.00
H877   H     0.09229   0.57294   0.60416   0.00000  Uiso   1.00
H878   H     0.07138   0.51957   0.60628   0.00000  Uiso   1.00
H879   H     0.16446   0.39030   0.89816   0.00000  Uiso   1.00
H880   H     0.18161   0.42771   0.97415   0.00000  Uiso   1.00
H881   H     0.21457   0.40582   0.90072   0.00000  Uiso   1.00
H882   H     0.10902   0.58896   0.89096   0.00000  Uiso   1.00
H883   H     0.15803   0.60829   0.89284   0.00000  Uiso   1.00
H884   H     0.25981   0.47849   0.61049   0.00000  Uiso   1.00
H885   H     0.23619   0.42645   0.61164   0.00000  Uiso   1.00
H886   H     0.14370   0.57098   0.96894   0.00000  Uiso   1.00
H887   H     0.22345   0.46577   0.53273   0.00000  Uiso   1.00
H888   H     0.03750   0.42637   0.73755   0.00000  Uiso   1.00
H889   H     0.29584   0.57414   0.75933   0.00000  Uiso   1.00
H890   H     0.29635   0.42647   0.73616   0.00000  Uiso   1.00
H891   H     0.03707   0.57432   0.75954   0.00000  Uiso   1.00
H892   H     0.12003   0.37825   0.66087   0.00000  Uiso   1.00
N893   N     0.16667   0.61736   0.75000   0.00000  Uiso   1.00
N894   N     0.23332   0.46127   0.62021   0.00000  Uiso   1.00
N895   N     0.16667   0.38264   0.75000   0.00000  Uiso   1.00
N896   N     0.11283   0.38564   0.69335   0.00000  Uiso   1.00
N897   N     0.22024   0.61449   0.80701   0.00000  Uiso   1.00
N898   N     0.22813   0.37721   0.79990   0.00000  Uiso   1.00
N899   N     0.11635   0.62301   0.68717   0.00000  Uiso   1.00
N900   N     0.09734   0.53879   0.61550   0.00000  Uiso   1.00
N901   N     0.18520   0.41589   0.88870   0.00000  Uiso   1.00
N902   N     0.13916   0.58108   0.88246   0.00000  Uiso   1.00
O903   O     0.10655   0.53958   0.74999   0.00000  Uiso   1.00
O904   O     0.22679   0.46042   0.75000   0.00000  Uiso   1.00
O905   O     0.22679   0.53958   0.75000   0.00000  Uiso   1.00
O906   O     0.10655   0.46042   0.74999   0.00000  Uiso   1.00
O907   O     0.16666   0.53959   0.68573   0.00000  Uiso   1.00
O908   O     0.16667   0.46041   0.81427   0.00000  Uiso   1.00
O909   O     0.16667   0.53959   0.81427   0.00000  Uiso   1.00
O910   O     0.16666   0.46041   0.68573   0.00000  Uiso   1.00
C911   C     0.42078   0.50014   0.74963   0.00000  Uiso   1.00
C912   C     0.64524   0.54169   0.75460   0.00000  Uiso   1.00
C913   C     0.64550   0.45873   0.74204   0.00000  Uiso   1.00
C914   C     0.35450   0.54184   0.75463   0.00000  Uiso   1.00
C915   C     0.46460   0.51987   0.54719   0.00000  Uiso   1.00
C916   C     0.50713   0.45909   0.95524   0.00000  Uiso   1.00
C917   C     0.48543   0.53951   0.95232   0.00000  Uiso   1.00
C918   C     0.53108   0.48070   0.54950   0.00000  Uiso   1.00
C919   C     0.46520   0.52036   0.59326   0.00000  Uiso   1.00
C920   C     0.50753   0.45832   0.90924   0.00000  Uiso   1.00
C921   C     0.48548   0.53968   0.90626   0.00000  Uiso   1.00
C922   C     0.57922   0.49992   0.74962   0.00000  Uiso   1.00
C923   C     0.53204   0.48092   0.59556   0.00000  Uiso   1.00
C924   C     0.49913   0.50105   0.61740   0.00000  Uiso   1.00
C925   C     0.49745   0.49910   0.88400   0.00000  Uiso   1.00
C926   C     0.49745   0.50012   0.52522   0.00000  Uiso   1.00
C927   C     0.49663   0.49958   0.97685   0.00000  Uiso   1.00
C928   C     0.62388   0.50004   0.74879   0.00000  Uiso   1.00
C929   C     0.37612   0.50030   0.74893   0.00000  Uiso   1.00
C930   C     0.49963   0.50038   0.66532   0.00000  Uiso   1.00
C931   C     0.49928   0.49963   0.83518   0.00000  Uiso   1.00
C932   C     0.47356   0.35957   0.72263   0.00000  Uiso   1.00
C933   C     0.52614   0.64049   0.77771   0.00000  Uiso   1.00
C934   C     0.52759   0.35649   0.77640   0.00000  Uiso   1.00
C935   C     0.47442   0.64362   0.72135   0.00000  Uiso   1.00
C936   C     0.35476   0.45879   0.74245   0.00000  Uiso   1.00
Cu937  Cu    0.50000   0.54689   0.75000   0.00000  Uiso   1.00
Cu938  Cu    0.50000   0.45311   0.75000   0.00000  Uiso   1.00
H939   H     0.43813   0.53413   0.52864   0.00000  Uiso   1.00
H940   H     0.41612   0.37452   0.69842   0.00000  Uiso   1.00
H941   H     0.54854   0.62479   0.83927   0.00000  Uiso   1.00
H942   H     0.58382   0.62293   0.79965   0.00000  Uiso   1.00
H943   H     0.58422   0.38442   0.77744   0.00000  Uiso   1.00
H944   H     0.55272   0.40742   0.81495   0.00000  Uiso   1.00
H945   H     0.42938   0.59889   0.69968   0.00000  Uiso   1.00
H946   H     0.46861   0.60932   0.66357   0.00000  Uiso   1.00
H947   H     0.42563   0.57294   0.60416   0.00000  Uiso   1.00
H948   H     0.40472   0.51957   0.60628   0.00000  Uiso   1.00
H949   H     0.49779   0.39030   0.89816   0.00000  Uiso   1.00
H950   H     0.51494   0.42771   0.97415   0.00000  Uiso   1.00
H951   H     0.54791   0.40582   0.90072   0.00000  Uiso   1.00
H952   H     0.44235   0.58896   0.89096   0.00000  Uiso   1.00
H953   H     0.49136   0.60829   0.89284   0.00000  Uiso   1.00
H954   H     0.59314   0.47849   0.61049   0.00000  Uiso   1.00
H955   H     0.56953   0.42645   0.61164   0.00000  Uiso   1.00
H956   H     0.47703   0.57098   0.96894   0.00000  Uiso   1.00
H957   H     0.55679   0.46577   0.53273   0.00000  Uiso   1.00
H958   H     0.37084   0.42637   0.73755   0.00000  Uiso   1.00
H959   H     0.62917   0.57414   0.75933   0.00000  Uiso   1.00
H960   H     0.62968   0.42647   0.73616   0.00000  Uiso   1.00
H961   H     0.37041   0.57432   0.75954   0.00000  Uiso   1.00
H962   H     0.45336   0.37825   0.66087   0.00000  Uiso   1.00
N963   N     0.50000   0.61736   0.75000   0.00000  Uiso   1.00
N964   N     0.56665   0.46127   0.62021   0.00000  Uiso   1.00
N965   N     0.50000   0.38264   0.75000   0.00000  Uiso   1.00
N966   N     0.44616   0.38564   0.69335   0.00000  Uiso   1.00
N967   N     0.55358   0.61449   0.80701   0.00000  Uiso   1.00
N968   N     0.56146   0.37721   0.79990   0.00000  Uiso   1.00
N969   N     0.44968   0.62301   0.68717   0.00000  Uiso   1.00
N970   N     0.43068   0.53879   0.61550   0.00000  Uiso   1.00
N971   N     0.51853   0.41589   0.88870   0.00000  Uiso   1.00
N972   N     0.47249   0.58108   0.88246   0.00000  Uiso   1.00
O973   O     0.43988   0.53958   0.74999   0.00000  Uiso   1.00
O974   O     0.56012   0.46042   0.75000   0.00000  Uiso   1.00
O975   O     0.56012   0.53958   0.75000   0.00000  Uiso   1.00
O976   O     0.43988   0.46042   0.74999   0.00000  Uiso   1.00
O977   O     0.50000   0.53959   0.68573   0.00000  Uiso   1.00
O978   O     0.50000   0.46041   0.81427   0.00000  Uiso   1.00
O979   O     0.50000   0.53959   0.81427   0.00000  Uiso   1.00
O980   O     0.50000   0.46041   0.68573   0.00000  Uiso   1.00
C981   C     0.75411   0.50014   0.74963   0.00000  Uiso   1.00
C982   C     0.97857   0.54169   0.75460   0.00000  Uiso   1.00
C983   C     0.97884   0.45873   0.74204   0.00000  Uiso   1.00
C984   C     0.68783   0.54184   0.75463   0.00000  Uiso   1.00
C985   C     0.79793   0.51987   0.54719   0.00000  Uiso   1.00
C986   C     0.84047   0.45909   0.95524   0.00000  Uiso   1.00
C987   C     0.81877   0.53951   0.95232   0.00000  Uiso   1.00
C988   C     0.86441   0.48070   0.54950   0.00000  Uiso   1.00
C989   C     0.79853   0.52036   0.59326   0.00000  Uiso   1.00
C990   C     0.84086   0.45832   0.90924   0.00000  Uiso   1.00
C991   C     0.81881   0.53968   0.90626   0.00000  Uiso   1.00
C992   C     0.91256   0.49992   0.74962   0.00000  Uiso   1.00
C993   C     0.86538   0.48092   0.59556   0.00000  Uiso   1.00
C994   C     0.83247   0.50105   0.61740   0.00000  Uiso   1.00
C995   C     0.83078   0.49910   0.88400   0.00000  Uiso   1.00
C996   C     0.83078   0.50012   0.52522   0.00000  Uiso   1.00
C997   C     0.82996   0.49958   0.97685   0.00000  Uiso   1.00
C998   C     0.95721   0.50004   0.74879   0.00000  Uiso   1.00
C999   C     0.70945   0.50030   0.74893   0.00000  Uiso   1.00
C1000  C     0.83296   0.50038   0.66532   0.00000  Uiso   1.00
C1001  C     0.83262   0.49963   0.83518   0.00000  Uiso   1.00
C1002  C     0.80690   0.35957   0.72263   0.00000  Uiso   1.00
C1003  C     0.85948   0.64049   0.77771   0.00000  Uiso   1.00
C1004  C     0.86093   0.35649   0.77640   0.00000  Uiso   1.00
C1005  C     0.80775   0.64362   0.72135   0.00000  Uiso   1.00
C1006  C     0.68809   0.45879   0.74245   0.00000  Uiso   1.00
Cu1007 Cu    0.83333   0.54689   0.75000   0.00000  Uiso   1.00
Cu1008 Cu    0.83333   0.45311   0.75000   0.00000  Uiso   1.00
H1009  H     0.77146   0.53413   0.52864   0.00000  Uiso   1.00
H1010  H     0.74945   0.37452   0.69842   0.00000  Uiso   1.00
H1011  H     0.88187   0.62479   0.83927   0.00000  Uiso   1.00
H1012  H     0.91716   0.62293   0.79965   0.00000  Uiso   1.00
H1013  H     0.91756   0.38442   0.77744   0.00000  Uiso   1.00
H1014  H     0.88605   0.40742   0.81495   0.00000  Uiso   1.00
H1015  H     0.76271   0.59889   0.69968   0.00000  Uiso   1.00
H1016  H     0.80194   0.60932   0.66357   0.00000  Uiso   1.00
H1017  H     0.75896   0.57294   0.60416   0.00000  Uiso   1.00
H1018  H     0.73805   0.51957   0.60628   0.00000  Uiso   1.00
H1019  H     0.83112   0.39030   0.89816   0.00000  Uiso   1.00
H1020  H     0.84827   0.42771   0.97415   0.00000  Uiso   1.00
H1021  H     0.88124   0.40582   0.90072   0.00000  Uiso   1.00
H1022  H     0.77569   0.58896   0.89096   0.00000  Uiso   1.00
H1023  H     0.82470   0.60829   0.89284   0.00000  Uiso   1.00
H1024  H     0.92647   0.47849   0.61049   0.00000  Uiso   1.00
H1025  H     0.90286   0.42645   0.61164   0.00000  Uiso   1.00
H1026  H     0.81036   0.57098   0.96894   0.00000  Uiso   1.00
H1027  H     0.89012   0.46577   0.53273   0.00000  Uiso   1.00
H1028  H     0.70417   0.42637   0.73755   0.00000  Uiso   1.00
H1029  H     0.96251   0.57414   0.75933   0.00000  Uiso   1.00
H1030  H     0.96301   0.42647   0.73616   0.00000  Uiso   1.00
H1031  H     0.70374   0.57432   0.75954   0.00000  Uiso   1.00
H1032  H     0.78669   0.37825   0.66087   0.00000  Uiso   1.00
N1033  N     0.83333   0.61736   0.75000   0.00000  Uiso   1.00
N1034  N     0.89998   0.46127   0.62021   0.00000  Uiso   1.00
N1035  N     0.83333   0.38264   0.75000   0.00000  Uiso   1.00
N1036  N     0.77949   0.38564   0.69335   0.00000  Uiso   1.00
N1037  N     0.88691   0.61449   0.80701   0.00000  Uiso   1.00
N1038  N     0.89479   0.37721   0.79990   0.00000  Uiso   1.00
N1039  N     0.78301   0.62301   0.68717   0.00000  Uiso   1.00
N1040  N     0.76401   0.53879   0.61550   0.00000  Uiso   1.00
N1041  N     0.85186   0.41589   0.88870   0.00000  Uiso   1.00
N1042  N     0.80583   0.58108   0.88246   0.00000  Uiso   1.00
O1043  O     0.77321   0.53958   0.74999   0.00000  Uiso   1.00
O1044  O     0.89345   0.46042   0.75000   0.00000  Uiso   1.00
O1045  O     0.89345   0.53958   0.75000   0.00000  Uiso   1.00
O1046  O     0.77321   0.46042   0.74999   0.00000  Uiso   1.00
O1047  O     0.83333   0.53959   0.68573   0.00000  Uiso   1.00
O1048  O     0.83334   0.46041   0.81427   0.00000  Uiso   1.00
O1049  O     0.83334   0.53959   0.81427   0.00000  Uiso   1.00
O1050  O     0.83333   0.46041   0.68573   0.00000  Uiso   1.00
C1051  C     0.08744   0.83347   0.74963   0.00000  Uiso   1.00
C1052  C     0.31190   0.87502   0.75460   0.00000  Uiso   1.00
C1053  C     0.31217   0.79207   0.74204   0.00000  Uiso   1.00
C1054  C     0.02117   0.87517   0.75463   0.00000  Uiso   1.00
C1055  C     0.13126   0.85320   0.54719   0.00000  Uiso   1.00
C1056  C     0.17380   0.79243   0.95524   0.00000  Uiso   1.00
C1057  C     0.15210   0.87284   0.95232   0.00000  Uiso   1.00
C1058  C     0.19774   0.81403   0.54950   0.00000  Uiso   1.00
C1059  C     0.13186   0.85369   0.59326   0.00000  Uiso   1.00
C1060  C     0.17419   0.79165   0.90924   0.00000  Uiso   1.00
C1061  C     0.15214   0.87301   0.90626   0.00000  Uiso   1.00
C1062  C     0.24589   0.83325   0.74962   0.00000  Uiso   1.00
C1063  C     0.19871   0.81425   0.59556   0.00000  Uiso   1.00
C1064  C     0.16580   0.83439   0.61740   0.00000  Uiso   1.00
C1065  C     0.16412   0.83244   0.88400   0.00000  Uiso   1.00
C1066  C     0.16411   0.83346   0.52522   0.00000  Uiso   1.00
C1067  C     0.16329   0.83291   0.97685   0.00000  Uiso   1.00
C1068  C     0.29054   0.83337   0.74879   0.00000  Uiso   1.00
C1069  C     0.04278   0.83363   0.74893   0.00000  Uiso   1.00
C1070  C     0.16630   0.83371   0.66532   0.00000  Uiso   1.00
C1071  C     0.16595   0.83297   0.83518   0.00000  Uiso   1.00
C1072  C     0.14023   0.69290   0.72263   0.00000  Uiso   1.00
C1073  C     0.19281   0.97382   0.77771   0.00000  Uiso   1.00
C1074  C     0.19426   0.68982   0.77640   0.00000  Uiso   1.00
C1075  C     0.14108   0.97695   0.72135   0.00000  Uiso   1.00
C1076  C     0.02143   0.79213   0.74245   0.00000  Uiso   1.00
Cu1077 Cu    0.16667   0.88022   0.75000   0.00000  Uiso   1.00
Cu1078 Cu    0.16667   0.78645   0.75000   0.00000  Uiso   1.00
H1079  H     0.10479   0.86746   0.52864   0.00000  Uiso   1.00
H1080  H     0.08279   0.70785   0.69842   0.00000  Uiso   1.00
H1081  H     0.21520   0.95812   0.83927   0.00000  Uiso   1.00
H1082  H     0.25049   0.95626   0.79965   0.00000  Uiso   1.00
H1083  H     0.25089   0.71775   0.77744   0.00000  Uiso   1.00
H1084  H     0.21938   0.74076   0.81495   0.00000  Uiso   1.00
H1085  H     0.09605   0.93222   0.69968   0.00000  Uiso   1.00
H1086  H     0.13527   0.94266   0.66357   0.00000  Uiso   1.00
H1087  H     0.09229   0.90627   0.60416   0.00000  Uiso   1.00
H1088  H     0.07138   0.85291   0.60628   0.00000  Uiso   1.00
H1089  H     0.16446   0.72363   0.89816   0.00000  Uiso   1.00
H1090  H     0.18161   0.76104   0.97415   0.00000  Uiso   1.00
H1091  H     0.21457   0.73916   0.90072   0.00000  Uiso   1.00
H1092  H     0.10902   0.92229   0.89096   0.00000  Uiso   1.00
H1093  H     0.15803   0.94162   0.89284   0.00000  Uiso   1.00
H1094  H     0.25981   0.81183   0.61049   0.00000  Uiso   1.00
H1095  H     0.23619   0.75979   0.61164   0.00000  Uiso   1.00
H1096  H     0.14370   0.90431   0.96894   0.00000  Uiso   1.00
H1097  H     0.22345   0.79911   0.53273   0.00000  Uiso   1.00
H1098  H     0.03750   0.75971   0.73755   0.00000  Uiso   1.00
H1099  H     0.29584   0.90747   0.75933   0.00000  Uiso   1.00
H1100  H     0.29635   0.75980   0.73616   0.00000  Uiso   1.00
H1101  H     0.03707   0.90765   0.75954   0.00000  Uiso   1.00
H1102  H     0.12003   0.71159   0.66087   0.00000  Uiso   1.00
N1103  N     0.16667   0.95069   0.75000   0.00000  Uiso   1.00
N1104  N     0.23332   0.79460   0.62021   0.00000  Uiso   1.00
N1105  N     0.16667   0.71598   0.75000   0.00000  Uiso   1.00
N1106  N     0.11283   0.71897   0.69335   0.00000  Uiso   1.00
N1107  N     0.22024   0.94783   0.80701   0.00000  Uiso   1.00
N1108  N     0.22813   0.71055   0.79990   0.00000  Uiso   1.00
N1109  N     0.11635   0.95634   0.68717   0.00000  Uiso   1.00
N1110  N     0.09734   0.87212   0.61550   0.00000  Uiso   1.00
N1111  N     0.18520   0.74923   0.88870   0.00000  Uiso   1.00
N1112  N     0.13916   0.91441   0.88246   0.00000  Uiso   1.00
O1113  O     0.10655   0.87291   0.74999   0.00000  Uiso   1.00
O1114  O     0.22679   0.79375   0.75000   0.00000  Uiso   1.00
O1115  O     0.22679   0.87291   0.75000   0.00000  Uiso   1.00
O1116  O     0.10655   0.79375   0.74999   0.00000  Uiso   1.00
O1117  O     0.16666   0.87293   0.68573   0.00000  Uiso   1.00
O1118  O     0.16667   0.79374   0.81427   0.00000  Uiso   1.00
O1119  O     0.16667   0.87293   0.81427   0.00000  Uiso   1.00
O1120  O     0.16666   0.79374   0.68573   0.00000  Uiso   1.00
C1121  C     0.42078   0.83347   0.74963   0.00000  Uiso   1.00
C1122  C     0.64524   0.87502   0.75460   0.00000  Uiso   1.00
C1123  C     0.64550   0.79207   0.74204   0.00000  Uiso   1.00
C1124  C     0.35450   0.87517   0.75463   0.00000  Uiso   1.00
C1125  C     0.46460   0.85320   0.54719   0.00000  Uiso   1.00
C1126  C     0.50713   0.79243   0.95524   0.00000  Uiso   1.00
C1127  C     0.48543   0.87284   0.95232   0.00000  Uiso   1.00
C1128  C     0.53108   0.81403   0.54950   0.00000  Uiso   1.00
C1129  C     0.46520   0.85369   0.59326   0.00000  Uiso   1.00
C1130  C     0.50753   0.79165   0.90924   0.00000  Uiso   1.00
C1131  C     0.48548   0.87301   0.90626   0.00000  Uiso   1.00
C1132  C     0.57922   0.83325   0.74962   0.00000  Uiso   1.00
C1133  C     0.53204   0.81425   0.59556   0.00000  Uiso   1.00
C1134  C     0.49913   0.83439   0.61740   0.00000  Uiso   1.00
C1135  C     0.49745   0.83244   0.88400   0.00000  Uiso   1.00
C1136  C     0.49745   0.83346   0.52522   0.00000  Uiso   1.00
C1137  C     0.49663   0.83291   0.97685   0.00000  Uiso   1.00
C1138  C     0.62388   0.83337   0.74879   0.00000  Uiso   1.00
C1139  C     0.37612   0.83363   0.74893   0.00000  Uiso   1.00
C1140  C     0.49963   0.83371   0.66532   0.00000  Uiso   1.00
C1141  C     0.49928   0.83297   0.83518   0.00000  Uiso   1.00
C1142  C     0.47356   0.69290   0.72263   0.00000  Uiso   1.00
C1143  C     0.52614   0.97382   0.77771   0.00000  Uiso   1.00
C1144  C     0.52759   0.68982   0.77640   0.00000  Uiso   1.00
C1145  C     0.47442   0.97695   0.72135   0.00000  Uiso   1.00
C1146  C     0.35476   0.79213   0.74245   0.00000  Uiso   1.00
Cu1147 Cu    0.50000   0.88022   0.75000   0.00000  Uiso   1.00
Cu1148 Cu    0.50000   0.78645   0.75000   0.00000  Uiso   1.00
H1149  H     0.43813   0.86746   0.52864   0.00000  Uiso   1.00
H1150  H     0.41612   0.70785   0.69842   0.00000  Uiso   1.00
H1151  H     0.54854   0.95812   0.83927   0.00000  Uiso   1.00
H1152  H     0.58382   0.95626   0.79965   0.00000  Uiso   1.00
H1153  H     0.58422   0.71775   0.77744   0.00000  Uiso   1.00
H1154  H     0.55272   0.74076   0.81495   0.00000  Uiso   1.00
H1155  H     0.42938   0.93222   0.69968   0.00000  Uiso   1.00
H1156  H     0.46861   0.94266   0.66357   0.00000  Uiso   1.00
H1157  H     0.42563   0.90627   0.60416   0.00000  Uiso   1.00
H1158  H     0.40472   0.85291   0.60628   0.00000  Uiso   1.00
H1159  H     0.49779   0.72363   0.89816   0.00000  Uiso   1.00
H1160  H     0.51494   0.76104   0.97415   0.00000  Uiso   1.00
H1161  H     0.54791   0.73916   0.90072   0.00000  Uiso   1.00
H1162  H     0.44235   0.92229   0.89096   0.00000  Uiso   1.00
H1163  H     0.49136   0.94162   0.89284   0.00000  Uiso   1.00
H1164  H     0.59314   0.81183   0.61049   0.00000  Uiso   1.00
H1165  H     0.56953   0.75979   0.61164   0.00000  Uiso   1.00
H1166  H     0.47703   0.90431   0.96894   0.00000  Uiso   1.00
H1167  H     0.55679   0.79911   0.53273   0.00000  Uiso   1.00
H1168  H     0.37084   0.75971   0.73755   0.00000  Uiso   1.00
H1169  H     0.62917   0.90747   0.75933   0.00000  Uiso   1.00
H1170  H     0.62968   0.75980   0.73616   0.00000  Uiso   1.00
H1171  H     0.37041   0.90765   0.75954   0.00000  Uiso   1.00
H1172  H     0.45336   0.71159   0.66087   0.00000  Uiso   1.00
N1173  N     0.50000   0.95069   0.75000   0.00000  Uiso   1.00
N1174  N     0.56665   0.79460   0.62021   0.00000  Uiso   1.00
N1175  N     0.50000   0.71598   0.75000   0.00000  Uiso   1.00
N1176  N     0.44616   0.71897   0.69335   0.00000  Uiso   1.00
N1177  N     0.55358   0.94783   0.80701   0.00000  Uiso   1.00
N1178  N     0.56146   0.71055   0.79990   0.00000  Uiso   1.00
N1179  N     0.44968   0.95634   0.68717   0.00000  Uiso   1.00
N1180  N     0.43068   0.87212   0.61550   0.00000  Uiso   1.00
N1181  N     0.51853   0.74923   0.88870   0.00000  Uiso   1.00
N1182  N     0.47249   0.91441   0.88246   0.00000  Uiso   1.00
O1183  O     0.43988   0.87291   0.74999   0.00000  Uiso   1.00
O1184  O     0.56012   0.79375   0.75000   0.00000  Uiso   1.00
O1185  O     0.56012   0.87291   0.75000   0.00000  Uiso   1.00
O1186  O     0.43988   0.79375   0.74999   0.00000  Uiso   1.00
O1187  O     0.50000   0.87293   0.68573   0.00000  Uiso   1.00
O1188  O     0.50000   0.79374   0.81427   0.00000  Uiso   1.00
O1189  O     0.50000   0.87293   0.81427   0.00000  Uiso   1.00
O1190  O     0.50000   0.79374   0.68573   0.00000  Uiso   1.00
C1191  C     0.75411   0.83347   0.74963   0.00000  Uiso   1.00
C1192  C     0.97857   0.87502   0.75460   0.00000  Uiso   1.00
C1193  C     0.97884   0.79207   0.74204   0.00000  Uiso   1.00
C1194  C     0.68783   0.87517   0.75463   0.00000  Uiso   1.00
C1195  C     0.79793   0.85320   0.54719   0.00000  Uiso   1.00
C1196  C     0.84047   0.79243   0.95524   0.00000  Uiso   1.00
C1197  C     0.81877   0.87284   0.95232   0.00000  Uiso   1.00
C1198  C     0.86441   0.81403   0.54950   0.00000  Uiso   1.00
C1199  C     0.79853   0.85369   0.59326   0.00000  Uiso   1.00
C1200  C     0.84086   0.79165   0.90924   0.00000  Uiso   1.00
C1201  C     0.81881   0.87301   0.90626   0.00000  Uiso   1.00
C1202  C     0.91256   0.83325   0.74962   0.00000  Uiso   1.00
C1203  C     0.86538   0.81425   0.59556   0.00000  Uiso   1.00
C1204  C     0.83247   0.83439   0.61740   0.00000  Uiso   1.00
C1205  C     0.83078   0.83244   0.88400   0.00000  Uiso   1.00
C1206  C     0.83078   0.83346   0.52522   0.00000  Uiso   1.00
C1207  C     0.82996   0.83291   0.97685   0.00000  Uiso   1.00
C1208  C     0.95721   0.83337   0.74879   0.00000  Uiso   1.00
C1209  C     0.70945   0.83363   0.74893   0.00000  Uiso   1.00
C1210  C     0.83296   0.83371   0.66532   0.00000  Uiso   1.00
C1211  C     0.83262   0.83297   0.83518   0.00000  Uiso   1.00
C1212  C     0.80690   0.69290   0.72263   0.00000  Uiso   1.00
C1213  C     0.85948   0.97382   0.77771   0.00000  Uiso   1.00
C1214  C     0.86093   0.68982   0.77640   0.00000  Uiso   1.00
C1215  C     0.80775   0.97695   0.72135   0.00000  Uiso   1.00
C1216  C     0.68809   0.79213   0.74245   0.00000  Uiso   1.00
Cu1217 Cu    0.83333   0.88022   0.75000   0.00000  Uiso   1.00
Cu1218 Cu    0.83333   0.78645   0.75000   0.00000  Uiso   1.00
H1219  H     0.77146   0.86746   0.52864   0.00000  Uiso   1.00
H1220  H     0.74945   0.70785   0.69842   0.00000  Uiso   1.00
H1221  H     0.88187   0.95812   0.83927   0.00000  Uiso   1.00
H1222  H     0.91716   0.95626   0.79965   0.00000  Uiso   1.00
H1223  H     0.91756   0.71775   0.77744   0.00000  Uiso   1.00
H1224  H     0.88605   0.74076   0.81495   0.00000  Uiso   1.00
H1225  H     0.76271   0.93222   0.69968   0.00000  Uiso   1.00
H1226  H     0.80194   0.94266   0.66357   0.00000  Uiso   1.00
H1227  H     0.75896   0.90627   0.60416   0.00000  Uiso   1.00
H1228  H     0.73805   0.85291   0.60628   0.00000  Uiso   1.00
H1229  H     0.83112   0.72363   0.89816   0.00000  Uiso   1.00
H1230  H     0.84827   0.76104   0.97415   0.00000  Uiso   1.00
H1231  H     0.88124   0.73916   0.90072   0.00000  Uiso   1.00
H1232  H     0.77569   0.92229   0.89096   0.00000  Uiso   1.00
H1233  H     0.82470   0.94162   0.89284   0.00000  Uiso   1.00
H1234  H     0.92647   0.81183   0.61049   0.00000  Uiso   1.00
H1235  H     0.90286   0.75979   0.61164   0.00000  Uiso   1.00
H1236  H     0.81036   0.90431   0.96894   0.00000  Uiso   1.00
H1237  H     0.89012   0.79911   0.53273   0.00000  Uiso   1.00
H1238  H     0.70417   0.75971   0.73755   0.00000  Uiso   1.00
H1239  H     0.96251   0.90747   0.75933   0.00000  Uiso   1.00
H1240  H     0.96301   0.75980   0.73616   0.00000  Uiso   1.00
H1241  H     0.70374   0.90765   0.75954   0.00000  Uiso   1.00
H1242  H     0.78669   0.71159   0.66087   0.00000  Uiso   1.00
N1243  N     0.83333   0.95069   0.75000   0.00000  Uiso   1.00
N1244  N     0.89998   0.79460   0.62021   0.00000  Uiso   1.00
N1245  N     0.83333   0.71598   0.75000   0.00000  Uiso   1.00
N1246  N     0.77949   0.71897   0.69335   0.00000  Uiso   1.00
N1247  N     0.88691   0.94783   0.80701   0.00000  Uiso   1.00
N1248  N     0.89479   0.71055   0.79990   0.00000  Uiso   1.00
N1249  N     0.78301   0.95634   0.68717   0.00000  Uiso   1.00
N1250  N     0.76401   0.87212   0.61550   0.00000  Uiso   1.00
N1251  N     0.85186   0.74923   0.88870   0.00000  Uiso   1.00
N1252  N     0.80583   0.91441   0.88246   0.00000  Uiso   1.00
O1253  O     0.77321   0.87291   0.74999   0.00000  Uiso   1.00
O1254  O     0.89345   0.79375   0.75000   0.00000  Uiso   1.00
O1255  O     0.89345   0.87291   0.75000   0.00000  Uiso   1.00
O1256  O     0.77321   0.79375   0.74999   0.00000  Uiso   1.00
O1257  O     0.83333   0.87293   0.68573   0.00000  Uiso   1.00
O1258  O     0.83334   0.79374   0.81427   0.00000  Uiso   1.00
O1259  O     0.83334   0.87293   0.81427   0.00000  Uiso   1.00
O1260  O     0.83333   0.79374   0.68573   0.00000  Uiso   1.00
loop_
_geom_bond_atom_site_label_1
_geom_bond_atom_site_label_2
_geom_bond_distance
_geom_bond_site_symmetry_2
_ccdc_geom_bond_type
C1     O66     1.297   .     A
C1     O63     1.299   .     A
C1     C19     1.450   .     S
C2     H49     1.082   .     S
C2     C18     1.402   .     A
C2     C74     1.384   .     S
C3     H50     1.081   .     S
C3     C18     1.399   .     A
C3     C96     1.383   .     S
C4     H51     1.083   .     S
C4     C19     1.400   .     A
C4     C142    1.384   1_455 S
C5     C9      1.395   .     A
C5     H29     1.084   .     S
C5     C16     1.401   .     A
C6     C10     1.395   .     A
C6     H40     1.084   .     S
C6     C17     1.395   .     A
C7     C11     1.396   .     A
C7     H46     1.084   .     S
C7     C17     1.396   .     A
C8     C13     1.395   .     A
C8     H47     1.084   .     S
C8     C16     1.401   .     A
C9     C14     1.406   .     A
C9     N60     1.433   .     S
C10    C15     1.419   .     A
C10    N61     1.431   .     S
C11    N62     1.434   .     S
C11    C15     1.420   .     A
C12    O65     1.296   .     A
C12    O64     1.301   .     A
C12    C18     1.452   .     S
C13    C14     1.405   .     A
C13    N54     1.433   .     S
C14    C20     1.451   .     S
C15    C21     1.482   .     S
C16    C647    1.465   1_554 S
C17    C646    1.465   .     S
C19    C26     1.401   .     A
C20    O67     1.299   .     A
C20    O70     1.296   .     A
C21    O68     1.307   .     A
C21    O69     1.304   .     A
C22    N56     1.431   .     S
C22    N55     1.360   .     A
C22    C445    1.421   1_545 S
C23    N53     1.361   .     A
C23    N57     1.431   .     S
C23    C234    1.422   .     S
C24    N55     1.387   .     A
C24    N58     1.430   .     S
C24    C443    1.422   1_545 S
C25    N53     1.389   .     A
C25    N59     1.430   .     S
C25    C232    1.421   .     S
C26    H48     1.082   .     S
C26    C143    1.383   1_455 S
Cu27   N53     2.031   .     S
Cu27   O65     1.963   .     S
Cu27   O69     1.955   .     S
Cu27   O63     1.966   .     S
Cu27   O67     1.963   .     S
Cu27   Cu28    2.702   .     S
Cu28   O66     1.963   .     S
Cu28   O68     1.963   .     S
Cu28   O64     1.966   .     S
Cu28   N55     2.031   .     S
Cu28   O70     1.955   .     S
H30    N56     1.045   .     S
H31    N57     1.045   .     S
H32    N57     1.045   .     S
H33    N58     1.042   .     S
H34    N58     1.033   .     S
H35    N59     1.038   .     S
H36    N59     1.041   .     S
H37    N60     1.045   .     S
H38    N60     1.045   .     S
H39    N61     1.046   .     S
H41    N61     1.046   .     S
H42    N62     1.046   .     S
H43    N62     1.046   .     S
H44    N54     1.046   .     S
H45    N54     1.045   .     S
H52    N56     1.046   .     S
C71    O136    1.297   .     A
C71    O133    1.299   .     A
C71    C89     1.450   .     S
C72    H119    1.082   .     S
C72    C88     1.402   .     A
C72    C144    1.384   .     S
C73    H120    1.081   .     S
C73    C88     1.399   .     A
C73    C166    1.383   .     S
C74    H121    1.083   .     S
C74    C89     1.400   .     A
C75    C79     1.395   .     A
C75    H99     1.084   .     S
C75    C86     1.401   .     A
C76    C80     1.395   .     A
C76    H110    1.084   .     S
C76    C87     1.395   .     A
C77    C81     1.396   .     A
C77    H116    1.084   .     S
C77    C87     1.396   .     A
C78    C83     1.395   .     A
C78    H117    1.084   .     S
C78    C86     1.401   .     A
C79    C84     1.406   .     A
C79    N130    1.433   .     S
C80    C85     1.419   .     A
C80    N131    1.431   .     S
C81    N132    1.434   .     S
C81    C85     1.420   .     A
C82    O135    1.296   .     A
C82    O134    1.301   .     A
C82    C88     1.452   .     S
C83    C84     1.405   .     A
C83    N124    1.433   .     S
C84    C90     1.451   .     S
C85    C91     1.482   .     S
C86    C717    1.465   1_554 S
C87    C716    1.465   .     S
C89    C96     1.401   .     A
C90    O137    1.299   .     A
C90    O140    1.296   .     A
C91    O138    1.307   .     A
C91    O139    1.304   .     A
C92    N126    1.431   .     S
C92    N125    1.360   .     A
C92    C515    1.421   1_545 S
C93    N123    1.361   .     A
C93    N127    1.431   .     S
C93    C304    1.422   .     S
C94    N125    1.387   .     A
C94    N128    1.430   .     S
C94    C513    1.422   1_545 S
C95    N123    1.389   .     A
C95    N129    1.430   .     S
C95    C302    1.421   .     S
C96    H118    1.082   .     S
Cu97   N123    2.031   .     S
Cu97   O135    1.963   .     S
Cu97   O139    1.955   .     S
Cu97   O133    1.966   .     S
Cu97   O137    1.963   .     S
Cu97   Cu98    2.702   .     S
Cu98   O136    1.963   .     S
Cu98   O138    1.963   .     S
Cu98   O134    1.966   .     S
Cu98   N125    2.031   .     S
Cu98   O140    1.955   .     S
H100   N126    1.045   .     S
H101   N127    1.045   .     S
H102   N127    1.045   .     S
H103   N128    1.042   .     S
H104   N128    1.033   .     S
H105   N129    1.038   .     S
H106   N129    1.041   .     S
H107   N130    1.045   .     S
H108   N130    1.045   .     S
H109   N131    1.046   .     S
H111   N131    1.046   .     S
H112   N132    1.046   .     S
H113   N132    1.046   .     S
H114   N124    1.046   .     S
H115   N124    1.045   .     S
H122   N126    1.046   .     S
C141   O206    1.297   .     A
C141   O203    1.299   .     A
C141   C159    1.450   .     S
C142   H189    1.082   .     S
C142   C158    1.402   .     A
C142   C4      1.384   1_655 S
C143   H190    1.081   .     S
C143   C158    1.399   .     A
C143   C26     1.383   1_655 S
C144   H191    1.083   .     S
C144   C159    1.400   .     A
C145   C149    1.395   .     A
C145   H169    1.084   .     S
C145   C156    1.401   .     A
C146   C150    1.395   .     A
C146   H180    1.084   .     S
C146   C157    1.395   .     A
C147   C151    1.396   .     A
C147   H186    1.084   .     S
C147   C157    1.396   .     A
C148   C153    1.395   .     A
C148   H187    1.084   .     S
C148   C156    1.401   .     A
C149   C154    1.406   .     A
C149   N200    1.433   .     S
C150   C155    1.419   .     A
C150   N201    1.431   .     S
C151   N202    1.434   .     S
C151   C155    1.420   .     A
C152   O205    1.296   .     A
C152   O204    1.301   .     A
C152   C158    1.452   .     S
C153   C154    1.405   .     A
C153   N194    1.433   .     S
C154   C160    1.451   .     S
C155   C161    1.482   .     S
C156   C787    1.465   1_554 S
C157   C786    1.465   .     S
C159   C166    1.401   .     A
C160   O207    1.299   .     A
C160   O210    1.296   .     A
C161   O208    1.307   .     A
C161   O209    1.304   .     A
C162   N196    1.431   .     S
C162   N195    1.360   .     A
C162   C585    1.421   1_545 S
C163   N193    1.361   .     A
C163   N197    1.431   .     S
C163   C374    1.422   .     S
C164   N195    1.387   .     A
C164   N198    1.430   .     S
C164   C583    1.422   1_545 S
C165   N193    1.389   .     A
C165   N199    1.430   .     S
C165   C372    1.421   .     S
C166   H188    1.082   .     S
Cu167  N193    2.031   .     S
Cu167  O205    1.963   .     S
Cu167  O209    1.955   .     S
Cu167  O203    1.966   .     S
Cu167  O207    1.963   .     S
Cu167  Cu168   2.702   .     S
Cu168  O206    1.963   .     S
Cu168  O208    1.963   .     S
Cu168  O204    1.966   .     S
Cu168  N195    2.031   .     S
Cu168  O210    1.955   .     S
H170   N196    1.045   .     S
H171   N197    1.045   .     S
H172   N197    1.045   .     S
H173   N198    1.042   .     S
H174   N198    1.033   .     S
H175   N199    1.038   .     S
H176   N199    1.041   .     S
H177   N200    1.045   .     S
H178   N200    1.045   .     S
H179   N201    1.046   .     S
H181   N201    1.046   .     S
H182   N202    1.046   .     S
H183   N202    1.046   .     S
H184   N194    1.046   .     S
H185   N194    1.045   .     S
H192   N196    1.046   .     S
C211   O276    1.297   .     A
C211   O273    1.299   .     A
C211   C229    1.450   .     S
C212   H259    1.082   .     S
C212   C228    1.402   .     A
C212   C284    1.384   .     S
C213   H260    1.081   .     S
C213   C228    1.399   .     A
C213   C306    1.383   .     S
C214   H261    1.083   .     S
C214   C229    1.400   .     A
C214   C352    1.384   1_455 S
C215   C219    1.395   .     A
C215   H239    1.084   .     S
C215   C226    1.401   .     A
C216   C220    1.395   .     A
C216   H250    1.084   .     S
C216   C227    1.395   .     A
C217   C221    1.396   .     A
C217   H256    1.084   .     S
C217   C227    1.396   .     A
C218   C223    1.395   .     A
C218   H257    1.084   .     S
C218   C226    1.401   .     A
C219   C224    1.406   .     A
C219   N270    1.433   .     S
C220   C225    1.419   .     A
C220   N271    1.431   .     S
C221   N272    1.434   .     S
C221   C225    1.420   .     A
C222   O275    1.296   .     A
C222   O274    1.301   .     A
C222   C228    1.452   .     S
C223   C224    1.405   .     A
C223   N264    1.433   .     S
C224   C230    1.451   .     S
C225   C231    1.482   .     S
C226   C857    1.465   1_554 S
C227   C856    1.465   .     S
C229   C236    1.401   .     A
C230   O277    1.299   .     A
C230   O280    1.296   .     A
C231   O278    1.307   .     A
C231   O279    1.304   .     A
C232   N266    1.431   .     S
C232   N265    1.360   .     A
C233   N263    1.361   .     A
C233   N267    1.431   .     S
C233   C444    1.422   .     S
C234   N265    1.387   .     A
C234   N268    1.430   .     S
C235   N263    1.389   .     A
C235   N269    1.430   .     S
C235   C442    1.421   .     S
C236   H258    1.082   .     S
C236   C353    1.383   1_455 S
Cu237  N263    2.031   .     S
Cu237  O275    1.963   .     S
Cu237  O279    1.955   .     S
Cu237  O273    1.966   .     S
Cu237  O277    1.963   .     S
Cu237  Cu238   2.702   .     S
Cu238  O276    1.963   .     S
Cu238  O278    1.963   .     S
Cu238  O274    1.966   .     S
Cu238  N265    2.031   .     S
Cu238  O280    1.955   .     S
H240   N266    1.045   .     S
H241   N267    1.045   .     S
H242   N267    1.045   .     S
H243   N268    1.042   .     S
H244   N268    1.033   .     S
H245   N269    1.038   .     S
H246   N269    1.041   .     S
H247   N270    1.045   .     S
H248   N270    1.045   .     S
H249   N271    1.046   .     S
H251   N271    1.046   .     S
H252   N272    1.046   .     S
H253   N272    1.046   .     S
H254   N264    1.046   .     S
H255   N264    1.045   .     S
H262   N266    1.046   .     S
C281   O346    1.297   .     A
C281   O343    1.299   .     A
C281   C299    1.450   .     S
C282   H329    1.082   .     S
C282   C298    1.402   .     A
C282   C354    1.384   .     S
C283   H330    1.081   .     S
C283   C298    1.399   .     A
C283   C376    1.383   .     S
C284   H331    1.083   .     S
C284   C299    1.400   .     A
C285   C289    1.395   .     A
C285   H309    1.084   .     S
C285   C296    1.401   .     A
C286   C290    1.395   .     A
C286   H320    1.084   .     S
C286   C297    1.395   .     A
C287   C291    1.396   .     A
C287   H326    1.084   .     S
C287   C297    1.396   .     A
C288   C293    1.395   .     A
C288   H327    1.084   .     S
C288   C296    1.401   .     A
C289   C294    1.406   .     A
C289   N340    1.433   .     S
C290   C295    1.419   .     A
C290   N341    1.431   .     S
C291   N342    1.434   .     S
C291   C295    1.420   .     A
C292   O345    1.296   .     A
C292   O344    1.301   .     A
C292   C298    1.452   .     S
C293   C294    1.405   .     A
C293   N334    1.433   .     S
C294   C300    1.451   .     S
C295   C301    1.482   .     S
C296   C927    1.465   1_554 S
C297   C926    1.465   .     S
C299   C306    1.401   .     A
C300   O347    1.299   .     A
C300   O350    1.296   .     A
C301   O348    1.307   .     A
C301   O349    1.304   .     A
C302   N336    1.431   .     S
C302   N335    1.360   .     A
C303   N333    1.361   .     A
C303   N337    1.431   .     S
C303   C514    1.422   .     S
C304   N335    1.387   .     A
C304   N338    1.430   .     S
C305   N333    1.389   .     A
C305   N339    1.430   .     S
C305   C512    1.421   .     S
C306   H328    1.082   .     S
Cu307  N333    2.031   .     S
Cu307  O345    1.963   .     S
Cu307  O349    1.955   .     S
Cu307  O343    1.966   .     S
Cu307  O347    1.963   .     S
Cu307  Cu308   2.702   .     S
Cu308  O346    1.963   .     S
Cu308  O348    1.963   .     S
Cu308  O344    1.966   .     S
Cu308  N335    2.031   .     S
Cu308  O350    1.955   .     S
H310   N336    1.045   .     S
H311   N337    1.045   .     S
H312   N337    1.045   .     S
H313   N338    1.042   .     S
H314   N338    1.033   .     S
H315   N339    1.038   .     S
H316   N339    1.041   .     S
H317   N340    1.045   .     S
H318   N340    1.045   .     S
H319   N341    1.046   .     S
H321   N341    1.046   .     S
H322   N342    1.046   .     S
H323   N342    1.046   .     S
H324   N334    1.046   .     S
H325   N334    1.045   .     S
H332   N336    1.046   .     S
C351   O416    1.297   .     A
C351   O413    1.299   .     A
C351   C369    1.450   .     S
C352   H399    1.082   .     S
C352   C368    1.402   .     A
C352   C214    1.384   1_655 S
C353   H400    1.081   .     S
C353   C368    1.399   .     A
C353   C236    1.383   1_655 S
C354   H401    1.083   .     S
C354   C369    1.400   .     A
C355   C359    1.395   .     A
C355   H379    1.084   .     S
C355   C366    1.401   .     A
C356   C360    1.395   .     A
C356   H390    1.084   .     S
C356   C367    1.395   .     A
C357   C361    1.396   .     A
C357   H396    1.084   .     S
C357   C367    1.396   .     A
C358   C363    1.395   .     A
C358   H397    1.084   .     S
C358   C366    1.401   .     A
C359   C364    1.406   .     A
C359   N410    1.433   .     S
C360   C365    1.419   .     A
C360   N411    1.431   .     S
C361   N412    1.434   .     S
C361   C365    1.420   .     A
C362   O415    1.296   .     A
C362   O414    1.301   .     A
C362   C368    1.452   .     S
C363   C364    1.405   .     A
C363   N404    1.433   .     S
C364   C370    1.451   .     S
C365   C371    1.482   .     S
C366   C997    1.465   1_554 S
C367   C996    1.465   .     S
C369   C376    1.401   .     A
C370   O417    1.299   .     A
C370   O420    1.296   .     A
C371   O418    1.307   .     A
C371   O419    1.304   .     A
C372   N406    1.431   .     S
C372   N405    1.360   .     A
C373   N403    1.361   .     A
C373   N407    1.431   .     S
C373   C584    1.422   .     S
C374   N405    1.387   .     A
C374   N408    1.430   .     S
C375   N403    1.389   .     A
C375   N409    1.430   .     S
C375   C582    1.421   .     S
C376   H398    1.082   .     S
Cu377  N403    2.031   .     S
Cu377  O415    1.963   .     S
Cu377  O419    1.955   .     S
Cu377  O413    1.966   .     S
Cu377  O417    1.963   .     S
Cu377  Cu378   2.702   .     S
Cu378  O416    1.963   .     S
Cu378  O418    1.963   .     S
Cu378  O414    1.966   .     S
Cu378  N405    2.031   .     S
Cu378  O420    1.955   .     S
H380   N406    1.045   .     S
H381   N407    1.045   .     S
H382   N407    1.045   .     S
H383   N408    1.042   .     S
H384   N408    1.033   .     S
H385   N409    1.038   .     S
H386   N409    1.041   .     S
H387   N410    1.045   .     S
H388   N410    1.045   .     S
H389   N411    1.046   .     S
H391   N411    1.046   .     S
H392   N412    1.046   .     S
H393   N412    1.046   .     S
H394   N404    1.046   .     S
H395   N404    1.045   .     S
H402   N406    1.046   .     S
C421   O486    1.297   .     A
C421   O483    1.299   .     A
C421   C439    1.450   .     S
C422   H469    1.082   .     S
C422   C438    1.402   .     A
C422   C494    1.384   .     S
C423   H470    1.081   .     S
C423   C438    1.399   .     A
C423   C516    1.383   .     S
C424   H471    1.083   .     S
C424   C439    1.400   .     A
C424   C562    1.384   1_455 S
C425   C429    1.395   .     A
C425   H449    1.084   .     S
C425   C436    1.401   .     A
C426   C430    1.395   .     A
C426   H460    1.084   .     S
C426   C437    1.395   .     A
C427   C431    1.396   .     A
C427   H466    1.084   .     S
C427   C437    1.396   .     A
C428   C433    1.395   .     A
C428   H467    1.084   .     S
C428   C436    1.401   .     A
C429   C434    1.406   .     A
C429   N480    1.433   .     S
C430   C435    1.419   .     A
C430   N481    1.431   .     S
C431   N482    1.434   .     S
C431   C435    1.420   .     A
C432   O485    1.296   .     A
C432   O484    1.301   .     A
C432   C438    1.452   .     S
C433   C434    1.405   .     A
C433   N474    1.433   .     S
C434   C440    1.451   .     S
C435   C441    1.482   .     S
C436   C1067   1.465   1_554 S
C437   C1066   1.465   .     S
C439   C446    1.401   .     A
C440   O487    1.299   .     A
C440   O490    1.296   .     A
C441   O488    1.307   .     A
C441   O489    1.304   .     A
C442   N476    1.431   .     S
C442   N475    1.360   .     A
C443   N473    1.361   .     A
C443   N477    1.431   .     S
C443   C24     1.422   1_565 S
C444   N475    1.387   .     A
C444   N478    1.430   .     S
C445   N473    1.389   .     A
C445   N479    1.430   .     S
C445   C22     1.421   1_565 S
C446   H468    1.082   .     S
C446   C563    1.383   1_455 S
Cu447  N473    2.031   .     S
Cu447  O485    1.963   .     S
Cu447  O489    1.955   .     S
Cu447  O483    1.966   .     S
Cu447  O487    1.963   .     S
Cu447  Cu448   2.702   .     S
Cu448  O486    1.963   .     S
Cu448  O488    1.963   .     S
Cu448  O484    1.966   .     S
Cu448  N475    2.031   .     S
Cu448  O490    1.955   .     S
H450   N476    1.045   .     S
H451   N477    1.045   .     S
H452   N477    1.045   .     S
H453   N478    1.042   .     S
H454   N478    1.033   .     S
H455   N479    1.038   .     S
H456   N479    1.041   .     S
H457   N480    1.045   .     S
H458   N480    1.045   .     S
H459   N481    1.046   .     S
H461   N481    1.046   .     S
H462   N482    1.046   .     S
H463   N482    1.046   .     S
H464   N474    1.046   .     S
H465   N474    1.045   .     S
H472   N476    1.046   .     S
C491   O556    1.297   .     A
C491   O553    1.299   .     A
C491   C509    1.450   .     S
C492   H539    1.082   .     S
C492   C508    1.402   .     A
C492   C564    1.384   .     S
C493   H540    1.081   .     S
C493   C508    1.399   .     A
C493   C586    1.383   .     S
C494   H541    1.083   .     S
C494   C509    1.400   .     A
C495   C499    1.395   .     A
C495   H519    1.084   .     S
C495   C506    1.401   .     A
C496   C500    1.395   .     A
C496   H530    1.084   .     S
C496   C507    1.395   .     A
C497   C501    1.396   .     A
C497   H536    1.084   .     S
C497   C507    1.396   .     A
C498   C503    1.395   .     A
C498   H537    1.084   .     S
C498   C506    1.401   .     A
C499   C504    1.406   .     A
C499   N550    1.433   .     S
C500   C505    1.419   .     A
C500   N551    1.431   .     S
C501   N552    1.434   .     S
C501   C505    1.420   .     A
C502   O555    1.296   .     A
C502   O554    1.301   .     A
C502   C508    1.452   .     S
C503   C504    1.405   .     A
C503   N544    1.433   .     S
C504   C510    1.451   .     S
C505   C511    1.482   .     S
C506   C1137   1.465   1_554 S
C507   C1136   1.465   .     S
C509   C516    1.401   .     A
C510   O557    1.299   .     A
C510   O560    1.296   .     A
C511   O558    1.307   .     A
C511   O559    1.304   .     A
C512   N546    1.431   .     S
C512   N545    1.360   .     A
C513   N543    1.361   .     A
C513   N547    1.431   .     S
C513   C94     1.422   1_565 S
C514   N545    1.387   .     A
C514   N548    1.430   .     S
C515   N543    1.389   .     A
C515   N549    1.430   .     S
C515   C92     1.421   1_565 S
C516   H538    1.082   .     S
Cu517  N543    2.031   .     S
Cu517  O555    1.963   .     S
Cu517  O559    1.955   .     S
Cu517  O553    1.966   .     S
Cu517  O557    1.963   .     S
Cu517  Cu518   2.702   .     S
Cu518  O556    1.963   .     S
Cu518  O558    1.963   .     S
Cu518  O554    1.966   .     S
Cu518  N545    2.031   .     S
Cu518  O560    1.955   .     S
H520   N546    1.045   .     S
H521   N547    1.045   .     S
H522   N547    1.045   .     S
H523   N548    1.042   .     S
H524   N548    1.033   .     S
H525   N549    1.038   .     S
H526   N549    1.041   .     S
H527   N550    1.045   .     S
H528   N550    1.045   .     S
H529   N551    1.046   .     S
H531   N551    1.046   .     S
H532   N552    1.046   .     S
H533   N552    1.046   .     S
H534   N544    1.046   .     S
H535   N544    1.045   .     S
H542   N546    1.046   .     S
C561   O626    1.297   .     A
C561   O623    1.299   .     A
C561   C579    1.450   .     S
C562   H609    1.082   .     S
C562   C578    1.402   .     A
C562   C424    1.384   1_655 S
C563   H610    1.081   .     S
C563   C578    1.399   .     A
C563   C446    1.383   1_655 S
C564   H611    1.083   .     S
C564   C579    1.400   .     A
C565   C569    1.395   .     A
C565   H589    1.084   .     S
C565   C576    1.401   .     A
C566   C570    1.395   .     A
C566   H600    1.084   .     S
C566   C577    1.395   .     A
C567   C571    1.396   .     A
C567   H606    1.084   .     S
C567   C577    1.396   .     A
C568   C573    1.395   .     A
C568   H607    1.084   .     S
C568   C576    1.401   .     A
C569   C574    1.406   .     A
C569   N620    1.433   .     S
C570   C575    1.419   .     A
C570   N621    1.431   .     S
C571   N622    1.434   .     S
C571   C575    1.420   .     A
C572   O625    1.296   .     A
C572   O624    1.301   .     A
C572   C578    1.452   .     S
C573   C574    1.405   .     A
C573   N614    1.433   .     S
C574   C580    1.451   .     S
C575   C581    1.482   .     S
C576   C1207   1.465   1_554 S
C577   C1206   1.465   .     S
C579   C586    1.401   .     A
C580   O627    1.299   .     A
C580   O630    1.296   .     A
C581   O628    1.307   .     A
C581   O629    1.304   .     A
C582   N616    1.431   .     S
C582   N615    1.360   .     A
C583   N613    1.361   .     A
C583   N617    1.431   .     S
C583   C164    1.422   1_565 S
C584   N615    1.387   .     A
C584   N618    1.430   .     S
C585   N613    1.389   .     A
C585   N619    1.430   .     S
C585   C162    1.421   1_565 S
C586   H608    1.082   .     S
Cu587  N613    2.031   .     S
Cu587  O625    1.963   .     S
Cu587  O629    1.955   .     S
Cu587  O623    1.966   .     S
Cu587  O627    1.963   .     S
Cu587  Cu588   2.702   .     S
Cu588  O626    1.963   .     S
Cu588  O628    1.963   .     S
Cu588  O624    1.966   .     S
Cu588  N615    2.031   .     S
Cu588  O630    1.955   .     S
H590   N616    1.045   .     S
H591   N617    1.045   .     S
H592   N617    1.045   .     S
H593   N618    1.042   .     S
H594   N618    1.033   .     S
H595   N619    1.038   .     S
H596   N619    1.041   .     S
H597   N620    1.045   .     S
H598   N620    1.045   .     S
H599   N621    1.046   .     S
H601   N621    1.046   .     S
H602   N622    1.046   .     S
H603   N622    1.046   .     S
H604   N614    1.046   .     S
H605   N614    1.045   .     S
H612   N616    1.046   .     S
C631   O696    1.297   .     A
C631   O693    1.299   .     A
C631   C649    1.450   .     S
C632   H679    1.082   .     S
C632   C648    1.402   .     A
C632   C704    1.384   .     S
C633   H680    1.081   .     S
C633   C648    1.399   .     A
C633   C726    1.383   .     S
C634   H681    1.083   .     S
C634   C649    1.400   .     A
C634   C772    1.384   1_455 S
C635   C639    1.395   .     A
C635   H659    1.084   .     S
C635   C646    1.401   .     A
C636   C640    1.395   .     A
C636   H670    1.084   .     S
C636   C647    1.395   .     A
C637   C641    1.396   .     A
C637   H676    1.084   .     S
C637   C647    1.396   .     A
C638   C643    1.395   .     A
C638   H677    1.084   .     S
C638   C646    1.401   .     A
C639   C644    1.406   .     A
C639   N690    1.433   .     S
C640   C645    1.419   .     A
C640   N691    1.431   .     S
C641   N692    1.434   .     S
C641   C645    1.420   .     A
C642   O695    1.296   .     A
C642   O694    1.301   .     A
C642   C648    1.452   .     S
C643   C644    1.405   .     A
C643   N684    1.433   .     S
C644   C650    1.451   .     S
C645   C651    1.482   .     S
C647   C16     1.465   1_556 S
C649   C656    1.401   .     A
C650   O697    1.299   .     A
C650   O700    1.296   .     A
C651   O698    1.307   .     A
C651   O699    1.304   .     A
C652   N686    1.431   .     S
C652   N685    1.360   .     A
C652   C1075   1.421   1_545 S
C653   N683    1.361   .     A
C653   N687    1.431   .     S
C653   C864    1.422   .     S
C654   N685    1.387   .     A
C654   N688    1.430   .     S
C654   C1073   1.422   1_545 S
C655   N683    1.389   .     A
C655   N689    1.430   .     S
C655   C862    1.421   .     S
C656   H678    1.082   .     S
C656   C773    1.383   1_455 S
Cu657  N683    2.031   .     S
Cu657  O695    1.963   .     S
Cu657  O699    1.955   .     S
Cu657  O693    1.966   .     S
Cu657  O697    1.963   .     S
Cu657  Cu658   2.702   .     S
Cu658  O696    1.963   .     S
Cu658  O698    1.963   .     S
Cu658  O694    1.966   .     S
Cu658  N685    2.031   .     S
Cu658  O700    1.955   .     S
H660   N686    1.045   .     S
H661   N687    1.045   .     S
H662   N687    1.045   .     S
H663   N688    1.042   .     S
H664   N688    1.033   .     S
H665   N689    1.038   .     S
H666   N689    1.041   .     S
H667   N690    1.045   .     S
H668   N690    1.045   .     S
H669   N691    1.046   .     S
H671   N691    1.046   .     S
H672   N692    1.046   .     S
H673   N692    1.046   .     S
H674   N684    1.046   .     S
H675   N684    1.045   .     S
H682   N686    1.046   .     S
C701   O766    1.297   .     A
C701   O763    1.299   .     A
C701   C719    1.450   .     S
C702   H749    1.082   .     S
C702   C718    1.402   .     A
C702   C774    1.384   .     S
C703   H750    1.081   .     S
C703   C718    1.399   .     A
C703   C796    1.383   .     S
C704   H751    1.083   .     S
C704   C719    1.400   .     A
C705   C709    1.395   .     A
C705   H729    1.084   .     S
C705   C716    1.401   .     A
C706   C710    1.395   .     A
C706   H740    1.084   .     S
C706   C717    1.395   .     A
C707   C711    1.396   .     A
C707   H746    1.084   .     S
C707   C717    1.396   .     A
C708   C713    1.395   .     A
C708   H747    1.084   .     S
C708   C716    1.401   .     A
C709   C714    1.406   .     A
C709   N760    1.433   .     S
C710   C715    1.419   .     A
C710   N761    1.431   .     S
C711   N762    1.434   .     S
C711   C715    1.420   .     A
C712   O765    1.296   .     A
C712   O764    1.301   .     A
C712   C718    1.452   .     S
C713   C714    1.405   .     A
C713   N754    1.433   .     S
C714   C720    1.451   .     S
C715   C721    1.482   .     S
C717   C86     1.465   1_556 S
C719   C726    1.401   .     A
C720   O767    1.299   .     A
C720   O770    1.296   .     A
C721   O768    1.307   .     A
C721   O769    1.304   .     A
C722   N756    1.431   .     S
C722   N755    1.360   .     A
C722   C1145   1.421   1_545 S
C723   N753    1.361   .     A
C723   N757    1.431   .     S
C723   C934    1.422   .     S
C724   N755    1.387   .     A
C724   N758    1.430   .     S
C724   C1143   1.422   1_545 S
C725   N753    1.389   .     A
C725   N759    1.430   .     S
C725   C932    1.421   .     S
C726   H748    1.082   .     S
Cu727  N753    2.031   .     S
Cu727  O765    1.963   .     S
Cu727  O769    1.955   .     S
Cu727  O763    1.966   .     S
Cu727  O767    1.963   .     S
Cu727  Cu728   2.702   .     S
Cu728  O766    1.963   .     S
Cu728  O768    1.963   .     S
Cu728  O764    1.966   .     S
Cu728  N755    2.031   .     S
Cu728  O770    1.955   .     S
H730   N756    1.045   .     S
H731   N757    1.045   .     S
H732   N757    1.045   .     S
H733   N758    1.042   .     S
H734   N758    1.033   .     S
H735   N759    1.038   .     S
H736   N759    1.041   .     S
H737   N760    1.045   .     S
H738   N760    1.045   .     S
H739   N761    1.046   .     S
H741   N761    1.046   .     S
H742   N762    1.046   .     S
H743   N762    1.046   .     S
H744   N754    1.046   .     S
H745   N754    1.045   .     S
H752   N756    1.046   .     S
C771   O836    1.297   .     A
C771   O833    1.299   .     A
C771   C789    1.450   .     S
C772   H819    1.082   .     S
C772   C788    1.402   .     A
C772   C634    1.384   1_655 S
C773   H820    1.081   .     S
C773   C788    1.399   .     A
C773   C656    1.383   1_655 S
C774   H821    1.083   .     S
C774   C789    1.400   .     A
C775   C779    1.395   .     A
C775   H799    1.084   .     S
C775   C786    1.401   .     A
C776   C780    1.395   .     A
C776   H810    1.084   .     S
C776   C787    1.395   .     A
C777   C781    1.396   .     A
C777   H816    1.084   .     S
C777   C787    1.396   .     A
C778   C783    1.395   .     A
C778   H817    1.084   .     S
C778   C786    1.401   .     A
C779   C784    1.406   .     A
C779   N830    1.433   .     S
C780   C785    1.419   .     A
C780   N831    1.431   .     S
C781   N832    1.434   .     S
C781   C785    1.420   .     A
C782   O835    1.296   .     A
C782   O834    1.301   .     A
C782   C788    1.452   .     S
C783   C784    1.405   .     A
C783   N824    1.433   .     S
C784   C790    1.451   .     S
C785   C791    1.482   .     S
C787   C156    1.465   1_556 S
C789   C796    1.401   .     A
C790   O837    1.299   .     A
C790   O840    1.296   .     A
C791   O838    1.307   .     A
C791   O839    1.304   .     A
C792   N826    1.431   .     S
C792   N825    1.360   .     A
C792   C1215   1.421   1_545 S
C793   N823    1.361   .     A
C793   N827    1.431   .     S
C793   C1004   1.422   .     S
C794   N825    1.387   .     A
C794   N828    1.430   .     S
C794   C1213   1.422   1_545 S
C795   N823    1.389   .     A
C795   N829    1.430   .     S
C795   C1002   1.421   .     S
C796   H818    1.082   .     S
Cu797  N823    2.031   .     S
Cu797  O835    1.963   .     S
Cu797  O839    1.955   .     S
Cu797  O833    1.966   .     S
Cu797  O837    1.963   .     S
Cu797  Cu798   2.702   .     S
Cu798  O836    1.963   .     S
Cu798  O838    1.963   .     S
Cu798  O834    1.966   .     S
Cu798  N825    2.031   .     S
Cu798  O840    1.955   .     S
H800   N826    1.045   .     S
H801   N827    1.045   .     S
H802   N827    1.045   .     S
H803   N828    1.042   .     S
H804   N828    1.033   .     S
H805   N829    1.038   .     S
H806   N829    1.041   .     S
H807   N830    1.045   .     S
H808   N830    1.045   .     S
H809   N831    1.046   .     S
H811   N831    1.046   .     S
H812   N832    1.046   .     S
H813   N832    1.046   .     S
H814   N824    1.046   .     S
H815   N824    1.045   .     S
H822   N826    1.046   .     S
C841   O906    1.297   .     A
C841   O903    1.299   .     A
C841   C859    1.450   .     S
C842   H889    1.082   .     S
C842   C858    1.402   .     A
C842   C914    1.384   .     S
C843   H890    1.081   .     S
C843   C858    1.399   .     A
C843   C936    1.383   .     S
C844   H891    1.083   .     S
C844   C859    1.400   .     A
C844   C982    1.384   1_455 S
C845   C849    1.395   .     A
C845   H869    1.084   .     S
C845   C856    1.401   .     A
C846   C850    1.395   .     A
C846   H880    1.084   .     S
C846   C857    1.395   .     A
C847   C851    1.396   .     A
C847   H886    1.084   .     S
C847   C857    1.396   .     A
C848   C853    1.395   .     A
C848   H887    1.084   .     S
C848   C856    1.401   .     A
C849   C854    1.406   .     A
C849   N900    1.433   .     S
C850   C855    1.419   .     A
C850   N901    1.431   .     S
C851   N902    1.434   .     S
C851   C855    1.420   .     A
C852   O905    1.296   .     A
C852   O904    1.301   .     A
C852   C858    1.452   .     S
C853   C854    1.405   .     A
C853   N894    1.433   .     S
C854   C860    1.451   .     S
C855   C861    1.482   .     S
C857   C226    1.465   1_556 S
C859   C866    1.401   .     A
C860   O907    1.299   .     A
C860   O910    1.296   .     A
C861   O908    1.307   .     A
C861   O909    1.304   .     A
C862   N896    1.431   .     S
C862   N895    1.360   .     A
C863   N893    1.361   .     A
C863   N897    1.431   .     S
C863   C1074   1.422   .     S
C864   N895    1.387   .     A
C864   N898    1.430   .     S
C865   N893    1.389   .     A
C865   N899    1.430   .     S
C865   C1072   1.421   .     S
C866   H888    1.082   .     S
C866   C983    1.383   1_455 S
Cu867  N893    2.031   .     S
Cu867  O905    1.963   .     S
Cu867  O909    1.955   .     S
Cu867  O903    1.966   .     S
Cu867  O907    1.963   .     S
Cu867  Cu868   2.702   .     S
Cu868  O906    1.963   .     S
Cu868  O908    1.963   .     S
Cu868  O904    1.966   .     S
Cu868  N895    2.031   .     S
Cu868  O910    1.955   .     S
H870   N896    1.045   .     S
H871   N897    1.045   .     S
H872   N897    1.045   .     S
H873   N898    1.042   .     S
H874   N898    1.033   .     S
H875   N899    1.038   .     S
H876   N899    1.041   .     S
H877   N900    1.045   .     S
H878   N900    1.045   .     S
H879   N901    1.046   .     S
H881   N901    1.046   .     S
H882   N902    1.046   .     S
H883   N902    1.046   .     S
H884   N894    1.046   .     S
H885   N894    1.045   .     S
H892   N896    1.046   .     S
C911   O976    1.297   .     A
C911   O973    1.299   .     A
C911   C929    1.450   .     S
C912   H959    1.082   .     S
C912   C928    1.402   .     A
C912   C984    1.384   .     S
C913   H960    1.081   .     S
C913   C928    1.399   .     A
C913   C1006   1.383   .     S
C914   H961    1.083   .     S
C914   C929    1.400   .     A
C915   C919    1.395   .     A
C915   H939    1.084   .     S
C915   C926    1.401   .     A
C916   C920    1.395   .     A
C916   H950    1.084   .     S
C916   C927    1.395   .     A
C917   C921    1.396   .     A
C917   H956    1.084   .     S
C917   C927    1.396   .     A
C918   C923    1.395   .     A
C918   H957    1.084   .     S
C918   C926    1.401   .     A
C919   C924    1.406   .     A
C919   N970    1.433   .     S
C920   C925    1.419   .     A
C920   N971    1.431   .     S
C921   N972    1.434   .     S
C921   C925    1.420   .     A
C922   O975    1.296   .     A
C922   O974    1.301   .     A
C922   C928    1.452   .     S
C923   C924    1.405   .     A
C923   N964    1.433   .     S
C924   C930    1.451   .     S
C925   C931    1.482   .     S
C927   C296    1.465   1_556 S
C929   C936    1.401   .     A
C930   O977    1.299   .     A
C930   O980    1.296   .     A
C931   O978    1.307   .     A
C931   O979    1.304   .     A
C932   N966    1.431   .     S
C932   N965    1.360   .     A
C933   N963    1.361   .     A
C933   N967    1.431   .     S
C933   C1144   1.422   .     S
C934   N965    1.387   .     A
C934   N968    1.430   .     S
C935   N963    1.389   .     A
C935   N969    1.430   .     S
C935   C1142   1.421   .     S
C936   H958    1.082   .     S
Cu937  N963    2.031   .     S
Cu937  O975    1.963   .     S
Cu937  O979    1.955   .     S
Cu937  O973    1.966   .     S
Cu937  O977    1.963   .     S
Cu937  Cu938   2.702   .     S
Cu938  O976    1.963   .     S
Cu938  O978    1.963   .     S
Cu938  O974    1.966   .     S
Cu938  N965    2.031   .     S
Cu938  O980    1.955   .     S
H940   N966    1.045   .     S
H941   N967    1.045   .     S
H942   N967    1.045   .     S
H943   N968    1.042   .     S
H944   N968    1.033   .     S
H945   N969    1.038   .     S
H946   N969    1.041   .     S
H947   N970    1.045   .     S
H948   N970    1.045   .     S
H949   N971    1.046   .     S
H951   N971    1.046   .     S
H952   N972    1.046   .     S
H953   N972    1.046   .     S
H954   N964    1.046   .     S
H955   N964    1.045   .     S
H962   N966    1.046   .     S
C981   O1046   1.297   .     A
C981   O1043   1.299   .     A
C981   C999    1.450   .     S
C982   H1029   1.082   .     S
C982   C998    1.402   .     A
C982   C844    1.384   1_655 S
C983   H1030   1.081   .     S
C983   C998    1.399   .     A
C983   C866    1.383   1_655 S
C984   H1031   1.083   .     S
C984   C999    1.400   .     A
C985   C989    1.395   .     A
C985   H1009   1.084   .     S
C985   C996    1.401   .     A
C986   C990    1.395   .     A
C986   H1020   1.084   .     S
C986   C997    1.395   .     A
C987   C991    1.396   .     A
C987   H1026   1.084   .     S
C987   C997    1.396   .     A
C988   C993    1.395   .     A
C988   H1027   1.084   .     S
C988   C996    1.401   .     A
C989   C994    1.406   .     A
C989   N1040   1.433   .     S
C990   C995    1.419   .     A
C990   N1041   1.431   .     S
C991   N1042   1.434   .     S
C991   C995    1.420   .     A
C992   O1045   1.296   .     A
C992   O1044   1.301   .     A
C992   C998    1.452   .     S
C993   C994    1.405   .     A
C993   N1034   1.433   .     S
C994   C1000   1.451   .     S
C995   C1001   1.482   .     S
C997   C366    1.465   1_556 S
C999   C1006   1.401   .     A
C1000  O1047   1.299   .     A
C1000  O1050   1.296   .     A
C1001  O1048   1.307   .     A
C1001  O1049   1.304   .     A
C1002  N1036   1.431   .     S
C1002  N1035   1.360   .     A
C1003  N1033   1.361   .     A
C1003  N1037   1.431   .     S
C1003  C1214   1.422   .     S
C1004  N1035   1.387   .     A
C1004  N1038   1.430   .     S
C1005  N1033   1.389   .     A
C1005  N1039   1.430   .     S
C1005  C1212   1.421   .     S
C1006  H1028   1.082   .     S
Cu1007 N1033   2.031   .     S
Cu1007 O1045   1.963   .     S
Cu1007 O1049   1.955   .     S
Cu1007 O1043   1.966   .     S
Cu1007 O1047   1.963   .     S
Cu1007 Cu1008  2.702   .     S
Cu1008 O1046   1.963   .     S
Cu1008 O1048   1.963   .     S
Cu1008 O1044   1.966   .     S
Cu1008 N1035   2.031   .     S
Cu1008 O1050   1.955   .     S
H1010  N1036   1.045   .     S
H1011  N1037   1.045   .     S
H1012  N1037   1.045   .     S
H1013  N1038   1.042   .     S
H1014  N1038   1.033   .     S
H1015  N1039   1.038   .     S
H1016  N1039   1.041   .     S
H1017  N1040   1.045   .     S
H1018  N1040   1.045   .     S
H1019  N1041   1.046   .     S
H1021  N1041   1.046   .     S
H1022  N1042   1.046   .     S
H1023  N1042   1.046   .     S
H1024  N1034   1.046   .     S
H1025  N1034   1.045   .     S
H1032  N1036   1.046   .     S
C1051  O1116   1.297   .     A
C1051  O1113   1.299   .     A
C1051  C1069   1.450   .     S
C1052  H1099   1.082   .     S
C1052  C1068   1.402   .     A
C1052  C1124   1.384   .     S
C1053  H1100   1.081   .     S
C1053  C1068   1.399   .     A
C1053  C1146   1.383   .     S
C1054  H1101   1.083   .     S
C1054  C1069   1.400   .     A
C1054  C1192   1.384   1_455 S
C1055  C1059   1.395   .     A
C1055  H1079   1.084   .     S
C1055  C1066   1.401   .     A
C1056  C1060   1.395   .     A
C1056  H1090   1.084   .     S
C1056  C1067   1.395   .     A
C1057  C1061   1.396   .     A
C1057  H1096   1.084   .     S
C1057  C1067   1.396   .     A
C1058  C1063   1.395   .     A
C1058  H1097   1.084   .     S
C1058  C1066   1.401   .     A
C1059  C1064   1.406   .     A
C1059  N1110   1.433   .     S
C1060  C1065   1.419   .     A
C1060  N1111   1.431   .     S
C1061  N1112   1.434   .     S
C1061  C1065   1.420   .     A
C1062  O1115   1.296   .     A
C1062  O1114   1.301   .     A
C1062  C1068   1.452   .     S
C1063  C1064   1.405   .     A
C1063  N1104   1.433   .     S
C1064  C1070   1.451   .     S
C1065  C1071   1.482   .     S
C1067  C436    1.465   1_556 S
C1069  C1076   1.401   .     A
C1070  O1117   1.299   .     A
C1070  O1120   1.296   .     A
C1071  O1118   1.307   .     A
C1071  O1119   1.304   .     A
C1072  N1106   1.431   .     S
C1072  N1105   1.360   .     A
C1073  N1103   1.361   .     A
C1073  N1107   1.431   .     S
C1073  C654    1.422   1_565 S
C1074  N1105   1.387   .     A
C1074  N1108   1.430   .     S
C1075  N1103   1.389   .     A
C1075  N1109   1.430   .     S
C1075  C652    1.421   1_565 S
C1076  H1098   1.082   .     S
C1076  C1193   1.383   1_455 S
Cu1077 N1103   2.031   .     S
Cu1077 O1115   1.963   .     S
Cu1077 O1119   1.955   .     S
Cu1077 O1113   1.966   .     S
Cu1077 O1117   1.963   .     S
Cu1077 Cu1078  2.702   .     S
Cu1078 O1116   1.963   .     S
Cu1078 O1118   1.963   .     S
Cu1078 O1114   1.966   .     S
Cu1078 N1105   2.031   .     S
Cu1078 O1120   1.955   .     S
H1080  N1106   1.045   .     S
H1081  N1107   1.045   .     S
H1082  N1107   1.045   .     S
H1083  N1108   1.042   .     S
H1084  N1108   1.033   .     S
H1085  N1109   1.038   .     S
H1086  N1109   1.041   .     S
H1087  N1110   1.045   .     S
H1088  N1110   1.045   .     S
H1089  N1111   1.046   .     S
H1091  N1111   1.046   .     S
H1092  N1112   1.046   .     S
H1093  N1112   1.046   .     S
H1094  N1104   1.046   .     S
H1095  N1104   1.045   .     S
H1102  N1106   1.046   .     S
C1121  O1186   1.297   .     A
C1121  O1183   1.299   .     A
C1121  C1139   1.450   .     S
C1122  H1169   1.082   .     S
C1122  C1138   1.402   .     A
C1122  C1194   1.384   .     S
C1123  H1170   1.081   .     S
C1123  C1138   1.399   .     A
C1123  C1216   1.383   .     S
C1124  H1171   1.083   .     S
C1124  C1139   1.400   .     A
C1125  C1129   1.395   .     A
C1125  H1149   1.084   .     S
C1125  C1136   1.401   .     A
C1126  C1130   1.395   .     A
C1126  H1160   1.084   .     S
C1126  C1137   1.395   .     A
C1127  C1131   1.396   .     A
C1127  H1166   1.084   .     S
C1127  C1137   1.396   .     A
C1128  C1133   1.395   .     A
C1128  H1167   1.084   .     S
C1128  C1136   1.401   .     A
C1129  C1134   1.406   .     A
C1129  N1180   1.433   .     S
C1130  C1135   1.419   .     A
C1130  N1181   1.431   .     S
C1131  N1182   1.434   .     S
C1131  C1135   1.420   .     A
C1132  O1185   1.296   .     A
C1132  O1184   1.301   .     A
C1132  C1138   1.452   .     S
C1133  C1134   1.405   .     A
C1133  N1174   1.433   .     S
C1134  C1140   1.451   .     S
C1135  C1141   1.482   .     S
C1137  C506    1.465   1_556 S
C1139  C1146   1.401   .     A
C1140  O1187   1.299   .     A
C1140  O1190   1.296   .     A
C1141  O1188   1.307   .     A
C1141  O1189   1.304   .     A
C1142  N1176   1.431   .     S
C1142  N1175   1.360   .     A
C1143  N1173   1.361   .     A
C1143  N1177   1.431   .     S
C1143  C724    1.422   1_565 S
C1144  N1175   1.387   .     A
C1144  N1178   1.430   .     S
C1145  N1173   1.389   .     A
C1145  N1179   1.430   .     S
C1145  C722    1.421   1_565 S
C1146  H1168   1.082   .     S
Cu1147 N1173   2.031   .     S
Cu1147 O1185   1.963   .     S
Cu1147 O1189   1.955   .     S
Cu1147 O1183   1.966   .     S
Cu1147 O1187   1.963   .     S
Cu1147 Cu1148  2.702   .     S
Cu1148 O1186   1.963   .     S
Cu1148 O1188   1.963   .     S
Cu1148 O1184   1.966   .     S
Cu1148 N1175   2.031   .     S
Cu1148 O1190   1.955   .     S
H1150  N1176   1.045   .     S
H1151  N1177   1.045   .     S
H1152  N1177   1.045   .     S
H1153  N1178   1.042   .     S
H1154  N1178   1.033   .     S
H1155  N1179   1.038   .     S
H1156  N1179   1.041   .     S
H1157  N1180   1.045   .     S
H1158  N1180   1.045   .     S
H1159  N1181   1.046   .     S
H1161  N1181   1.046   .     S
H1162  N1182   1.046   .     S
H1163  N1182   1.046   .     S
H1164  N1174   1.046   .     S
H1165  N1174   1.045   .     S
H1172  N1176   1.046   .     S
C1191  O1256   1.297   .     A
C1191  O1253   1.299   .     A
C1191  C1209   1.450   .     S
C1192  H1239   1.082   .     S
C1192  C1208   1.402   .     A
C1192  C1054   1.384   1_655 S
C1193  H1240   1.081   .     S
C1193  C1208   1.399   .     A
C1193  C1076   1.383   1_655 S
C1194  H1241   1.083   .     S
C1194  C1209   1.400   .     A
C1195  C1199   1.395   .     A
C1195  H1219   1.084   .     S
C1195  C1206   1.401   .     A
C1196  C1200   1.395   .     A
C1196  H1230   1.084   .     S
C1196  C1207   1.395   .     A
C1197  C1201   1.396   .     A
C1197  H1236   1.084   .     S
C1197  C1207   1.396   .     A
C1198  C1203   1.395   .     A
C1198  H1237   1.084   .     S
C1198  C1206   1.401   .     A
C1199  C1204   1.406   .     A
C1199  N1250   1.433   .     S
C1200  C1205   1.419   .     A
C1200  N1251   1.431   .     S
C1201  N1252   1.434   .     S
C1201  C1205   1.420   .     A
C1202  O1255   1.296   .     A
C1202  O1254   1.301   .     A
C1202  C1208   1.452   .     S
C1203  C1204   1.405   .     A
C1203  N1244   1.433   .     S
C1204  C1210   1.451   .     S
C1205  C1211   1.482   .     S
C1207  C576    1.465   1_556 S
C1209  C1216   1.401   .     A
C1210  O1257   1.299   .     A
C1210  O1260   1.296   .     A
C1211  O1258   1.307   .     A
C1211  O1259   1.304   .     A
C1212  N1246   1.431   .     S
C1212  N1245   1.360   .     A
C1213  N1243   1.361   .     A
C1213  N1247   1.431   .     S
C1213  C794    1.422   1_565 S
C1214  N1245   1.387   .     A
C1214  N1248   1.430   .     S
C1215  N1243   1.389   .     A
C1215  N1249   1.430   .     S
C1215  C792    1.421   1_565 S
C1216  H1238   1.082   .     S
Cu1217 N1243   2.031   .     S
Cu1217 O1255   1.963   .     S
Cu1217 O1259   1.955   .     S
Cu1217 O1253   1.966   .     S
Cu1217 O1257   1.963   .     S
Cu1217 Cu1218  2.702   .     S
Cu1218 O1256   1.963   .     S
Cu1218 O1258   1.963   .     S
Cu1218 O1254   1.966   .     S
Cu1218 N1245   2.031   .     S
Cu1218 O1260   1.955   .     S
H1220  N1246   1.045   .     S
H1221  N1247   1.045   .     S
H1222  N1247   1.045   .     S
H1223  N1248   1.042   .     S
H1224  N1248   1.033   .     S
H1225  N1249   1.038   .     S
H1226  N1249   1.041   .     S
H1227  N1250   1.045   .     S
H1228  N1250   1.045   .     S
H1229  N1251   1.046   .     S
H1231  N1251   1.046   .     S
H1232  N1252   1.046   .     S
H1233  N1252   1.046   .     S
H1234  N1244   1.046   .     S
H1235  N1244   1.045   .     S
H1242  N1246   1.046   .     S
