data_str_m3_o1_o1_pcu_sym.6
_audit_creation_date              2020-01-03
_audit_creation_method            'Materials Studio'
_symmetry_space_group_name_H-M    'P1'
_symmetry_Int_Tables_number       1
_symmetry_cell_setting            triclinic
loop_
_symmetry_equiv_pos_as_xyz
  x,y,z
_cell_length_a                    31.1348
_cell_length_b                    29.9133
_cell_length_c                    29.8889
_cell_angle_alpha                 89.7348
_cell_angle_beta                  88.9297
_cell_angle_gamma                 89.7754
loop_
_atom_site_label
_atom_site_type_symbol
_atom_site_fract_x
_atom_site_fract_y
_atom_site_fract_z
_atom_site_U_iso_or_equiv
_atom_site_adp_type
_atom_site_occupancy
C1     C     0.05989   0.19010   0.16650   0.00000  Uiso   1.00
C2     C     0.48781   0.21290   0.30971   0.00000  Uiso   1.00
C3     C     0.48436   0.21412   0.02440   0.00000  Uiso   1.00
C4     C     0.01203   0.28717   0.30896   0.00000  Uiso   1.00
C5     C     0.26137   0.03720   0.02349   0.00000  Uiso   1.00
C6     C     0.23781   0.46290   0.30971   0.00000  Uiso   1.00
C7     C     0.23436   0.46412   0.02440   0.00000  Uiso   1.00
C8     C     0.26204   0.03717   0.30896   0.00000  Uiso   1.00
C9     C     0.37356   0.16168   0.13981   0.00000  Uiso   1.00
C10    C     0.12593   0.34058   0.20043   0.00000  Uiso   1.00
C11    C     0.09805   0.37469   0.13239   0.00000  Uiso   1.00
C12    C     0.43889   0.30868   0.16698   0.00000  Uiso   1.00
C13    C     0.41147   0.11921   0.19641   0.00000  Uiso   1.00
C14    C     0.12049   0.15375   0.20229   0.00000  Uiso   1.00
C15    C     0.37591   0.34186   0.13129   0.00000  Uiso   1.00
C16    C     0.39716   0.36714   0.20524   0.00000  Uiso   1.00
C17    C     0.09282   0.12358   0.13265   0.00000  Uiso   1.00
C18    C     0.12356   0.41169   0.13981   0.00000  Uiso   1.00
C19    C     0.37593   0.09058   0.20043   0.00000  Uiso   1.00
C20    C     0.34805   0.12468   0.13239   0.00000  Uiso   1.00
C21    C     0.16147   0.36921   0.19642   0.00000  Uiso   1.00
C22    C     0.37047   0.40373   0.20230   0.00000  Uiso   1.00
C23    C     0.44072   0.18969   0.16714   0.00000  Uiso   1.00
C24    C     0.12591   0.09185   0.13130   0.00000  Uiso   1.00
C25    C     0.14718   0.11716   0.20523   0.00000  Uiso   1.00
C26    C     0.34282   0.37358   0.13265   0.00000  Uiso   1.00
C27    C     0.09543   0.34159   0.16599   0.00000  Uiso   1.00
C28    C     0.40793   0.15665   0.16836   0.00000  Uiso   1.00
C29    C     0.40364   0.33982   0.16771   0.00000  Uiso   1.00
C30    C     0.09230   0.15617   0.16642   0.00000  Uiso   1.00
C31    C     0.34543   0.09159   0.16599   0.00000  Uiso   1.00
C32    C     0.15793   0.40666   0.16836   0.00000  Uiso   1.00
C33    C     0.15365   0.08983   0.16771   0.00000  Uiso   1.00
C34    C     0.06064   0.30953   0.16634   0.00000  Uiso   1.00
C35    C     0.34230   0.40617   0.16642   0.00000  Uiso   1.00
C36    C     0.48801   0.35261   0.05560   0.00000  Uiso   1.00
C37    C     0.01702   0.14827   0.28236   0.00000  Uiso   1.00
C38    C     0.46906   0.14069   0.04377   0.00000  Uiso   1.00
C39    C     0.00516   0.35924   0.28203   0.00000  Uiso   1.00
C40    C     0.23801   0.10260   0.05561   0.00000  Uiso   1.00
C41    C     0.26701   0.39826   0.28237   0.00000  Uiso   1.00
C42    C     0.21905   0.39069   0.04377   0.00000  Uiso   1.00
C43    C     0.25520   0.10926   0.28206   0.00000  Uiso   1.00
C44    C     0.32996   0.22203   0.13031   0.00000  Uiso   1.00
C45    C     0.30989   0.44010   0.16650   0.00000  Uiso   1.00
C46    C     0.12477   0.32999   0.27682   0.00000  Uiso   1.00
C47    C     0.10132   0.36952   0.05653   0.00000  Uiso   1.00
C48    C     0.46540   0.06880   0.21296   0.00000  Uiso   1.00
C49    C     0.15517   0.21088   0.23583   0.00000  Uiso   1.00
C50    C     0.37109   0.32119   0.05627   0.00000  Uiso   1.00
C51    C     0.38914   0.33099   0.27140   0.00000  Uiso   1.00
C52    C     0.02791   0.09152   0.12244   0.00000  Uiso   1.00
C53    C     0.07995   0.47203   0.13032   0.00000  Uiso   1.00
C54    C     0.37477   0.07998   0.27682   0.00000  Uiso   1.00
C55    C     0.35134   0.11951   0.05653   0.00000  Uiso   1.00
C56    C     0.18889   0.05868   0.16698   0.00000  Uiso   1.00
C57    C     0.21540   0.31881   0.21297   0.00000  Uiso   1.00
C58    C     0.40515   0.46086   0.23587   0.00000  Uiso   1.00
C59    C     0.12108   0.07116   0.05628   0.00000  Uiso   1.00
C60    C     0.13917   0.08110   0.27143   0.00000  Uiso   1.00
C61    C     0.27791   0.34152   0.12243   0.00000  Uiso   1.00
C62    C     0.19072   0.43969   0.16714   0.00000  Uiso   1.00
C63    C     0.31064   0.05953   0.16634   0.00000  Uiso   1.00
C64    C     0.01137   0.28720   0.02349   0.00000  Uiso   1.00
H65    H     0.48790   0.36118   0.09162   0.00000  Uiso   1.00
H66    H     0.47391   0.35667   0.30030   0.00000  Uiso   1.00
H67    H     0.49919   0.36534   0.24605   0.00000  Uiso   1.00
H68    H     0.02229   0.38889   0.29474   0.00000  Uiso   1.00
H69    H     0.23791   0.11117   0.09163   0.00000  Uiso   1.00
H70    H     0.20638   0.08804   0.04746   0.00000  Uiso   1.00
H71    H     0.24183   0.13477   0.03748   0.00000  Uiso   1.00
H72    H     0.29683   0.41417   0.29498   0.00000  Uiso   1.00
H73    H     0.27251   0.39008   0.24674   0.00000  Uiso   1.00
H74    H     0.26276   0.36566   0.29959   0.00000  Uiso   1.00
H75    H     0.20692   0.37323   0.07420   0.00000  Uiso   1.00
H76    H     0.45638   0.33805   0.04744   0.00000  Uiso   1.00
H77    H     0.25452   0.38639   0.04188   0.00000  Uiso   1.00
H78    H     0.20311   0.37443   0.01529   0.00000  Uiso   1.00
H79    H     0.24924   0.11540   0.24609   0.00000  Uiso   1.00
H80    H     0.27235   0.13888   0.29480   0.00000  Uiso   1.00
H81    H     0.22394   0.10670   0.30031   0.00000  Uiso   1.00
H82    H     0.33594   0.24005   0.16203   0.00000  Uiso   1.00
H83    H     0.30223   0.19897   0.13502   0.00000  Uiso   1.00
H84    H     0.32008   0.24668   0.10469   0.00000  Uiso   1.00
H85    H     0.10576   0.36160   0.27830   0.00000  Uiso   1.00
H86    H     0.15828   0.33667   0.28649   0.00000  Uiso   1.00
H87    H     0.49184   0.38477   0.03746   0.00000  Uiso   1.00
H88    H     0.11148   0.30673   0.30249   0.00000  Uiso   1.00
H89    H     0.08260   0.37501   0.02582   0.00000  Uiso   1.00
H90    H     0.11581   0.33551   0.05509   0.00000  Uiso   1.00
H91    H     0.12700   0.39509   0.05499   0.00000  Uiso   1.00
H92    H     0.45836   0.05526   0.17919   0.00000  Uiso   1.00
H93    H     0.45349   0.04547   0.23918   0.00000  Uiso   1.00
H94    H     0.00079   0.06975   0.21610   0.00000  Uiso   1.00
H95    H     0.18528   0.19108   0.23884   0.00000  Uiso   1.00
H96    H     0.15378   0.23380   0.26484   0.00000  Uiso   1.00
H97    H     0.15633   0.23128   0.20460   0.00000  Uiso   1.00
H98    H     0.04684   0.16419   0.29494   0.00000  Uiso   1.00
H99    H     0.38984   0.29822   0.03449   0.00000  Uiso   1.00
H100   H     0.38243   0.35594   0.04967   0.00000  Uiso   1.00
H101   H     0.33701   0.31757   0.04679   0.00000  Uiso   1.00
H102   H     0.40862   0.31449   0.29727   0.00000  Uiso   1.00
H103   H     0.37414   0.30365   0.25187   0.00000  Uiso   1.00
H104   H     0.36385   0.35159   0.28819   0.00000  Uiso   1.00
H105   H     0.04091   0.06555   0.14548   0.00000  Uiso   1.00
H106   H     0.01218   0.07305   0.09522   0.00000  Uiso   1.00
H107   H     0.00330   0.11195   0.14029   0.00000  Uiso   1.00
H108   H     0.08593   0.49005   0.16204   0.00000  Uiso   1.00
H109   H     0.02251   0.14007   0.24673   0.00000  Uiso   1.00
H110   H     0.05222   0.44896   0.13503   0.00000  Uiso   1.00
H111   H     0.07006   0.49667   0.10470   0.00000  Uiso   1.00
H112   H     0.35577   0.11159   0.27830   0.00000  Uiso   1.00
H113   H     0.40829   0.08666   0.28649   0.00000  Uiso   1.00
H114   H     0.36148   0.05672   0.30249   0.00000  Uiso   1.00
H115   H     0.33261   0.12493   0.02581   0.00000  Uiso   1.00
H116   H     0.36587   0.08551   0.05513   0.00000  Uiso   1.00
H117   H     0.37698   0.14512   0.05498   0.00000  Uiso   1.00
H118   H     0.20836   0.30526   0.17920   0.00000  Uiso   1.00
H119   H     0.20350   0.29548   0.23920   0.00000  Uiso   1.00
H120   H     0.01279   0.11568   0.29960   0.00000  Uiso   1.00
H121   H     0.25079   0.31976   0.21610   0.00000  Uiso   1.00
H122   H     0.43526   0.44105   0.23889   0.00000  Uiso   1.00
H123   H     0.40374   0.48377   0.26488   0.00000  Uiso   1.00
H124   H     0.40632   0.48126   0.20464   0.00000  Uiso   1.00
H125   H     0.13982   0.04817   0.03451   0.00000  Uiso   1.00
H126   H     0.13243   0.10590   0.04967   0.00000  Uiso   1.00
H127   H     0.08699   0.06754   0.04681   0.00000  Uiso   1.00
H128   H     0.15863   0.06468   0.29737   0.00000  Uiso   1.00
H129   H     0.12421   0.05369   0.25196   0.00000  Uiso   1.00
H130   H     0.11385   0.10172   0.28814   0.00000  Uiso   1.00
H131   H     0.45692   0.12323   0.07419   0.00000  Uiso   1.00
H132   H     0.29091   0.31554   0.14547   0.00000  Uiso   1.00
H133   H     0.26219   0.32305   0.09521   0.00000  Uiso   1.00
H134   H     0.25330   0.36194   0.14029   0.00000  Uiso   1.00
H135   H     0.00453   0.13639   0.04189   0.00000  Uiso   1.00
H136   H     0.45313   0.12443   0.01528   0.00000  Uiso   1.00
N137   N     0.00000   0.25000   0.28573   0.00000  Uiso   1.00
N138   N     0.00000   0.25000   0.04760   0.00000  Uiso   1.00
N139   N     0.25000  -0.00000   0.28573   0.00000  Uiso   1.00
N140   N     0.25000  -0.00000   0.04760   0.00000  Uiso   1.00
O141   O     0.04581   0.20419   0.20487   0.00000  Uiso   1.00
O142   O     0.20420   0.04581   0.12846   0.00000  Uiso   1.00
O143   O     0.20420   0.04581   0.20487   0.00000  Uiso   1.00
O144   O     0.29581   0.45419   0.12846   0.00000  Uiso   1.00
O145   O     0.20420   0.45419   0.12846   0.00000  Uiso   1.00
O146   O     0.29581   0.04581   0.20487   0.00000  Uiso   1.00
O147   O     0.29581   0.04581   0.12846   0.00000  Uiso   1.00
O148   O     0.20420   0.45419   0.20487   0.00000  Uiso   1.00
O149   O     0.02374   0.32475   0.04589   0.00000  Uiso   1.00
O150   O     0.47884   0.17412   0.28702   0.00000  Uiso   1.00
O151   O     0.45630   0.18567   0.04679   0.00000  Uiso   1.00
O152   O     0.45420   0.29581   0.12846   0.00000  Uiso   1.00
O153   O     0.03210   0.32159   0.28608   0.00000  Uiso   1.00
O154   O     0.27374   0.07475   0.04589   0.00000  Uiso   1.00
O155   O     0.22884   0.42412   0.28702   0.00000  Uiso   1.00
O156   O     0.20630   0.43568   0.04679   0.00000  Uiso   1.00
O157   O     0.28211   0.07159   0.28608   0.00000  Uiso   1.00
O158   O     0.36801   0.20056   0.11517   0.00000  Uiso   1.00
O159   O     0.12281   0.30903   0.23453   0.00000  Uiso   1.00
O160   O     0.07351   0.37345   0.09451   0.00000  Uiso   1.00
O161   O     0.44882   0.11240   0.22020   0.00000  Uiso   1.00
O162   O     0.11820   0.18383   0.23735   0.00000  Uiso   1.00
O163   O     0.45420   0.29581   0.20487   0.00000  Uiso   1.00
O164   O     0.37678   0.30687   0.10076   0.00000  Uiso   1.00
O165   O     0.41671   0.35835   0.24526   0.00000  Uiso   1.00
O166   O     0.05922   0.12028   0.10343   0.00000  Uiso   1.00
O167   O     0.11800   0.45057   0.11518   0.00000  Uiso   1.00
O168   O     0.37281   0.05902   0.23452   0.00000  Uiso   1.00
O169   O     0.32352   0.12344   0.09450   0.00000  Uiso   1.00
O170   O     0.19882   0.36241   0.22020   0.00000  Uiso   1.00
O171   O     0.36818   0.43380   0.23737   0.00000  Uiso   1.00
O172   O     0.12677   0.05685   0.10078   0.00000  Uiso   1.00
O173   O     0.16676   0.10839   0.24524   0.00000  Uiso   1.00
O174   O     0.04581   0.20419   0.12846   0.00000  Uiso   1.00
O175   O     0.30922   0.37029   0.10342   0.00000  Uiso   1.00
O176   O     0.45420   0.20419   0.12846   0.00000  Uiso   1.00
O177   O     0.04581   0.29581   0.20487   0.00000  Uiso   1.00
O178   O     0.04581   0.29581   0.12846   0.00000  Uiso   1.00
O179   O     0.45420   0.20419   0.20487   0.00000  Uiso   1.00
O180   O     0.29581   0.45419   0.20487   0.00000  Uiso   1.00
Zn181  Zn    0.00000   0.25000   0.21771   0.00000  Uiso   1.00
Zn182  Zn    0.00000   0.25000   0.11563   0.00000  Uiso   1.00
Zn183  Zn    0.25000  -0.00000   0.21771   0.00000  Uiso   1.00
Zn184  Zn    0.25000  -0.00000   0.11563   0.00000  Uiso   1.00
C185   C     0.55989   0.19010   0.16650   0.00000  Uiso   1.00
C186   C     0.98781   0.21290   0.30971   0.00000  Uiso   1.00
C187   C     0.98436   0.21412   0.02440   0.00000  Uiso   1.00
C188   C     0.51203   0.28717   0.30896   0.00000  Uiso   1.00
C189   C     0.76137   0.03720   0.02349   0.00000  Uiso   1.00
C190   C     0.73781   0.46290   0.30971   0.00000  Uiso   1.00
C191   C     0.73436   0.46412   0.02440   0.00000  Uiso   1.00
C192   C     0.76204   0.03717   0.30896   0.00000  Uiso   1.00
C193   C     0.87356   0.16168   0.13981   0.00000  Uiso   1.00
C194   C     0.62593   0.34058   0.20043   0.00000  Uiso   1.00
C195   C     0.59805   0.37469   0.13239   0.00000  Uiso   1.00
C196   C     0.93889   0.30868   0.16698   0.00000  Uiso   1.00
C197   C     0.91147   0.11921   0.19641   0.00000  Uiso   1.00
C198   C     0.62049   0.15375   0.20229   0.00000  Uiso   1.00
C199   C     0.87591   0.34186   0.13129   0.00000  Uiso   1.00
C200   C     0.89716   0.36714   0.20524   0.00000  Uiso   1.00
C201   C     0.59282   0.12358   0.13265   0.00000  Uiso   1.00
C202   C     0.62356   0.41169   0.13981   0.00000  Uiso   1.00
C203   C     0.87593   0.09058   0.20043   0.00000  Uiso   1.00
C204   C     0.84805   0.12468   0.13239   0.00000  Uiso   1.00
C205   C     0.66147   0.36921   0.19642   0.00000  Uiso   1.00
C206   C     0.87047   0.40373   0.20230   0.00000  Uiso   1.00
C207   C     0.94072   0.18969   0.16714   0.00000  Uiso   1.00
C208   C     0.62591   0.09185   0.13130   0.00000  Uiso   1.00
C209   C     0.64718   0.11716   0.20523   0.00000  Uiso   1.00
C210   C     0.84282   0.37358   0.13265   0.00000  Uiso   1.00
C211   C     0.59543   0.34159   0.16599   0.00000  Uiso   1.00
C212   C     0.90793   0.15665   0.16836   0.00000  Uiso   1.00
C213   C     0.90364   0.33982   0.16771   0.00000  Uiso   1.00
C214   C     0.59230   0.15617   0.16642   0.00000  Uiso   1.00
C215   C     0.84543   0.09159   0.16599   0.00000  Uiso   1.00
C216   C     0.65793   0.40666   0.16836   0.00000  Uiso   1.00
C217   C     0.65365   0.08983   0.16771   0.00000  Uiso   1.00
C218   C     0.56064   0.30953   0.16634   0.00000  Uiso   1.00
C219   C     0.84230   0.40617   0.16642   0.00000  Uiso   1.00
C220   C     0.98801   0.35261   0.05560   0.00000  Uiso   1.00
C221   C     0.51702   0.14827   0.28236   0.00000  Uiso   1.00
C222   C     0.96906   0.14069   0.04377   0.00000  Uiso   1.00
C223   C     0.50516   0.35924   0.28203   0.00000  Uiso   1.00
C224   C     0.73801   0.10260   0.05561   0.00000  Uiso   1.00
C225   C     0.76701   0.39826   0.28237   0.00000  Uiso   1.00
C226   C     0.71905   0.39069   0.04377   0.00000  Uiso   1.00
C227   C     0.75520   0.10926   0.28206   0.00000  Uiso   1.00
C228   C     0.82996   0.22203   0.13031   0.00000  Uiso   1.00
C229   C     0.80989   0.44010   0.16650   0.00000  Uiso   1.00
C230   C     0.62477   0.32999   0.27682   0.00000  Uiso   1.00
C231   C     0.60132   0.36952   0.05653   0.00000  Uiso   1.00
C232   C     0.96540   0.06880   0.21296   0.00000  Uiso   1.00
C233   C     0.65517   0.21088   0.23583   0.00000  Uiso   1.00
C234   C     0.87109   0.32119   0.05627   0.00000  Uiso   1.00
C235   C     0.88914   0.33099   0.27140   0.00000  Uiso   1.00
C236   C     0.52791   0.09152   0.12244   0.00000  Uiso   1.00
C237   C     0.57995   0.47203   0.13032   0.00000  Uiso   1.00
C238   C     0.87477   0.07998   0.27682   0.00000  Uiso   1.00
C239   C     0.85134   0.11951   0.05653   0.00000  Uiso   1.00
C240   C     0.68889   0.05868   0.16698   0.00000  Uiso   1.00
C241   C     0.71540   0.31881   0.21297   0.00000  Uiso   1.00
C242   C     0.90515   0.46086   0.23587   0.00000  Uiso   1.00
C243   C     0.62108   0.07116   0.05628   0.00000  Uiso   1.00
C244   C     0.63917   0.08110   0.27143   0.00000  Uiso   1.00
C245   C     0.77791   0.34152   0.12243   0.00000  Uiso   1.00
C246   C     0.69072   0.43969   0.16714   0.00000  Uiso   1.00
C247   C     0.81064   0.05953   0.16634   0.00000  Uiso   1.00
C248   C     0.51137   0.28720   0.02349   0.00000  Uiso   1.00
H249   H     0.98790   0.36118   0.09162   0.00000  Uiso   1.00
H250   H     0.97391   0.35667   0.30030   0.00000  Uiso   1.00
H251   H     0.99919   0.36534   0.24605   0.00000  Uiso   1.00
H252   H     0.52229   0.38889   0.29474   0.00000  Uiso   1.00
H253   H     0.73791   0.11117   0.09163   0.00000  Uiso   1.00
H254   H     0.70638   0.08804   0.04746   0.00000  Uiso   1.00
H255   H     0.74183   0.13477   0.03748   0.00000  Uiso   1.00
H256   H     0.79683   0.41417   0.29498   0.00000  Uiso   1.00
H257   H     0.77251   0.39008   0.24674   0.00000  Uiso   1.00
H258   H     0.76276   0.36566   0.29959   0.00000  Uiso   1.00
H259   H     0.70692   0.37323   0.07420   0.00000  Uiso   1.00
H260   H     0.95638   0.33805   0.04744   0.00000  Uiso   1.00
H261   H     0.75452   0.38639   0.04188   0.00000  Uiso   1.00
H262   H     0.70311   0.37443   0.01529   0.00000  Uiso   1.00
H263   H     0.74924   0.11540   0.24609   0.00000  Uiso   1.00
H264   H     0.77235   0.13888   0.29480   0.00000  Uiso   1.00
H265   H     0.72394   0.10670   0.30031   0.00000  Uiso   1.00
H266   H     0.83594   0.24005   0.16203   0.00000  Uiso   1.00
H267   H     0.80223   0.19897   0.13502   0.00000  Uiso   1.00
H268   H     0.82008   0.24668   0.10469   0.00000  Uiso   1.00
H269   H     0.60576   0.36160   0.27830   0.00000  Uiso   1.00
H270   H     0.65828   0.33667   0.28649   0.00000  Uiso   1.00
H271   H     0.99184   0.38477   0.03746   0.00000  Uiso   1.00
H272   H     0.61148   0.30673   0.30249   0.00000  Uiso   1.00
H273   H     0.58260   0.37501   0.02582   0.00000  Uiso   1.00
H274   H     0.61581   0.33551   0.05509   0.00000  Uiso   1.00
H275   H     0.62700   0.39509   0.05499   0.00000  Uiso   1.00
H276   H     0.95836   0.05526   0.17919   0.00000  Uiso   1.00
H277   H     0.95349   0.04547   0.23918   0.00000  Uiso   1.00
H278   H     0.50079   0.06975   0.21610   0.00000  Uiso   1.00
H279   H     0.68528   0.19108   0.23884   0.00000  Uiso   1.00
H280   H     0.65378   0.23380   0.26484   0.00000  Uiso   1.00
H281   H     0.65633   0.23128   0.20460   0.00000  Uiso   1.00
H282   H     0.54684   0.16419   0.29494   0.00000  Uiso   1.00
H283   H     0.88984   0.29822   0.03449   0.00000  Uiso   1.00
H284   H     0.88243   0.35594   0.04967   0.00000  Uiso   1.00
H285   H     0.83701   0.31757   0.04679   0.00000  Uiso   1.00
H286   H     0.90862   0.31449   0.29727   0.00000  Uiso   1.00
H287   H     0.87414   0.30365   0.25187   0.00000  Uiso   1.00
H288   H     0.86385   0.35159   0.28819   0.00000  Uiso   1.00
H289   H     0.54091   0.06555   0.14548   0.00000  Uiso   1.00
H290   H     0.51218   0.07305   0.09522   0.00000  Uiso   1.00
H291   H     0.50330   0.11195   0.14029   0.00000  Uiso   1.00
H292   H     0.58593   0.49005   0.16204   0.00000  Uiso   1.00
H293   H     0.52251   0.14007   0.24673   0.00000  Uiso   1.00
H294   H     0.55222   0.44896   0.13503   0.00000  Uiso   1.00
H295   H     0.57006   0.49667   0.10470   0.00000  Uiso   1.00
H296   H     0.85577   0.11159   0.27830   0.00000  Uiso   1.00
H297   H     0.90829   0.08666   0.28649   0.00000  Uiso   1.00
H298   H     0.86148   0.05672   0.30249   0.00000  Uiso   1.00
H299   H     0.83261   0.12493   0.02581   0.00000  Uiso   1.00
H300   H     0.86587   0.08551   0.05513   0.00000  Uiso   1.00
H301   H     0.87698   0.14512   0.05498   0.00000  Uiso   1.00
H302   H     0.70836   0.30526   0.17920   0.00000  Uiso   1.00
H303   H     0.70350   0.29548   0.23920   0.00000  Uiso   1.00
H304   H     0.51279   0.11568   0.29960   0.00000  Uiso   1.00
H305   H     0.75079   0.31976   0.21610   0.00000  Uiso   1.00
H306   H     0.93526   0.44105   0.23889   0.00000  Uiso   1.00
H307   H     0.90374   0.48377   0.26488   0.00000  Uiso   1.00
H308   H     0.90632   0.48126   0.20464   0.00000  Uiso   1.00
H309   H     0.63982   0.04817   0.03451   0.00000  Uiso   1.00
H310   H     0.63243   0.10590   0.04967   0.00000  Uiso   1.00
H311   H     0.58699   0.06754   0.04681   0.00000  Uiso   1.00
H312   H     0.65863   0.06468   0.29737   0.00000  Uiso   1.00
H313   H     0.62421   0.05369   0.25196   0.00000  Uiso   1.00
H314   H     0.61385   0.10172   0.28814   0.00000  Uiso   1.00
H315   H     0.95692   0.12323   0.07419   0.00000  Uiso   1.00
H316   H     0.79091   0.31554   0.14547   0.00000  Uiso   1.00
H317   H     0.76219   0.32305   0.09521   0.00000  Uiso   1.00
H318   H     0.75330   0.36194   0.14029   0.00000  Uiso   1.00
H319   H     0.50453   0.13639   0.04189   0.00000  Uiso   1.00
H320   H     0.95313   0.12443   0.01528   0.00000  Uiso   1.00
N321   N     0.50000   0.25000   0.28573   0.00000  Uiso   1.00
N322   N     0.50000   0.25000   0.04760   0.00000  Uiso   1.00
N323   N     0.75000  -0.00000   0.28573   0.00000  Uiso   1.00
N324   N     0.75000  -0.00000   0.04760   0.00000  Uiso   1.00
O325   O     0.54581   0.20419   0.20487   0.00000  Uiso   1.00
O326   O     0.70420   0.04581   0.12846   0.00000  Uiso   1.00
O327   O     0.70420   0.04581   0.20487   0.00000  Uiso   1.00
O328   O     0.79581   0.45419   0.12846   0.00000  Uiso   1.00
O329   O     0.70420   0.45419   0.12846   0.00000  Uiso   1.00
O330   O     0.79581   0.04581   0.20487   0.00000  Uiso   1.00
O331   O     0.79581   0.04581   0.12846   0.00000  Uiso   1.00
O332   O     0.70420   0.45419   0.20487   0.00000  Uiso   1.00
O333   O     0.52374   0.32475   0.04589   0.00000  Uiso   1.00
O334   O     0.97884   0.17412   0.28702   0.00000  Uiso   1.00
O335   O     0.95630   0.18567   0.04679   0.00000  Uiso   1.00
O336   O     0.95420   0.29581   0.12846   0.00000  Uiso   1.00
O337   O     0.53210   0.32159   0.28608   0.00000  Uiso   1.00
O338   O     0.77374   0.07475   0.04589   0.00000  Uiso   1.00
O339   O     0.72884   0.42412   0.28702   0.00000  Uiso   1.00
O340   O     0.70630   0.43568   0.04679   0.00000  Uiso   1.00
O341   O     0.78211   0.07159   0.28608   0.00000  Uiso   1.00
O342   O     0.86801   0.20056   0.11517   0.00000  Uiso   1.00
O343   O     0.62281   0.30903   0.23453   0.00000  Uiso   1.00
O344   O     0.57351   0.37345   0.09451   0.00000  Uiso   1.00
O345   O     0.94882   0.11240   0.22020   0.00000  Uiso   1.00
O346   O     0.61820   0.18383   0.23735   0.00000  Uiso   1.00
O347   O     0.95420   0.29581   0.20487   0.00000  Uiso   1.00
O348   O     0.87678   0.30687   0.10076   0.00000  Uiso   1.00
O349   O     0.91671   0.35835   0.24526   0.00000  Uiso   1.00
O350   O     0.55922   0.12028   0.10343   0.00000  Uiso   1.00
O351   O     0.61800   0.45057   0.11518   0.00000  Uiso   1.00
O352   O     0.87281   0.05902   0.23452   0.00000  Uiso   1.00
O353   O     0.82352   0.12344   0.09450   0.00000  Uiso   1.00
O354   O     0.69882   0.36241   0.22020   0.00000  Uiso   1.00
O355   O     0.86818   0.43380   0.23737   0.00000  Uiso   1.00
O356   O     0.62677   0.05685   0.10078   0.00000  Uiso   1.00
O357   O     0.66676   0.10839   0.24524   0.00000  Uiso   1.00
O358   O     0.54581   0.20419   0.12846   0.00000  Uiso   1.00
O359   O     0.80922   0.37029   0.10342   0.00000  Uiso   1.00
O360   O     0.95420   0.20419   0.12846   0.00000  Uiso   1.00
O361   O     0.54581   0.29581   0.20487   0.00000  Uiso   1.00
O362   O     0.54581   0.29581   0.12846   0.00000  Uiso   1.00
O363   O     0.95420   0.20419   0.20487   0.00000  Uiso   1.00
O364   O     0.79581   0.45419   0.20487   0.00000  Uiso   1.00
Zn365  Zn    0.50000   0.25000   0.21771   0.00000  Uiso   1.00
Zn366  Zn    0.50000   0.25000   0.11563   0.00000  Uiso   1.00
Zn367  Zn    0.75000  -0.00000   0.21771   0.00000  Uiso   1.00
Zn368  Zn    0.75000  -0.00000   0.11563   0.00000  Uiso   1.00
C369   C     0.05989   0.69010   0.16650   0.00000  Uiso   1.00
C370   C     0.48781   0.71290   0.30971   0.00000  Uiso   1.00
C371   C     0.48436   0.71412   0.02440   0.00000  Uiso   1.00
C372   C     0.01203   0.78717   0.30896   0.00000  Uiso   1.00
C373   C     0.26137   0.53720   0.02349   0.00000  Uiso   1.00
C374   C     0.23781   0.96290   0.30971   0.00000  Uiso   1.00
C375   C     0.23436   0.96412   0.02440   0.00000  Uiso   1.00
C376   C     0.26204   0.53717   0.30896   0.00000  Uiso   1.00
C377   C     0.37356   0.66168   0.13981   0.00000  Uiso   1.00
C378   C     0.12593   0.84058   0.20043   0.00000  Uiso   1.00
C379   C     0.09805   0.87469   0.13239   0.00000  Uiso   1.00
C380   C     0.43889   0.80868   0.16698   0.00000  Uiso   1.00
C381   C     0.41147   0.61921   0.19641   0.00000  Uiso   1.00
C382   C     0.12049   0.65375   0.20229   0.00000  Uiso   1.00
C383   C     0.37591   0.84186   0.13129   0.00000  Uiso   1.00
C384   C     0.39716   0.86714   0.20524   0.00000  Uiso   1.00
C385   C     0.09282   0.62358   0.13265   0.00000  Uiso   1.00
C386   C     0.12356   0.91169   0.13981   0.00000  Uiso   1.00
C387   C     0.37593   0.59058   0.20043   0.00000  Uiso   1.00
C388   C     0.34805   0.62468   0.13239   0.00000  Uiso   1.00
C389   C     0.16147   0.86921   0.19642   0.00000  Uiso   1.00
C390   C     0.37047   0.90373   0.20230   0.00000  Uiso   1.00
C391   C     0.44072   0.68969   0.16714   0.00000  Uiso   1.00
C392   C     0.12591   0.59185   0.13130   0.00000  Uiso   1.00
C393   C     0.14718   0.61716   0.20523   0.00000  Uiso   1.00
C394   C     0.34282   0.87358   0.13265   0.00000  Uiso   1.00
C395   C     0.09543   0.84159   0.16599   0.00000  Uiso   1.00
C396   C     0.40793   0.65665   0.16836   0.00000  Uiso   1.00
C397   C     0.40364   0.83982   0.16771   0.00000  Uiso   1.00
C398   C     0.09230   0.65617   0.16642   0.00000  Uiso   1.00
C399   C     0.34543   0.59159   0.16599   0.00000  Uiso   1.00
C400   C     0.15793   0.90666   0.16836   0.00000  Uiso   1.00
C401   C     0.15365   0.58983   0.16771   0.00000  Uiso   1.00
C402   C     0.06064   0.80953   0.16634   0.00000  Uiso   1.00
C403   C     0.34230   0.90617   0.16642   0.00000  Uiso   1.00
C404   C     0.48801   0.85261   0.05560   0.00000  Uiso   1.00
C405   C     0.01702   0.64827   0.28236   0.00000  Uiso   1.00
C406   C     0.46906   0.64069   0.04377   0.00000  Uiso   1.00
C407   C     0.00516   0.85924   0.28203   0.00000  Uiso   1.00
C408   C     0.23801   0.60260   0.05561   0.00000  Uiso   1.00
C409   C     0.26701   0.89826   0.28237   0.00000  Uiso   1.00
C410   C     0.21905   0.89069   0.04377   0.00000  Uiso   1.00
C411   C     0.25520   0.60926   0.28206   0.00000  Uiso   1.00
C412   C     0.32996   0.72203   0.13031   0.00000  Uiso   1.00
C413   C     0.30989   0.94010   0.16650   0.00000  Uiso   1.00
C414   C     0.12477   0.82999   0.27682   0.00000  Uiso   1.00
C415   C     0.10132   0.86952   0.05653   0.00000  Uiso   1.00
C416   C     0.46540   0.56880   0.21296   0.00000  Uiso   1.00
C417   C     0.15517   0.71088   0.23583   0.00000  Uiso   1.00
C418   C     0.37109   0.82119   0.05627   0.00000  Uiso   1.00
C419   C     0.38914   0.83099   0.27140   0.00000  Uiso   1.00
C420   C     0.02791   0.59152   0.12244   0.00000  Uiso   1.00
C421   C     0.07995   0.97203   0.13032   0.00000  Uiso   1.00
C422   C     0.37477   0.57998   0.27682   0.00000  Uiso   1.00
C423   C     0.35134   0.61951   0.05653   0.00000  Uiso   1.00
C424   C     0.18889   0.55868   0.16698   0.00000  Uiso   1.00
C425   C     0.21540   0.81881   0.21297   0.00000  Uiso   1.00
C426   C     0.40515   0.96086   0.23587   0.00000  Uiso   1.00
C427   C     0.12108   0.57116   0.05628   0.00000  Uiso   1.00
C428   C     0.13917   0.58110   0.27143   0.00000  Uiso   1.00
C429   C     0.27791   0.84152   0.12243   0.00000  Uiso   1.00
C430   C     0.19072   0.93969   0.16714   0.00000  Uiso   1.00
C431   C     0.31064   0.55953   0.16634   0.00000  Uiso   1.00
C432   C     0.01137   0.78720   0.02349   0.00000  Uiso   1.00
H433   H     0.48790   0.86118   0.09162   0.00000  Uiso   1.00
H434   H     0.47391   0.85667   0.30030   0.00000  Uiso   1.00
H435   H     0.49919   0.86534   0.24605   0.00000  Uiso   1.00
H436   H     0.02229   0.88889   0.29474   0.00000  Uiso   1.00
H437   H     0.23791   0.61117   0.09163   0.00000  Uiso   1.00
H438   H     0.20638   0.58804   0.04746   0.00000  Uiso   1.00
H439   H     0.24183   0.63477   0.03748   0.00000  Uiso   1.00
H440   H     0.29683   0.91417   0.29498   0.00000  Uiso   1.00
H441   H     0.27251   0.89008   0.24674   0.00000  Uiso   1.00
H442   H     0.26276   0.86566   0.29959   0.00000  Uiso   1.00
H443   H     0.20692   0.87323   0.07420   0.00000  Uiso   1.00
H444   H     0.45638   0.83805   0.04744   0.00000  Uiso   1.00
H445   H     0.25452   0.88639   0.04188   0.00000  Uiso   1.00
H446   H     0.20311   0.87443   0.01529   0.00000  Uiso   1.00
H447   H     0.24924   0.61540   0.24609   0.00000  Uiso   1.00
H448   H     0.27235   0.63888   0.29480   0.00000  Uiso   1.00
H449   H     0.22394   0.60670   0.30031   0.00000  Uiso   1.00
H450   H     0.33594   0.74005   0.16203   0.00000  Uiso   1.00
H451   H     0.30223   0.69897   0.13502   0.00000  Uiso   1.00
H452   H     0.32008   0.74668   0.10469   0.00000  Uiso   1.00
H453   H     0.10576   0.86160   0.27830   0.00000  Uiso   1.00
H454   H     0.15828   0.83667   0.28649   0.00000  Uiso   1.00
H455   H     0.49184   0.88477   0.03746   0.00000  Uiso   1.00
H456   H     0.11148   0.80673   0.30249   0.00000  Uiso   1.00
H457   H     0.08260   0.87501   0.02582   0.00000  Uiso   1.00
H458   H     0.11581   0.83551   0.05509   0.00000  Uiso   1.00
H459   H     0.12700   0.89509   0.05499   0.00000  Uiso   1.00
H460   H     0.45836   0.55526   0.17919   0.00000  Uiso   1.00
H461   H     0.45349   0.54547   0.23918   0.00000  Uiso   1.00
H462   H     0.00079   0.56975   0.21610   0.00000  Uiso   1.00
H463   H     0.18528   0.69108   0.23884   0.00000  Uiso   1.00
H464   H     0.15378   0.73380   0.26484   0.00000  Uiso   1.00
H465   H     0.15633   0.73128   0.20460   0.00000  Uiso   1.00
H466   H     0.04684   0.66419   0.29494   0.00000  Uiso   1.00
H467   H     0.38984   0.79822   0.03449   0.00000  Uiso   1.00
H468   H     0.38243   0.85594   0.04967   0.00000  Uiso   1.00
H469   H     0.33701   0.81757   0.04679   0.00000  Uiso   1.00
H470   H     0.40862   0.81449   0.29727   0.00000  Uiso   1.00
H471   H     0.37414   0.80365   0.25187   0.00000  Uiso   1.00
H472   H     0.36385   0.85159   0.28819   0.00000  Uiso   1.00
H473   H     0.04091   0.56555   0.14548   0.00000  Uiso   1.00
H474   H     0.01218   0.57305   0.09522   0.00000  Uiso   1.00
H475   H     0.00330   0.61195   0.14029   0.00000  Uiso   1.00
H476   H     0.08593   0.99005   0.16204   0.00000  Uiso   1.00
H477   H     0.02251   0.64007   0.24673   0.00000  Uiso   1.00
H478   H     0.05222   0.94896   0.13503   0.00000  Uiso   1.00
H479   H     0.07006   0.99667   0.10470   0.00000  Uiso   1.00
H480   H     0.35577   0.61159   0.27830   0.00000  Uiso   1.00
H481   H     0.40829   0.58666   0.28649   0.00000  Uiso   1.00
H482   H     0.36148   0.55672   0.30249   0.00000  Uiso   1.00
H483   H     0.33261   0.62493   0.02581   0.00000  Uiso   1.00
H484   H     0.36587   0.58551   0.05513   0.00000  Uiso   1.00
H485   H     0.37698   0.64512   0.05498   0.00000  Uiso   1.00
H486   H     0.20836   0.80526   0.17920   0.00000  Uiso   1.00
H487   H     0.20350   0.79548   0.23920   0.00000  Uiso   1.00
H488   H     0.01279   0.61568   0.29960   0.00000  Uiso   1.00
H489   H     0.25079   0.81976   0.21610   0.00000  Uiso   1.00
H490   H     0.43526   0.94105   0.23889   0.00000  Uiso   1.00
H491   H     0.40374   0.98377   0.26488   0.00000  Uiso   1.00
H492   H     0.40632   0.98126   0.20464   0.00000  Uiso   1.00
H493   H     0.13982   0.54817   0.03451   0.00000  Uiso   1.00
H494   H     0.13243   0.60590   0.04967   0.00000  Uiso   1.00
H495   H     0.08699   0.56754   0.04681   0.00000  Uiso   1.00
H496   H     0.15863   0.56468   0.29737   0.00000  Uiso   1.00
H497   H     0.12421   0.55369   0.25196   0.00000  Uiso   1.00
H498   H     0.11385   0.60172   0.28814   0.00000  Uiso   1.00
H499   H     0.45692   0.62323   0.07419   0.00000  Uiso   1.00
H500   H     0.29091   0.81554   0.14547   0.00000  Uiso   1.00
H501   H     0.26219   0.82305   0.09521   0.00000  Uiso   1.00
H502   H     0.25330   0.86194   0.14029   0.00000  Uiso   1.00
H503   H     0.00453   0.63639   0.04189   0.00000  Uiso   1.00
H504   H     0.45313   0.62443   0.01528   0.00000  Uiso   1.00
N505   N     0.00000   0.75000   0.28573   0.00000  Uiso   1.00
N506   N     0.00000   0.75000   0.04760   0.00000  Uiso   1.00
N507   N     0.25000   0.50000   0.28573   0.00000  Uiso   1.00
N508   N     0.25000   0.50000   0.04760   0.00000  Uiso   1.00
O509   O     0.04581   0.70419   0.20487   0.00000  Uiso   1.00
O510   O     0.20420   0.54581   0.12846   0.00000  Uiso   1.00
O511   O     0.20420   0.54581   0.20487   0.00000  Uiso   1.00
O512   O     0.29581   0.95419   0.12846   0.00000  Uiso   1.00
O513   O     0.20420   0.95419   0.12846   0.00000  Uiso   1.00
O514   O     0.29581   0.54581   0.20487   0.00000  Uiso   1.00
O515   O     0.29581   0.54581   0.12846   0.00000  Uiso   1.00
O516   O     0.20420   0.95419   0.20487   0.00000  Uiso   1.00
O517   O     0.02374   0.82475   0.04589   0.00000  Uiso   1.00
O518   O     0.47884   0.67412   0.28702   0.00000  Uiso   1.00
O519   O     0.45630   0.68567   0.04679   0.00000  Uiso   1.00
O520   O     0.45420   0.79581   0.12846   0.00000  Uiso   1.00
O521   O     0.03210   0.82159   0.28608   0.00000  Uiso   1.00
O522   O     0.27374   0.57475   0.04589   0.00000  Uiso   1.00
O523   O     0.22884   0.92412   0.28702   0.00000  Uiso   1.00
O524   O     0.20630   0.93568   0.04679   0.00000  Uiso   1.00
O525   O     0.28211   0.57159   0.28608   0.00000  Uiso   1.00
O526   O     0.36801   0.70056   0.11517   0.00000  Uiso   1.00
O527   O     0.12281   0.80903   0.23453   0.00000  Uiso   1.00
O528   O     0.07351   0.87345   0.09451   0.00000  Uiso   1.00
O529   O     0.44882   0.61240   0.22020   0.00000  Uiso   1.00
O530   O     0.11820   0.68383   0.23735   0.00000  Uiso   1.00
O531   O     0.45420   0.79581   0.20487   0.00000  Uiso   1.00
O532   O     0.37678   0.80687   0.10076   0.00000  Uiso   1.00
O533   O     0.41671   0.85835   0.24526   0.00000  Uiso   1.00
O534   O     0.05922   0.62028   0.10343   0.00000  Uiso   1.00
O535   O     0.11800   0.95057   0.11518   0.00000  Uiso   1.00
O536   O     0.37281   0.55902   0.23452   0.00000  Uiso   1.00
O537   O     0.32352   0.62344   0.09450   0.00000  Uiso   1.00
O538   O     0.19882   0.86241   0.22020   0.00000  Uiso   1.00
O539   O     0.36818   0.93380   0.23737   0.00000  Uiso   1.00
O540   O     0.12677   0.55685   0.10078   0.00000  Uiso   1.00
O541   O     0.16676   0.60839   0.24524   0.00000  Uiso   1.00
O542   O     0.04581   0.70419   0.12846   0.00000  Uiso   1.00
O543   O     0.30922   0.87029   0.10342   0.00000  Uiso   1.00
O544   O     0.45420   0.70419   0.12846   0.00000  Uiso   1.00
O545   O     0.04581   0.79581   0.20487   0.00000  Uiso   1.00
O546   O     0.04581   0.79581   0.12846   0.00000  Uiso   1.00
O547   O     0.45420   0.70419   0.20487   0.00000  Uiso   1.00
O548   O     0.29581   0.95419   0.20487   0.00000  Uiso   1.00
Zn549  Zn    0.00000   0.75000   0.21771   0.00000  Uiso   1.00
Zn550  Zn    0.00000   0.75000   0.11563   0.00000  Uiso   1.00
Zn551  Zn    0.25000   0.50000   0.21771   0.00000  Uiso   1.00
Zn552  Zn    0.25000   0.50000   0.11563   0.00000  Uiso   1.00
C553   C     0.55989   0.69010   0.16650   0.00000  Uiso   1.00
C554   C     0.98781   0.71290   0.30971   0.00000  Uiso   1.00
C555   C     0.98436   0.71412   0.02440   0.00000  Uiso   1.00
C556   C     0.51203   0.78717   0.30896   0.00000  Uiso   1.00
C557   C     0.76137   0.53720   0.02349   0.00000  Uiso   1.00
C558   C     0.73781   0.96290   0.30971   0.00000  Uiso   1.00
C559   C     0.73436   0.96412   0.02440   0.00000  Uiso   1.00
C560   C     0.76204   0.53717   0.30896   0.00000  Uiso   1.00
C561   C     0.87356   0.66168   0.13981   0.00000  Uiso   1.00
C562   C     0.62593   0.84058   0.20043   0.00000  Uiso   1.00
C563   C     0.59805   0.87469   0.13239   0.00000  Uiso   1.00
C564   C     0.93889   0.80868   0.16698   0.00000  Uiso   1.00
C565   C     0.91147   0.61921   0.19641   0.00000  Uiso   1.00
C566   C     0.62049   0.65375   0.20229   0.00000  Uiso   1.00
C567   C     0.87591   0.84186   0.13129   0.00000  Uiso   1.00
C568   C     0.89716   0.86714   0.20524   0.00000  Uiso   1.00
C569   C     0.59282   0.62358   0.13265   0.00000  Uiso   1.00
C570   C     0.62356   0.91169   0.13981   0.00000  Uiso   1.00
C571   C     0.87593   0.59058   0.20043   0.00000  Uiso   1.00
C572   C     0.84805   0.62468   0.13239   0.00000  Uiso   1.00
C573   C     0.66147   0.86921   0.19642   0.00000  Uiso   1.00
C574   C     0.87047   0.90373   0.20230   0.00000  Uiso   1.00
C575   C     0.94072   0.68969   0.16714   0.00000  Uiso   1.00
C576   C     0.62591   0.59185   0.13130   0.00000  Uiso   1.00
C577   C     0.64718   0.61716   0.20523   0.00000  Uiso   1.00
C578   C     0.84282   0.87358   0.13265   0.00000  Uiso   1.00
C579   C     0.59543   0.84159   0.16599   0.00000  Uiso   1.00
C580   C     0.90793   0.65665   0.16836   0.00000  Uiso   1.00
C581   C     0.90364   0.83982   0.16771   0.00000  Uiso   1.00
C582   C     0.59230   0.65617   0.16642   0.00000  Uiso   1.00
C583   C     0.84543   0.59159   0.16599   0.00000  Uiso   1.00
C584   C     0.65793   0.90666   0.16836   0.00000  Uiso   1.00
C585   C     0.65365   0.58983   0.16771   0.00000  Uiso   1.00
C586   C     0.56064   0.80953   0.16634   0.00000  Uiso   1.00
C587   C     0.84230   0.90617   0.16642   0.00000  Uiso   1.00
C588   C     0.98801   0.85261   0.05560   0.00000  Uiso   1.00
C589   C     0.51702   0.64827   0.28236   0.00000  Uiso   1.00
C590   C     0.96906   0.64069   0.04377   0.00000  Uiso   1.00
C591   C     0.50516   0.85924   0.28203   0.00000  Uiso   1.00
C592   C     0.73801   0.60260   0.05561   0.00000  Uiso   1.00
C593   C     0.76701   0.89826   0.28237   0.00000  Uiso   1.00
C594   C     0.71905   0.89069   0.04377   0.00000  Uiso   1.00
C595   C     0.75520   0.60926   0.28206   0.00000  Uiso   1.00
C596   C     0.82996   0.72203   0.13031   0.00000  Uiso   1.00
C597   C     0.80989   0.94010   0.16650   0.00000  Uiso   1.00
C598   C     0.62477   0.82999   0.27682   0.00000  Uiso   1.00
C599   C     0.60132   0.86952   0.05653   0.00000  Uiso   1.00
C600   C     0.96540   0.56880   0.21296   0.00000  Uiso   1.00
C601   C     0.65517   0.71088   0.23583   0.00000  Uiso   1.00
C602   C     0.87109   0.82119   0.05627   0.00000  Uiso   1.00
C603   C     0.88914   0.83099   0.27140   0.00000  Uiso   1.00
C604   C     0.52791   0.59152   0.12244   0.00000  Uiso   1.00
C605   C     0.57995   0.97203   0.13032   0.00000  Uiso   1.00
C606   C     0.87477   0.57998   0.27682   0.00000  Uiso   1.00
C607   C     0.85134   0.61951   0.05653   0.00000  Uiso   1.00
C608   C     0.68889   0.55868   0.16698   0.00000  Uiso   1.00
C609   C     0.71540   0.81881   0.21297   0.00000  Uiso   1.00
C610   C     0.90515   0.96086   0.23587   0.00000  Uiso   1.00
C611   C     0.62108   0.57116   0.05628   0.00000  Uiso   1.00
C612   C     0.63917   0.58110   0.27143   0.00000  Uiso   1.00
C613   C     0.77791   0.84152   0.12243   0.00000  Uiso   1.00
C614   C     0.69072   0.93969   0.16714   0.00000  Uiso   1.00
C615   C     0.81064   0.55953   0.16634   0.00000  Uiso   1.00
C616   C     0.51137   0.78720   0.02349   0.00000  Uiso   1.00
H617   H     0.98790   0.86118   0.09162   0.00000  Uiso   1.00
H618   H     0.97391   0.85667   0.30030   0.00000  Uiso   1.00
H619   H     0.99919   0.86534   0.24605   0.00000  Uiso   1.00
H620   H     0.52229   0.88889   0.29474   0.00000  Uiso   1.00
H621   H     0.73791   0.61117   0.09163   0.00000  Uiso   1.00
H622   H     0.70638   0.58804   0.04746   0.00000  Uiso   1.00
H623   H     0.74183   0.63477   0.03748   0.00000  Uiso   1.00
H624   H     0.79683   0.91417   0.29498   0.00000  Uiso   1.00
H625   H     0.77251   0.89008   0.24674   0.00000  Uiso   1.00
H626   H     0.76276   0.86566   0.29959   0.00000  Uiso   1.00
H627   H     0.70692   0.87323   0.07420   0.00000  Uiso   1.00
H628   H     0.95638   0.83805   0.04744   0.00000  Uiso   1.00
H629   H     0.75452   0.88639   0.04188   0.00000  Uiso   1.00
H630   H     0.70311   0.87443   0.01529   0.00000  Uiso   1.00
H631   H     0.74924   0.61540   0.24609   0.00000  Uiso   1.00
H632   H     0.77235   0.63888   0.29480   0.00000  Uiso   1.00
H633   H     0.72394   0.60670   0.30031   0.00000  Uiso   1.00
H634   H     0.83594   0.74005   0.16203   0.00000  Uiso   1.00
H635   H     0.80223   0.69897   0.13502   0.00000  Uiso   1.00
H636   H     0.82008   0.74668   0.10469   0.00000  Uiso   1.00
H637   H     0.60576   0.86160   0.27830   0.00000  Uiso   1.00
H638   H     0.65828   0.83667   0.28649   0.00000  Uiso   1.00
H639   H     0.99184   0.88477   0.03746   0.00000  Uiso   1.00
H640   H     0.61148   0.80673   0.30249   0.00000  Uiso   1.00
H641   H     0.58260   0.87501   0.02582   0.00000  Uiso   1.00
H642   H     0.61581   0.83551   0.05509   0.00000  Uiso   1.00
H643   H     0.62700   0.89509   0.05499   0.00000  Uiso   1.00
H644   H     0.95836   0.55526   0.17919   0.00000  Uiso   1.00
H645   H     0.95349   0.54547   0.23918   0.00000  Uiso   1.00
H646   H     0.50079   0.56975   0.21610   0.00000  Uiso   1.00
H647   H     0.68528   0.69108   0.23884   0.00000  Uiso   1.00
H648   H     0.65378   0.73380   0.26484   0.00000  Uiso   1.00
H649   H     0.65633   0.73128   0.20460   0.00000  Uiso   1.00
H650   H     0.54684   0.66419   0.29494   0.00000  Uiso   1.00
H651   H     0.88984   0.79822   0.03449   0.00000  Uiso   1.00
H652   H     0.88243   0.85594   0.04967   0.00000  Uiso   1.00
H653   H     0.83701   0.81757   0.04679   0.00000  Uiso   1.00
H654   H     0.90862   0.81449   0.29727   0.00000  Uiso   1.00
H655   H     0.87414   0.80365   0.25187   0.00000  Uiso   1.00
H656   H     0.86385   0.85159   0.28819   0.00000  Uiso   1.00
H657   H     0.54091   0.56555   0.14548   0.00000  Uiso   1.00
H658   H     0.51218   0.57305   0.09522   0.00000  Uiso   1.00
H659   H     0.50330   0.61195   0.14029   0.00000  Uiso   1.00
H660   H     0.58593   0.99005   0.16204   0.00000  Uiso   1.00
H661   H     0.52251   0.64007   0.24673   0.00000  Uiso   1.00
H662   H     0.55222   0.94896   0.13503   0.00000  Uiso   1.00
H663   H     0.57006   0.99667   0.10470   0.00000  Uiso   1.00
H664   H     0.85577   0.61159   0.27830   0.00000  Uiso   1.00
H665   H     0.90829   0.58666   0.28649   0.00000  Uiso   1.00
H666   H     0.86148   0.55672   0.30249   0.00000  Uiso   1.00
H667   H     0.83261   0.62493   0.02581   0.00000  Uiso   1.00
H668   H     0.86587   0.58551   0.05513   0.00000  Uiso   1.00
H669   H     0.87698   0.64512   0.05498   0.00000  Uiso   1.00
H670   H     0.70836   0.80526   0.17920   0.00000  Uiso   1.00
H671   H     0.70350   0.79548   0.23920   0.00000  Uiso   1.00
H672   H     0.51279   0.61568   0.29960   0.00000  Uiso   1.00
H673   H     0.75079   0.81976   0.21610   0.00000  Uiso   1.00
H674   H     0.93526   0.94105   0.23889   0.00000  Uiso   1.00
H675   H     0.90374   0.98377   0.26488   0.00000  Uiso   1.00
H676   H     0.90632   0.98126   0.20464   0.00000  Uiso   1.00
H677   H     0.63982   0.54817   0.03451   0.00000  Uiso   1.00
H678   H     0.63243   0.60590   0.04967   0.00000  Uiso   1.00
H679   H     0.58699   0.56754   0.04681   0.00000  Uiso   1.00
H680   H     0.65863   0.56468   0.29737   0.00000  Uiso   1.00
H681   H     0.62421   0.55369   0.25196   0.00000  Uiso   1.00
H682   H     0.61385   0.60172   0.28814   0.00000  Uiso   1.00
H683   H     0.95692   0.62323   0.07419   0.00000  Uiso   1.00
H684   H     0.79091   0.81554   0.14547   0.00000  Uiso   1.00
H685   H     0.76219   0.82305   0.09521   0.00000  Uiso   1.00
H686   H     0.75330   0.86194   0.14029   0.00000  Uiso   1.00
H687   H     0.50453   0.63639   0.04189   0.00000  Uiso   1.00
H688   H     0.95313   0.62443   0.01528   0.00000  Uiso   1.00
N689   N     0.50000   0.75000   0.28573   0.00000  Uiso   1.00
N690   N     0.50000   0.75000   0.04760   0.00000  Uiso   1.00
N691   N     0.75000   0.50000   0.28573   0.00000  Uiso   1.00
N692   N     0.75000   0.50000   0.04760   0.00000  Uiso   1.00
O693   O     0.54581   0.70419   0.20487   0.00000  Uiso   1.00
O694   O     0.70420   0.54581   0.12846   0.00000  Uiso   1.00
O695   O     0.70420   0.54581   0.20487   0.00000  Uiso   1.00
O696   O     0.79581   0.95419   0.12846   0.00000  Uiso   1.00
O697   O     0.70420   0.95419   0.12846   0.00000  Uiso   1.00
O698   O     0.79581   0.54581   0.20487   0.00000  Uiso   1.00
O699   O     0.79581   0.54581   0.12846   0.00000  Uiso   1.00
O700   O     0.70420   0.95419   0.20487   0.00000  Uiso   1.00
O701   O     0.52374   0.82475   0.04589   0.00000  Uiso   1.00
O702   O     0.97884   0.67412   0.28702   0.00000  Uiso   1.00
O703   O     0.95630   0.68567   0.04679   0.00000  Uiso   1.00
O704   O     0.95420   0.79581   0.12846   0.00000  Uiso   1.00
O705   O     0.53210   0.82159   0.28608   0.00000  Uiso   1.00
O706   O     0.77374   0.57475   0.04589   0.00000  Uiso   1.00
O707   O     0.72884   0.92412   0.28702   0.00000  Uiso   1.00
O708   O     0.70630   0.93568   0.04679   0.00000  Uiso   1.00
O709   O     0.78211   0.57159   0.28608   0.00000  Uiso   1.00
O710   O     0.86801   0.70056   0.11517   0.00000  Uiso   1.00
O711   O     0.62281   0.80903   0.23453   0.00000  Uiso   1.00
O712   O     0.57351   0.87345   0.09451   0.00000  Uiso   1.00
O713   O     0.94882   0.61240   0.22020   0.00000  Uiso   1.00
O714   O     0.61820   0.68383   0.23735   0.00000  Uiso   1.00
O715   O     0.95420   0.79581   0.20487   0.00000  Uiso   1.00
O716   O     0.87678   0.80687   0.10076   0.00000  Uiso   1.00
O717   O     0.91671   0.85835   0.24526   0.00000  Uiso   1.00
O718   O     0.55922   0.62028   0.10343   0.00000  Uiso   1.00
O719   O     0.61800   0.95057   0.11518   0.00000  Uiso   1.00
O720   O     0.87281   0.55902   0.23452   0.00000  Uiso   1.00
O721   O     0.82352   0.62344   0.09450   0.00000  Uiso   1.00
O722   O     0.69882   0.86241   0.22020   0.00000  Uiso   1.00
O723   O     0.86818   0.93380   0.23737   0.00000  Uiso   1.00
O724   O     0.62677   0.55685   0.10078   0.00000  Uiso   1.00
O725   O     0.66676   0.60839   0.24524   0.00000  Uiso   1.00
O726   O     0.54581   0.70419   0.12846   0.00000  Uiso   1.00
O727   O     0.80922   0.87029   0.10342   0.00000  Uiso   1.00
O728   O     0.95420   0.70419   0.12846   0.00000  Uiso   1.00
O729   O     0.54581   0.79581   0.20487   0.00000  Uiso   1.00
O730   O     0.54581   0.79581   0.12846   0.00000  Uiso   1.00
O731   O     0.95420   0.70419   0.20487   0.00000  Uiso   1.00
O732   O     0.79581   0.95419   0.20487   0.00000  Uiso   1.00
Zn733  Zn    0.50000   0.75000   0.21771   0.00000  Uiso   1.00
Zn734  Zn    0.50000   0.75000   0.11563   0.00000  Uiso   1.00
Zn735  Zn    0.75000   0.50000   0.21771   0.00000  Uiso   1.00
Zn736  Zn    0.75000   0.50000   0.11563   0.00000  Uiso   1.00
C737   C     0.05989   0.19010   0.49983   0.00000  Uiso   1.00
C738   C     0.48781   0.21290   0.64305   0.00000  Uiso   1.00
C739   C     0.48436   0.21412   0.35774   0.00000  Uiso   1.00
C740   C     0.01203   0.28717   0.64229   0.00000  Uiso   1.00
C741   C     0.26137   0.03720   0.35682   0.00000  Uiso   1.00
C742   C     0.23781   0.46290   0.64305   0.00000  Uiso   1.00
C743   C     0.23436   0.46412   0.35774   0.00000  Uiso   1.00
C744   C     0.26204   0.03717   0.64229   0.00000  Uiso   1.00
C745   C     0.37356   0.16168   0.47314   0.00000  Uiso   1.00
C746   C     0.12593   0.34058   0.53376   0.00000  Uiso   1.00
C747   C     0.09805   0.37469   0.46572   0.00000  Uiso   1.00
C748   C     0.43889   0.30868   0.50031   0.00000  Uiso   1.00
C749   C     0.41147   0.11921   0.52975   0.00000  Uiso   1.00
C750   C     0.12049   0.15375   0.53562   0.00000  Uiso   1.00
C751   C     0.37591   0.34186   0.46463   0.00000  Uiso   1.00
C752   C     0.39716   0.36714   0.53858   0.00000  Uiso   1.00
C753   C     0.09282   0.12358   0.46599   0.00000  Uiso   1.00
C754   C     0.12356   0.41169   0.47314   0.00000  Uiso   1.00
C755   C     0.37593   0.09058   0.53376   0.00000  Uiso   1.00
C756   C     0.34805   0.12468   0.46572   0.00000  Uiso   1.00
C757   C     0.16147   0.36921   0.52975   0.00000  Uiso   1.00
C758   C     0.37047   0.40373   0.53563   0.00000  Uiso   1.00
C759   C     0.44072   0.18969   0.50048   0.00000  Uiso   1.00
C760   C     0.12591   0.09185   0.46463   0.00000  Uiso   1.00
C761   C     0.14718   0.11716   0.53857   0.00000  Uiso   1.00
C762   C     0.34282   0.37358   0.46598   0.00000  Uiso   1.00
C763   C     0.09543   0.34159   0.49933   0.00000  Uiso   1.00
C764   C     0.40793   0.15665   0.50169   0.00000  Uiso   1.00
C765   C     0.40364   0.33982   0.50104   0.00000  Uiso   1.00
C766   C     0.09230   0.15617   0.49975   0.00000  Uiso   1.00
C767   C     0.34543   0.09159   0.49933   0.00000  Uiso   1.00
C768   C     0.15793   0.40666   0.50169   0.00000  Uiso   1.00
C769   C     0.15365   0.08983   0.50104   0.00000  Uiso   1.00
C770   C     0.06064   0.30953   0.49967   0.00000  Uiso   1.00
C771   C     0.34230   0.40617   0.49975   0.00000  Uiso   1.00
C772   C     0.48801   0.35261   0.38893   0.00000  Uiso   1.00
C773   C     0.01702   0.14827   0.61569   0.00000  Uiso   1.00
C774   C     0.46906   0.14069   0.37710   0.00000  Uiso   1.00
C775   C     0.00516   0.35924   0.61536   0.00000  Uiso   1.00
C776   C     0.23801   0.10260   0.38895   0.00000  Uiso   1.00
C777   C     0.26701   0.39826   0.61570   0.00000  Uiso   1.00
C778   C     0.21905   0.39069   0.37710   0.00000  Uiso   1.00
C779   C     0.25520   0.10926   0.61539   0.00000  Uiso   1.00
C780   C     0.32996   0.22203   0.46365   0.00000  Uiso   1.00
C781   C     0.30989   0.44010   0.49983   0.00000  Uiso   1.00
C782   C     0.12477   0.32999   0.61016   0.00000  Uiso   1.00
C783   C     0.10132   0.36952   0.38986   0.00000  Uiso   1.00
C784   C     0.46540   0.06880   0.54630   0.00000  Uiso   1.00
C785   C     0.15517   0.21088   0.56916   0.00000  Uiso   1.00
C786   C     0.37109   0.32119   0.38960   0.00000  Uiso   1.00
C787   C     0.38914   0.33099   0.60473   0.00000  Uiso   1.00
C788   C     0.02791   0.09152   0.45577   0.00000  Uiso   1.00
C789   C     0.07995   0.47203   0.46365   0.00000  Uiso   1.00
C790   C     0.37477   0.07998   0.61016   0.00000  Uiso   1.00
C791   C     0.35134   0.11951   0.38986   0.00000  Uiso   1.00
C792   C     0.18889   0.05868   0.50031   0.00000  Uiso   1.00
C793   C     0.21540   0.31881   0.54630   0.00000  Uiso   1.00
C794   C     0.40515   0.46086   0.56920   0.00000  Uiso   1.00
C795   C     0.12108   0.07116   0.38961   0.00000  Uiso   1.00
C796   C     0.13917   0.08110   0.60476   0.00000  Uiso   1.00
C797   C     0.27791   0.34152   0.45577   0.00000  Uiso   1.00
C798   C     0.19072   0.43969   0.50048   0.00000  Uiso   1.00
C799   C     0.31064   0.05953   0.49967   0.00000  Uiso   1.00
C800   C     0.01137   0.28720   0.35682   0.00000  Uiso   1.00
H801   H     0.48790   0.36118   0.42495   0.00000  Uiso   1.00
H802   H     0.47391   0.35667   0.63363   0.00000  Uiso   1.00
H803   H     0.49919   0.36534   0.57939   0.00000  Uiso   1.00
H804   H     0.02229   0.38889   0.62808   0.00000  Uiso   1.00
H805   H     0.23791   0.11117   0.42497   0.00000  Uiso   1.00
H806   H     0.20638   0.08804   0.38079   0.00000  Uiso   1.00
H807   H     0.24183   0.13477   0.37081   0.00000  Uiso   1.00
H808   H     0.29683   0.41417   0.62831   0.00000  Uiso   1.00
H809   H     0.27251   0.39008   0.58007   0.00000  Uiso   1.00
H810   H     0.26276   0.36566   0.63292   0.00000  Uiso   1.00
H811   H     0.20692   0.37323   0.40753   0.00000  Uiso   1.00
H812   H     0.45638   0.33805   0.38077   0.00000  Uiso   1.00
H813   H     0.25452   0.38639   0.37522   0.00000  Uiso   1.00
H814   H     0.20311   0.37443   0.34862   0.00000  Uiso   1.00
H815   H     0.24924   0.11540   0.57942   0.00000  Uiso   1.00
H816   H     0.27235   0.13888   0.62814   0.00000  Uiso   1.00
H817   H     0.22394   0.10670   0.63364   0.00000  Uiso   1.00
H818   H     0.33594   0.24005   0.49537   0.00000  Uiso   1.00
H819   H     0.30223   0.19897   0.46835   0.00000  Uiso   1.00
H820   H     0.32008   0.24668   0.43803   0.00000  Uiso   1.00
H821   H     0.10576   0.36160   0.61164   0.00000  Uiso   1.00
H822   H     0.15828   0.33667   0.61983   0.00000  Uiso   1.00
H823   H     0.49184   0.38477   0.37080   0.00000  Uiso   1.00
H824   H     0.11148   0.30673   0.63583   0.00000  Uiso   1.00
H825   H     0.08260   0.37501   0.35916   0.00000  Uiso   1.00
H826   H     0.11581   0.33551   0.38842   0.00000  Uiso   1.00
H827   H     0.12700   0.39509   0.38833   0.00000  Uiso   1.00
H828   H     0.45836   0.05526   0.51253   0.00000  Uiso   1.00
H829   H     0.45349   0.04547   0.57252   0.00000  Uiso   1.00
H830   H     0.00079   0.06975   0.54943   0.00000  Uiso   1.00
H831   H     0.18528   0.19108   0.57217   0.00000  Uiso   1.00
H832   H     0.15378   0.23380   0.59817   0.00000  Uiso   1.00
H833   H     0.15633   0.23128   0.53793   0.00000  Uiso   1.00
H834   H     0.04684   0.16419   0.62828   0.00000  Uiso   1.00
H835   H     0.38984   0.29822   0.36782   0.00000  Uiso   1.00
H836   H     0.38243   0.35594   0.38300   0.00000  Uiso   1.00
H837   H     0.33701   0.31757   0.38012   0.00000  Uiso   1.00
H838   H     0.40862   0.31449   0.63060   0.00000  Uiso   1.00
H839   H     0.37414   0.30365   0.58521   0.00000  Uiso   1.00
H840   H     0.36385   0.35159   0.62152   0.00000  Uiso   1.00
H841   H     0.04091   0.06555   0.47882   0.00000  Uiso   1.00
H842   H     0.01218   0.07305   0.42856   0.00000  Uiso   1.00
H843   H     0.00330   0.11195   0.47363   0.00000  Uiso   1.00
H844   H     0.08593   0.49005   0.49537   0.00000  Uiso   1.00
H845   H     0.02251   0.14007   0.58007   0.00000  Uiso   1.00
H846   H     0.05222   0.44896   0.46836   0.00000  Uiso   1.00
H847   H     0.07006   0.49667   0.43803   0.00000  Uiso   1.00
H848   H     0.35577   0.11159   0.61164   0.00000  Uiso   1.00
H849   H     0.40829   0.08666   0.61982   0.00000  Uiso   1.00
H850   H     0.36148   0.05672   0.63583   0.00000  Uiso   1.00
H851   H     0.33261   0.12493   0.35915   0.00000  Uiso   1.00
H852   H     0.36587   0.08551   0.38847   0.00000  Uiso   1.00
H853   H     0.37698   0.14512   0.38831   0.00000  Uiso   1.00
H854   H     0.20836   0.30526   0.51254   0.00000  Uiso   1.00
H855   H     0.20350   0.29548   0.57253   0.00000  Uiso   1.00
H856   H     0.01279   0.11568   0.63293   0.00000  Uiso   1.00
H857   H     0.25079   0.31976   0.54943   0.00000  Uiso   1.00
H858   H     0.43526   0.44105   0.57223   0.00000  Uiso   1.00
H859   H     0.40374   0.48377   0.59822   0.00000  Uiso   1.00
H860   H     0.40632   0.48126   0.53797   0.00000  Uiso   1.00
H861   H     0.13982   0.04817   0.36784   0.00000  Uiso   1.00
H862   H     0.13243   0.10590   0.38300   0.00000  Uiso   1.00
H863   H     0.08699   0.06754   0.38015   0.00000  Uiso   1.00
H864   H     0.15863   0.06468   0.63070   0.00000  Uiso   1.00
H865   H     0.12421   0.05369   0.58530   0.00000  Uiso   1.00
H866   H     0.11385   0.10172   0.62147   0.00000  Uiso   1.00
H867   H     0.45692   0.12323   0.40753   0.00000  Uiso   1.00
H868   H     0.29091   0.31554   0.47880   0.00000  Uiso   1.00
H869   H     0.26219   0.32305   0.42855   0.00000  Uiso   1.00
H870   H     0.25330   0.36194   0.47362   0.00000  Uiso   1.00
H871   H     0.00453   0.13639   0.37522   0.00000  Uiso   1.00
H872   H     0.45313   0.12443   0.34862   0.00000  Uiso   1.00
N873   N     0.00000   0.25000   0.61907   0.00000  Uiso   1.00
N874   N     0.00000   0.25000   0.38093   0.00000  Uiso   1.00
N875   N     0.25000  -0.00000   0.61907   0.00000  Uiso   1.00
N876   N     0.25000  -0.00000   0.38093   0.00000  Uiso   1.00
O877   O     0.04581   0.20419   0.53821   0.00000  Uiso   1.00
O878   O     0.20420   0.04581   0.46179   0.00000  Uiso   1.00
O879   O     0.20420   0.04581   0.53821   0.00000  Uiso   1.00
O880   O     0.29581   0.45419   0.46179   0.00000  Uiso   1.00
O881   O     0.20420   0.45419   0.46179   0.00000  Uiso   1.00
O882   O     0.29581   0.04581   0.53821   0.00000  Uiso   1.00
O883   O     0.29581   0.04581   0.46179   0.00000  Uiso   1.00
O884   O     0.20420   0.45419   0.53821   0.00000  Uiso   1.00
O885   O     0.02374   0.32475   0.37923   0.00000  Uiso   1.00
O886   O     0.47884   0.17412   0.62036   0.00000  Uiso   1.00
O887   O     0.45630   0.18567   0.38013   0.00000  Uiso   1.00
O888   O     0.45420   0.29581   0.46179   0.00000  Uiso   1.00
O889   O     0.03210   0.32159   0.61942   0.00000  Uiso   1.00
O890   O     0.27374   0.07475   0.37922   0.00000  Uiso   1.00
O891   O     0.22884   0.42412   0.62036   0.00000  Uiso   1.00
O892   O     0.20630   0.43568   0.38013   0.00000  Uiso   1.00
O893   O     0.28211   0.07159   0.61941   0.00000  Uiso   1.00
O894   O     0.36801   0.20056   0.44850   0.00000  Uiso   1.00
O895   O     0.12281   0.30903   0.56786   0.00000  Uiso   1.00
O896   O     0.07351   0.37345   0.42784   0.00000  Uiso   1.00
O897   O     0.44882   0.11240   0.55353   0.00000  Uiso   1.00
O898   O     0.11820   0.18383   0.57068   0.00000  Uiso   1.00
O899   O     0.45420   0.29581   0.53821   0.00000  Uiso   1.00
O900   O     0.37678   0.30687   0.43410   0.00000  Uiso   1.00
O901   O     0.41671   0.35835   0.57859   0.00000  Uiso   1.00
O902   O     0.05922   0.12028   0.43676   0.00000  Uiso   1.00
O903   O     0.11800   0.45057   0.44851   0.00000  Uiso   1.00
O904   O     0.37281   0.05902   0.56786   0.00000  Uiso   1.00
O905   O     0.32352   0.12344   0.42784   0.00000  Uiso   1.00
O906   O     0.19882   0.36241   0.55353   0.00000  Uiso   1.00
O907   O     0.36818   0.43380   0.57070   0.00000  Uiso   1.00
O908   O     0.12677   0.05685   0.43412   0.00000  Uiso   1.00
O909   O     0.16676   0.10839   0.57857   0.00000  Uiso   1.00
O910   O     0.04581   0.20419   0.46179   0.00000  Uiso   1.00
O911   O     0.30922   0.37029   0.43676   0.00000  Uiso   1.00
O912   O     0.45420   0.20419   0.46179   0.00000  Uiso   1.00
O913   O     0.04581   0.29581   0.53821   0.00000  Uiso   1.00
O914   O     0.04581   0.29581   0.46179   0.00000  Uiso   1.00
O915   O     0.45420   0.20419   0.53821   0.00000  Uiso   1.00
O916   O     0.29581   0.45419   0.53821   0.00000  Uiso   1.00
Zn917  Zn    0.00000   0.25000   0.55104   0.00000  Uiso   1.00
Zn918  Zn    0.00000   0.25000   0.44896   0.00000  Uiso   1.00
Zn919  Zn    0.25000  -0.00000   0.55104   0.00000  Uiso   1.00
Zn920  Zn    0.25000  -0.00000   0.44896   0.00000  Uiso   1.00
C921   C     0.55989   0.19010   0.49983   0.00000  Uiso   1.00
C922   C     0.98781   0.21290   0.64305   0.00000  Uiso   1.00
C923   C     0.98436   0.21412   0.35774   0.00000  Uiso   1.00
C924   C     0.51203   0.28717   0.64229   0.00000  Uiso   1.00
C925   C     0.76137   0.03720   0.35682   0.00000  Uiso   1.00
C926   C     0.73781   0.46290   0.64305   0.00000  Uiso   1.00
C927   C     0.73436   0.46412   0.35774   0.00000  Uiso   1.00
C928   C     0.76204   0.03717   0.64229   0.00000  Uiso   1.00
C929   C     0.87356   0.16168   0.47314   0.00000  Uiso   1.00
C930   C     0.62593   0.34058   0.53376   0.00000  Uiso   1.00
C931   C     0.59805   0.37469   0.46572   0.00000  Uiso   1.00
C932   C     0.93889   0.30868   0.50031   0.00000  Uiso   1.00
C933   C     0.91147   0.11921   0.52975   0.00000  Uiso   1.00
C934   C     0.62049   0.15375   0.53562   0.00000  Uiso   1.00
C935   C     0.87591   0.34186   0.46463   0.00000  Uiso   1.00
C936   C     0.89716   0.36714   0.53858   0.00000  Uiso   1.00
C937   C     0.59282   0.12358   0.46599   0.00000  Uiso   1.00
C938   C     0.62356   0.41169   0.47314   0.00000  Uiso   1.00
C939   C     0.87593   0.09058   0.53376   0.00000  Uiso   1.00
C940   C     0.84805   0.12468   0.46572   0.00000  Uiso   1.00
C941   C     0.66147   0.36921   0.52975   0.00000  Uiso   1.00
C942   C     0.87047   0.40373   0.53563   0.00000  Uiso   1.00
C943   C     0.94072   0.18969   0.50048   0.00000  Uiso   1.00
C944   C     0.62591   0.09185   0.46463   0.00000  Uiso   1.00
C945   C     0.64718   0.11716   0.53857   0.00000  Uiso   1.00
C946   C     0.84282   0.37358   0.46598   0.00000  Uiso   1.00
C947   C     0.59543   0.34159   0.49933   0.00000  Uiso   1.00
C948   C     0.90793   0.15665   0.50169   0.00000  Uiso   1.00
C949   C     0.90364   0.33982   0.50104   0.00000  Uiso   1.00
C950   C     0.59230   0.15617   0.49975   0.00000  Uiso   1.00
C951   C     0.84543   0.09159   0.49933   0.00000  Uiso   1.00
C952   C     0.65793   0.40666   0.50169   0.00000  Uiso   1.00
C953   C     0.65365   0.08983   0.50104   0.00000  Uiso   1.00
C954   C     0.56064   0.30953   0.49967   0.00000  Uiso   1.00
C955   C     0.84230   0.40617   0.49975   0.00000  Uiso   1.00
C956   C     0.98801   0.35261   0.38893   0.00000  Uiso   1.00
C957   C     0.51702   0.14827   0.61569   0.00000  Uiso   1.00
C958   C     0.96906   0.14069   0.37710   0.00000  Uiso   1.00
C959   C     0.50516   0.35924   0.61536   0.00000  Uiso   1.00
C960   C     0.73801   0.10260   0.38895   0.00000  Uiso   1.00
C961   C     0.76701   0.39826   0.61570   0.00000  Uiso   1.00
C962   C     0.71905   0.39069   0.37710   0.00000  Uiso   1.00
C963   C     0.75520   0.10926   0.61539   0.00000  Uiso   1.00
C964   C     0.82996   0.22203   0.46365   0.00000  Uiso   1.00
C965   C     0.80989   0.44010   0.49983   0.00000  Uiso   1.00
C966   C     0.62477   0.32999   0.61016   0.00000  Uiso   1.00
C967   C     0.60132   0.36952   0.38986   0.00000  Uiso   1.00
C968   C     0.96540   0.06880   0.54630   0.00000  Uiso   1.00
C969   C     0.65517   0.21088   0.56916   0.00000  Uiso   1.00
C970   C     0.87109   0.32119   0.38960   0.00000  Uiso   1.00
C971   C     0.88914   0.33099   0.60473   0.00000  Uiso   1.00
C972   C     0.52791   0.09152   0.45577   0.00000  Uiso   1.00
C973   C     0.57995   0.47203   0.46365   0.00000  Uiso   1.00
C974   C     0.87477   0.07998   0.61016   0.00000  Uiso   1.00
C975   C     0.85134   0.11951   0.38986   0.00000  Uiso   1.00
C976   C     0.68889   0.05868   0.50031   0.00000  Uiso   1.00
C977   C     0.71540   0.31881   0.54630   0.00000  Uiso   1.00
C978   C     0.90515   0.46086   0.56920   0.00000  Uiso   1.00
C979   C     0.62108   0.07116   0.38961   0.00000  Uiso   1.00
C980   C     0.63917   0.08110   0.60476   0.00000  Uiso   1.00
C981   C     0.77791   0.34152   0.45577   0.00000  Uiso   1.00
C982   C     0.69072   0.43969   0.50048   0.00000  Uiso   1.00
C983   C     0.81064   0.05953   0.49967   0.00000  Uiso   1.00
C984   C     0.51137   0.28720   0.35682   0.00000  Uiso   1.00
H985   H     0.98790   0.36118   0.42495   0.00000  Uiso   1.00
H986   H     0.97391   0.35667   0.63363   0.00000  Uiso   1.00
H987   H     0.99919   0.36534   0.57939   0.00000  Uiso   1.00
H988   H     0.52229   0.38889   0.62808   0.00000  Uiso   1.00
H989   H     0.73791   0.11117   0.42497   0.00000  Uiso   1.00
H990   H     0.70638   0.08804   0.38079   0.00000  Uiso   1.00
H991   H     0.74183   0.13477   0.37081   0.00000  Uiso   1.00
H992   H     0.79683   0.41417   0.62831   0.00000  Uiso   1.00
H993   H     0.77251   0.39008   0.58007   0.00000  Uiso   1.00
H994   H     0.76276   0.36566   0.63292   0.00000  Uiso   1.00
H995   H     0.70692   0.37323   0.40753   0.00000  Uiso   1.00
H996   H     0.95638   0.33805   0.38077   0.00000  Uiso   1.00
H997   H     0.75452   0.38639   0.37522   0.00000  Uiso   1.00
H998   H     0.70311   0.37443   0.34862   0.00000  Uiso   1.00
H999   H     0.74924   0.11540   0.57942   0.00000  Uiso   1.00
H1000  H     0.77235   0.13888   0.62814   0.00000  Uiso   1.00
H1001  H     0.72394   0.10670   0.63364   0.00000  Uiso   1.00
H1002  H     0.83594   0.24005   0.49537   0.00000  Uiso   1.00
H1003  H     0.80223   0.19897   0.46835   0.00000  Uiso   1.00
H1004  H     0.82008   0.24668   0.43803   0.00000  Uiso   1.00
H1005  H     0.60576   0.36160   0.61164   0.00000  Uiso   1.00
H1006  H     0.65828   0.33667   0.61983   0.00000  Uiso   1.00
H1007  H     0.99184   0.38477   0.37080   0.00000  Uiso   1.00
H1008  H     0.61148   0.30673   0.63583   0.00000  Uiso   1.00
H1009  H     0.58260   0.37501   0.35916   0.00000  Uiso   1.00
H1010  H     0.61581   0.33551   0.38842   0.00000  Uiso   1.00
H1011  H     0.62700   0.39509   0.38833   0.00000  Uiso   1.00
H1012  H     0.95836   0.05526   0.51253   0.00000  Uiso   1.00
H1013  H     0.95349   0.04547   0.57252   0.00000  Uiso   1.00
H1014  H     0.50079   0.06975   0.54943   0.00000  Uiso   1.00
H1015  H     0.68528   0.19108   0.57217   0.00000  Uiso   1.00
H1016  H     0.65378   0.23380   0.59817   0.00000  Uiso   1.00
H1017  H     0.65633   0.23128   0.53793   0.00000  Uiso   1.00
H1018  H     0.54684   0.16419   0.62828   0.00000  Uiso   1.00
H1019  H     0.88984   0.29822   0.36782   0.00000  Uiso   1.00
H1020  H     0.88243   0.35594   0.38300   0.00000  Uiso   1.00
H1021  H     0.83701   0.31757   0.38012   0.00000  Uiso   1.00
H1022  H     0.90862   0.31449   0.63060   0.00000  Uiso   1.00
H1023  H     0.87414   0.30365   0.58521   0.00000  Uiso   1.00
H1024  H     0.86385   0.35159   0.62152   0.00000  Uiso   1.00
H1025  H     0.54091   0.06555   0.47882   0.00000  Uiso   1.00
H1026  H     0.51218   0.07305   0.42856   0.00000  Uiso   1.00
H1027  H     0.50330   0.11195   0.47363   0.00000  Uiso   1.00
H1028  H     0.58593   0.49005   0.49537   0.00000  Uiso   1.00
H1029  H     0.52251   0.14007   0.58007   0.00000  Uiso   1.00
H1030  H     0.55222   0.44896   0.46836   0.00000  Uiso   1.00
H1031  H     0.57006   0.49667   0.43803   0.00000  Uiso   1.00
H1032  H     0.85577   0.11159   0.61164   0.00000  Uiso   1.00
H1033  H     0.90829   0.08666   0.61982   0.00000  Uiso   1.00
H1034  H     0.86148   0.05672   0.63583   0.00000  Uiso   1.00
H1035  H     0.83261   0.12493   0.35915   0.00000  Uiso   1.00
H1036  H     0.86587   0.08551   0.38847   0.00000  Uiso   1.00
H1037  H     0.87698   0.14512   0.38831   0.00000  Uiso   1.00
H1038  H     0.70836   0.30526   0.51254   0.00000  Uiso   1.00
H1039  H     0.70350   0.29548   0.57253   0.00000  Uiso   1.00
H1040  H     0.51279   0.11568   0.63293   0.00000  Uiso   1.00
H1041  H     0.75079   0.31976   0.54943   0.00000  Uiso   1.00
H1042  H     0.93526   0.44105   0.57223   0.00000  Uiso   1.00
H1043  H     0.90374   0.48377   0.59822   0.00000  Uiso   1.00
H1044  H     0.90632   0.48126   0.53797   0.00000  Uiso   1.00
H1045  H     0.63982   0.04817   0.36784   0.00000  Uiso   1.00
H1046  H     0.63243   0.10590   0.38300   0.00000  Uiso   1.00
H1047  H     0.58699   0.06754   0.38015   0.00000  Uiso   1.00
H1048  H     0.65863   0.06468   0.63070   0.00000  Uiso   1.00
H1049  H     0.62421   0.05369   0.58530   0.00000  Uiso   1.00
H1050  H     0.61385   0.10172   0.62147   0.00000  Uiso   1.00
H1051  H     0.95692   0.12323   0.40753   0.00000  Uiso   1.00
H1052  H     0.79091   0.31554   0.47880   0.00000  Uiso   1.00
H1053  H     0.76219   0.32305   0.42855   0.00000  Uiso   1.00
H1054  H     0.75330   0.36194   0.47362   0.00000  Uiso   1.00
H1055  H     0.50453   0.13639   0.37522   0.00000  Uiso   1.00
H1056  H     0.95313   0.12443   0.34862   0.00000  Uiso   1.00
N1057  N     0.50000   0.25000   0.61907   0.00000  Uiso   1.00
N1058  N     0.50000   0.25000   0.38093   0.00000  Uiso   1.00
N1059  N     0.75000  -0.00000   0.61907   0.00000  Uiso   1.00
N1060  N     0.75000  -0.00000   0.38093   0.00000  Uiso   1.00
O1061  O     0.54581   0.20419   0.53821   0.00000  Uiso   1.00
O1062  O     0.70420   0.04581   0.46179   0.00000  Uiso   1.00
O1063  O     0.70420   0.04581   0.53821   0.00000  Uiso   1.00
O1064  O     0.79581   0.45419   0.46179   0.00000  Uiso   1.00
O1065  O     0.70420   0.45419   0.46179   0.00000  Uiso   1.00
O1066  O     0.79581   0.04581   0.53821   0.00000  Uiso   1.00
O1067  O     0.79581   0.04581   0.46179   0.00000  Uiso   1.00
O1068  O     0.70420   0.45419   0.53821   0.00000  Uiso   1.00
O1069  O     0.52374   0.32475   0.37923   0.00000  Uiso   1.00
O1070  O     0.97884   0.17412   0.62036   0.00000  Uiso   1.00
O1071  O     0.95630   0.18567   0.38013   0.00000  Uiso   1.00
O1072  O     0.95420   0.29581   0.46179   0.00000  Uiso   1.00
O1073  O     0.53210   0.32159   0.61942   0.00000  Uiso   1.00
O1074  O     0.77374   0.07475   0.37922   0.00000  Uiso   1.00
O1075  O     0.72884   0.42412   0.62036   0.00000  Uiso   1.00
O1076  O     0.70630   0.43568   0.38013   0.00000  Uiso   1.00
O1077  O     0.78211   0.07159   0.61941   0.00000  Uiso   1.00
O1078  O     0.86801   0.20056   0.44850   0.00000  Uiso   1.00
O1079  O     0.62281   0.30903   0.56786   0.00000  Uiso   1.00
O1080  O     0.57351   0.37345   0.42784   0.00000  Uiso   1.00
O1081  O     0.94882   0.11240   0.55353   0.00000  Uiso   1.00
O1082  O     0.61820   0.18383   0.57068   0.00000  Uiso   1.00
O1083  O     0.95420   0.29581   0.53821   0.00000  Uiso   1.00
O1084  O     0.87678   0.30687   0.43410   0.00000  Uiso   1.00
O1085  O     0.91671   0.35835   0.57859   0.00000  Uiso   1.00
O1086  O     0.55922   0.12028   0.43676   0.00000  Uiso   1.00
O1087  O     0.61800   0.45057   0.44851   0.00000  Uiso   1.00
O1088  O     0.87281   0.05902   0.56786   0.00000  Uiso   1.00
O1089  O     0.82352   0.12344   0.42784   0.00000  Uiso   1.00
O1090  O     0.69882   0.36241   0.55353   0.00000  Uiso   1.00
O1091  O     0.86818   0.43380   0.57070   0.00000  Uiso   1.00
O1092  O     0.62677   0.05685   0.43412   0.00000  Uiso   1.00
O1093  O     0.66676   0.10839   0.57857   0.00000  Uiso   1.00
O1094  O     0.54581   0.20419   0.46179   0.00000  Uiso   1.00
O1095  O     0.80922   0.37029   0.43676   0.00000  Uiso   1.00
O1096  O     0.95420   0.20419   0.46179   0.00000  Uiso   1.00
O1097  O     0.54581   0.29581   0.53821   0.00000  Uiso   1.00
O1098  O     0.54581   0.29581   0.46179   0.00000  Uiso   1.00
O1099  O     0.95420   0.20419   0.53821   0.00000  Uiso   1.00
O1100  O     0.79581   0.45419   0.53821   0.00000  Uiso   1.00
Zn1101 Zn    0.50000   0.25000   0.55104   0.00000  Uiso   1.00
Zn1102 Zn    0.50000   0.25000   0.44896   0.00000  Uiso   1.00
Zn1103 Zn    0.75000  -0.00000   0.55104   0.00000  Uiso   1.00
Zn1104 Zn    0.75000  -0.00000   0.44896   0.00000  Uiso   1.00
C1105  C     0.05989   0.69010   0.49983   0.00000  Uiso   1.00
C1106  C     0.48781   0.71290   0.64305   0.00000  Uiso   1.00
C1107  C     0.48436   0.71412   0.35774   0.00000  Uiso   1.00
C1108  C     0.01203   0.78717   0.64229   0.00000  Uiso   1.00
C1109  C     0.26137   0.53720   0.35682   0.00000  Uiso   1.00
C1110  C     0.23781   0.96290   0.64305   0.00000  Uiso   1.00
C1111  C     0.23436   0.96412   0.35774   0.00000  Uiso   1.00
C1112  C     0.26204   0.53717   0.64229   0.00000  Uiso   1.00
C1113  C     0.37356   0.66168   0.47314   0.00000  Uiso   1.00
C1114  C     0.12593   0.84058   0.53376   0.00000  Uiso   1.00
C1115  C     0.09805   0.87469   0.46572   0.00000  Uiso   1.00
C1116  C     0.43889   0.80868   0.50031   0.00000  Uiso   1.00
C1117  C     0.41147   0.61921   0.52975   0.00000  Uiso   1.00
C1118  C     0.12049   0.65375   0.53562   0.00000  Uiso   1.00
C1119  C     0.37591   0.84186   0.46463   0.00000  Uiso   1.00
C1120  C     0.39716   0.86714   0.53858   0.00000  Uiso   1.00
C1121  C     0.09282   0.62358   0.46599   0.00000  Uiso   1.00
C1122  C     0.12356   0.91169   0.47314   0.00000  Uiso   1.00
C1123  C     0.37593   0.59058   0.53376   0.00000  Uiso   1.00
C1124  C     0.34805   0.62468   0.46572   0.00000  Uiso   1.00
C1125  C     0.16147   0.86921   0.52975   0.00000  Uiso   1.00
C1126  C     0.37047   0.90373   0.53563   0.00000  Uiso   1.00
C1127  C     0.44072   0.68969   0.50048   0.00000  Uiso   1.00
C1128  C     0.12591   0.59185   0.46463   0.00000  Uiso   1.00
C1129  C     0.14718   0.61716   0.53857   0.00000  Uiso   1.00
C1130  C     0.34282   0.87358   0.46598   0.00000  Uiso   1.00
C1131  C     0.09543   0.84159   0.49933   0.00000  Uiso   1.00
C1132  C     0.40793   0.65665   0.50169   0.00000  Uiso   1.00
C1133  C     0.40364   0.83982   0.50104   0.00000  Uiso   1.00
C1134  C     0.09230   0.65617   0.49975   0.00000  Uiso   1.00
C1135  C     0.34543   0.59159   0.49933   0.00000  Uiso   1.00
C1136  C     0.15793   0.90666   0.50169   0.00000  Uiso   1.00
C1137  C     0.15365   0.58983   0.50104   0.00000  Uiso   1.00
C1138  C     0.06064   0.80953   0.49967   0.00000  Uiso   1.00
C1139  C     0.34230   0.90617   0.49975   0.00000  Uiso   1.00
C1140  C     0.48801   0.85261   0.38893   0.00000  Uiso   1.00
C1141  C     0.01702   0.64827   0.61569   0.00000  Uiso   1.00
C1142  C     0.46906   0.64069   0.37710   0.00000  Uiso   1.00
C1143  C     0.00516   0.85924   0.61536   0.00000  Uiso   1.00
C1144  C     0.23801   0.60260   0.38895   0.00000  Uiso   1.00
C1145  C     0.26701   0.89826   0.61570   0.00000  Uiso   1.00
C1146  C     0.21905   0.89069   0.37710   0.00000  Uiso   1.00
C1147  C     0.25520   0.60926   0.61539   0.00000  Uiso   1.00
C1148  C     0.32996   0.72203   0.46365   0.00000  Uiso   1.00
C1149  C     0.30989   0.94010   0.49983   0.00000  Uiso   1.00
C1150  C     0.12477   0.82999   0.61016   0.00000  Uiso   1.00
C1151  C     0.10132   0.86952   0.38986   0.00000  Uiso   1.00
C1152  C     0.46540   0.56880   0.54630   0.00000  Uiso   1.00
C1153  C     0.15517   0.71088   0.56916   0.00000  Uiso   1.00
C1154  C     0.37109   0.82119   0.38960   0.00000  Uiso   1.00
C1155  C     0.38914   0.83099   0.60473   0.00000  Uiso   1.00
C1156  C     0.02791   0.59152   0.45577   0.00000  Uiso   1.00
C1157  C     0.07995   0.97203   0.46365   0.00000  Uiso   1.00
C1158  C     0.37477   0.57998   0.61016   0.00000  Uiso   1.00
C1159  C     0.35134   0.61951   0.38986   0.00000  Uiso   1.00
C1160  C     0.18889   0.55868   0.50031   0.00000  Uiso   1.00
C1161  C     0.21540   0.81881   0.54630   0.00000  Uiso   1.00
C1162  C     0.40515   0.96086   0.56920   0.00000  Uiso   1.00
C1163  C     0.12108   0.57116   0.38961   0.00000  Uiso   1.00
C1164  C     0.13917   0.58110   0.60476   0.00000  Uiso   1.00
C1165  C     0.27791   0.84152   0.45577   0.00000  Uiso   1.00
C1166  C     0.19072   0.93969   0.50048   0.00000  Uiso   1.00
C1167  C     0.31064   0.55953   0.49967   0.00000  Uiso   1.00
C1168  C     0.01137   0.78720   0.35682   0.00000  Uiso   1.00
H1169  H     0.48790   0.86118   0.42495   0.00000  Uiso   1.00
H1170  H     0.47391   0.85667   0.63363   0.00000  Uiso   1.00
H1171  H     0.49919   0.86534   0.57939   0.00000  Uiso   1.00
H1172  H     0.02229   0.88889   0.62808   0.00000  Uiso   1.00
H1173  H     0.23791   0.61117   0.42497   0.00000  Uiso   1.00
H1174  H     0.20638   0.58804   0.38079   0.00000  Uiso   1.00
H1175  H     0.24183   0.63477   0.37081   0.00000  Uiso   1.00
H1176  H     0.29683   0.91417   0.62831   0.00000  Uiso   1.00
H1177  H     0.27251   0.89008   0.58007   0.00000  Uiso   1.00
H1178  H     0.26276   0.86566   0.63292   0.00000  Uiso   1.00
H1179  H     0.20692   0.87323   0.40753   0.00000  Uiso   1.00
H1180  H     0.45638   0.83805   0.38077   0.00000  Uiso   1.00
H1181  H     0.25452   0.88639   0.37522   0.00000  Uiso   1.00
H1182  H     0.20311   0.87443   0.34862   0.00000  Uiso   1.00
H1183  H     0.24924   0.61540   0.57942   0.00000  Uiso   1.00
H1184  H     0.27235   0.63888   0.62814   0.00000  Uiso   1.00
H1185  H     0.22394   0.60670   0.63364   0.00000  Uiso   1.00
H1186  H     0.33594   0.74005   0.49537   0.00000  Uiso   1.00
H1187  H     0.30223   0.69897   0.46835   0.00000  Uiso   1.00
H1188  H     0.32008   0.74668   0.43803   0.00000  Uiso   1.00
H1189  H     0.10576   0.86160   0.61164   0.00000  Uiso   1.00
H1190  H     0.15828   0.83667   0.61983   0.00000  Uiso   1.00
H1191  H     0.49184   0.88477   0.37080   0.00000  Uiso   1.00
H1192  H     0.11148   0.80673   0.63583   0.00000  Uiso   1.00
H1193  H     0.08260   0.87501   0.35916   0.00000  Uiso   1.00
H1194  H     0.11581   0.83551   0.38842   0.00000  Uiso   1.00
H1195  H     0.12700   0.89509   0.38833   0.00000  Uiso   1.00
H1196  H     0.45836   0.55526   0.51253   0.00000  Uiso   1.00
H1197  H     0.45349   0.54547   0.57252   0.00000  Uiso   1.00
H1198  H     0.00079   0.56975   0.54943   0.00000  Uiso   1.00
H1199  H     0.18528   0.69108   0.57217   0.00000  Uiso   1.00
H1200  H     0.15378   0.73380   0.59817   0.00000  Uiso   1.00
H1201  H     0.15633   0.73128   0.53793   0.00000  Uiso   1.00
H1202  H     0.04684   0.66419   0.62828   0.00000  Uiso   1.00
H1203  H     0.38984   0.79822   0.36782   0.00000  Uiso   1.00
H1204  H     0.38243   0.85594   0.38300   0.00000  Uiso   1.00
H1205  H     0.33701   0.81757   0.38012   0.00000  Uiso   1.00
H1206  H     0.40862   0.81449   0.63060   0.00000  Uiso   1.00
H1207  H     0.37414   0.80365   0.58521   0.00000  Uiso   1.00
H1208  H     0.36385   0.85159   0.62152   0.00000  Uiso   1.00
H1209  H     0.04091   0.56555   0.47882   0.00000  Uiso   1.00
H1210  H     0.01218   0.57305   0.42856   0.00000  Uiso   1.00
H1211  H     0.00330   0.61195   0.47363   0.00000  Uiso   1.00
H1212  H     0.08593   0.99005   0.49537   0.00000  Uiso   1.00
H1213  H     0.02251   0.64007   0.58007   0.00000  Uiso   1.00
H1214  H     0.05222   0.94896   0.46836   0.00000  Uiso   1.00
H1215  H     0.07006   0.99667   0.43803   0.00000  Uiso   1.00
H1216  H     0.35577   0.61159   0.61164   0.00000  Uiso   1.00
H1217  H     0.40829   0.58666   0.61982   0.00000  Uiso   1.00
H1218  H     0.36148   0.55672   0.63583   0.00000  Uiso   1.00
H1219  H     0.33261   0.62493   0.35915   0.00000  Uiso   1.00
H1220  H     0.36587   0.58551   0.38847   0.00000  Uiso   1.00
H1221  H     0.37698   0.64512   0.38831   0.00000  Uiso   1.00
H1222  H     0.20836   0.80526   0.51254   0.00000  Uiso   1.00
H1223  H     0.20350   0.79548   0.57253   0.00000  Uiso   1.00
H1224  H     0.01279   0.61568   0.63293   0.00000  Uiso   1.00
H1225  H     0.25079   0.81976   0.54943   0.00000  Uiso   1.00
H1226  H     0.43526   0.94105   0.57223   0.00000  Uiso   1.00
H1227  H     0.40374   0.98377   0.59822   0.00000  Uiso   1.00
H1228  H     0.40632   0.98126   0.53797   0.00000  Uiso   1.00
H1229  H     0.13982   0.54817   0.36784   0.00000  Uiso   1.00
H1230  H     0.13243   0.60590   0.38300   0.00000  Uiso   1.00
H1231  H     0.08699   0.56754   0.38015   0.00000  Uiso   1.00
H1232  H     0.15863   0.56468   0.63070   0.00000  Uiso   1.00
H1233  H     0.12421   0.55369   0.58530   0.00000  Uiso   1.00
H1234  H     0.11385   0.60172   0.62147   0.00000  Uiso   1.00
H1235  H     0.45692   0.62323   0.40753   0.00000  Uiso   1.00
H1236  H     0.29091   0.81554   0.47880   0.00000  Uiso   1.00
H1237  H     0.26219   0.82305   0.42855   0.00000  Uiso   1.00
H1238  H     0.25330   0.86194   0.47362   0.00000  Uiso   1.00
H1239  H     0.00453   0.63639   0.37522   0.00000  Uiso   1.00
H1240  H     0.45313   0.62443   0.34862   0.00000  Uiso   1.00
N1241  N     0.00000   0.75000   0.61907   0.00000  Uiso   1.00
N1242  N     0.00000   0.75000   0.38093   0.00000  Uiso   1.00
N1243  N     0.25000   0.50000   0.61907   0.00000  Uiso   1.00
N1244  N     0.25000   0.50000   0.38093   0.00000  Uiso   1.00
O1245  O     0.04581   0.70419   0.53821   0.00000  Uiso   1.00
O1246  O     0.20420   0.54581   0.46179   0.00000  Uiso   1.00
O1247  O     0.20420   0.54581   0.53821   0.00000  Uiso   1.00
O1248  O     0.29581   0.95419   0.46179   0.00000  Uiso   1.00
O1249  O     0.20420   0.95419   0.46179   0.00000  Uiso   1.00
O1250  O     0.29581   0.54581   0.53821   0.00000  Uiso   1.00
O1251  O     0.29581   0.54581   0.46179   0.00000  Uiso   1.00
O1252  O     0.20420   0.95419   0.53821   0.00000  Uiso   1.00
O1253  O     0.02374   0.82475   0.37923   0.00000  Uiso   1.00
O1254  O     0.47884   0.67412   0.62036   0.00000  Uiso   1.00
O1255  O     0.45630   0.68567   0.38013   0.00000  Uiso   1.00
O1256  O     0.45420   0.79581   0.46179   0.00000  Uiso   1.00
O1257  O     0.03210   0.82159   0.61942   0.00000  Uiso   1.00
O1258  O     0.27374   0.57475   0.37922   0.00000  Uiso   1.00
O1259  O     0.22884   0.92412   0.62036   0.00000  Uiso   1.00
O1260  O     0.20630   0.93568   0.38013   0.00000  Uiso   1.00
O1261  O     0.28211   0.57159   0.61941   0.00000  Uiso   1.00
O1262  O     0.36801   0.70056   0.44850   0.00000  Uiso   1.00
O1263  O     0.12281   0.80903   0.56786   0.00000  Uiso   1.00
O1264  O     0.07351   0.87345   0.42784   0.00000  Uiso   1.00
O1265  O     0.44882   0.61240   0.55353   0.00000  Uiso   1.00
O1266  O     0.11820   0.68383   0.57068   0.00000  Uiso   1.00
O1267  O     0.45420   0.79581   0.53821   0.00000  Uiso   1.00
O1268  O     0.37678   0.80687   0.43410   0.00000  Uiso   1.00
O1269  O     0.41671   0.85835   0.57859   0.00000  Uiso   1.00
O1270  O     0.05922   0.62028   0.43676   0.00000  Uiso   1.00
O1271  O     0.11800   0.95057   0.44851   0.00000  Uiso   1.00
O1272  O     0.37281   0.55902   0.56786   0.00000  Uiso   1.00
O1273  O     0.32352   0.62344   0.42784   0.00000  Uiso   1.00
O1274  O     0.19882   0.86241   0.55353   0.00000  Uiso   1.00
O1275  O     0.36818   0.93380   0.57070   0.00000  Uiso   1.00
O1276  O     0.12677   0.55685   0.43412   0.00000  Uiso   1.00
O1277  O     0.16676   0.60839   0.57857   0.00000  Uiso   1.00
O1278  O     0.04581   0.70419   0.46179   0.00000  Uiso   1.00
O1279  O     0.30922   0.87029   0.43676   0.00000  Uiso   1.00
O1280  O     0.45420   0.70419   0.46179   0.00000  Uiso   1.00
O1281  O     0.04581   0.79581   0.53821   0.00000  Uiso   1.00
O1282  O     0.04581   0.79581   0.46179   0.00000  Uiso   1.00
O1283  O     0.45420   0.70419   0.53821   0.00000  Uiso   1.00
O1284  O     0.29581   0.95419   0.53821   0.00000  Uiso   1.00
Zn1285 Zn    0.00000   0.75000   0.55104   0.00000  Uiso   1.00
Zn1286 Zn    0.00000   0.75000   0.44896   0.00000  Uiso   1.00
Zn1287 Zn    0.25000   0.50000   0.55104   0.00000  Uiso   1.00
Zn1288 Zn    0.25000   0.50000   0.44896   0.00000  Uiso   1.00
C1289  C     0.55989   0.69010   0.49983   0.00000  Uiso   1.00
C1290  C     0.98781   0.71290   0.64305   0.00000  Uiso   1.00
C1291  C     0.98436   0.71412   0.35774   0.00000  Uiso   1.00
C1292  C     0.51203   0.78717   0.64229   0.00000  Uiso   1.00
C1293  C     0.76137   0.53720   0.35682   0.00000  Uiso   1.00
C1294  C     0.73781   0.96290   0.64305   0.00000  Uiso   1.00
C1295  C     0.73436   0.96412   0.35774   0.00000  Uiso   1.00
C1296  C     0.76204   0.53717   0.64229   0.00000  Uiso   1.00
C1297  C     0.87356   0.66168   0.47314   0.00000  Uiso   1.00
C1298  C     0.62593   0.84058   0.53376   0.00000  Uiso   1.00
C1299  C     0.59805   0.87469   0.46572   0.00000  Uiso   1.00
C1300  C     0.93889   0.80868   0.50031   0.00000  Uiso   1.00
C1301  C     0.91147   0.61921   0.52975   0.00000  Uiso   1.00
C1302  C     0.62049   0.65375   0.53562   0.00000  Uiso   1.00
C1303  C     0.87591   0.84186   0.46463   0.00000  Uiso   1.00
C1304  C     0.89716   0.86714   0.53858   0.00000  Uiso   1.00
C1305  C     0.59282   0.62358   0.46599   0.00000  Uiso   1.00
C1306  C     0.62356   0.91169   0.47314   0.00000  Uiso   1.00
C1307  C     0.87593   0.59058   0.53376   0.00000  Uiso   1.00
C1308  C     0.84805   0.62468   0.46572   0.00000  Uiso   1.00
C1309  C     0.66147   0.86921   0.52975   0.00000  Uiso   1.00
C1310  C     0.87047   0.90373   0.53563   0.00000  Uiso   1.00
C1311  C     0.94072   0.68969   0.50048   0.00000  Uiso   1.00
C1312  C     0.62591   0.59185   0.46463   0.00000  Uiso   1.00
C1313  C     0.64718   0.61716   0.53857   0.00000  Uiso   1.00
C1314  C     0.84282   0.87358   0.46598   0.00000  Uiso   1.00
C1315  C     0.59543   0.84159   0.49933   0.00000  Uiso   1.00
C1316  C     0.90793   0.65665   0.50169   0.00000  Uiso   1.00
C1317  C     0.90364   0.83982   0.50104   0.00000  Uiso   1.00
C1318  C     0.59230   0.65617   0.49975   0.00000  Uiso   1.00
C1319  C     0.84543   0.59159   0.49933   0.00000  Uiso   1.00
C1320  C     0.65793   0.90666   0.50169   0.00000  Uiso   1.00
C1321  C     0.65365   0.58983   0.50104   0.00000  Uiso   1.00
C1322  C     0.56064   0.80953   0.49967   0.00000  Uiso   1.00
C1323  C     0.84230   0.90617   0.49975   0.00000  Uiso   1.00
C1324  C     0.98801   0.85261   0.38893   0.00000  Uiso   1.00
C1325  C     0.51702   0.64827   0.61569   0.00000  Uiso   1.00
C1326  C     0.96906   0.64069   0.37710   0.00000  Uiso   1.00
C1327  C     0.50516   0.85924   0.61536   0.00000  Uiso   1.00
C1328  C     0.73801   0.60260   0.38895   0.00000  Uiso   1.00
C1329  C     0.76701   0.89826   0.61570   0.00000  Uiso   1.00
C1330  C     0.71905   0.89069   0.37710   0.00000  Uiso   1.00
C1331  C     0.75520   0.60926   0.61539   0.00000  Uiso   1.00
C1332  C     0.82996   0.72203   0.46365   0.00000  Uiso   1.00
C1333  C     0.80989   0.94010   0.49983   0.00000  Uiso   1.00
C1334  C     0.62477   0.82999   0.61016   0.00000  Uiso   1.00
C1335  C     0.60132   0.86952   0.38986   0.00000  Uiso   1.00
C1336  C     0.96540   0.56880   0.54630   0.00000  Uiso   1.00
C1337  C     0.65517   0.71088   0.56916   0.00000  Uiso   1.00
C1338  C     0.87109   0.82119   0.38960   0.00000  Uiso   1.00
C1339  C     0.88914   0.83099   0.60473   0.00000  Uiso   1.00
C1340  C     0.52791   0.59152   0.45577   0.00000  Uiso   1.00
C1341  C     0.57995   0.97203   0.46365   0.00000  Uiso   1.00
C1342  C     0.87477   0.57998   0.61016   0.00000  Uiso   1.00
C1343  C     0.85134   0.61951   0.38986   0.00000  Uiso   1.00
C1344  C     0.68889   0.55868   0.50031   0.00000  Uiso   1.00
C1345  C     0.71540   0.81881   0.54630   0.00000  Uiso   1.00
C1346  C     0.90515   0.96086   0.56920   0.00000  Uiso   1.00
C1347  C     0.62108   0.57116   0.38961   0.00000  Uiso   1.00
C1348  C     0.63917   0.58110   0.60476   0.00000  Uiso   1.00
C1349  C     0.77791   0.84152   0.45577   0.00000  Uiso   1.00
C1350  C     0.69072   0.93969   0.50048   0.00000  Uiso   1.00
C1351  C     0.81064   0.55953   0.49967   0.00000  Uiso   1.00
C1352  C     0.51137   0.78720   0.35682   0.00000  Uiso   1.00
H1353  H     0.98790   0.86118   0.42495   0.00000  Uiso   1.00
H1354  H     0.97391   0.85667   0.63363   0.00000  Uiso   1.00
H1355  H     0.99919   0.86534   0.57939   0.00000  Uiso   1.00
H1356  H     0.52229   0.88889   0.62808   0.00000  Uiso   1.00
H1357  H     0.73791   0.61117   0.42497   0.00000  Uiso   1.00
H1358  H     0.70638   0.58804   0.38079   0.00000  Uiso   1.00
H1359  H     0.74183   0.63477   0.37081   0.00000  Uiso   1.00
H1360  H     0.79683   0.91417   0.62831   0.00000  Uiso   1.00
H1361  H     0.77251   0.89008   0.58007   0.00000  Uiso   1.00
H1362  H     0.76276   0.86566   0.63292   0.00000  Uiso   1.00
H1363  H     0.70692   0.87323   0.40753   0.00000  Uiso   1.00
H1364  H     0.95638   0.83805   0.38077   0.00000  Uiso   1.00
H1365  H     0.75452   0.88639   0.37522   0.00000  Uiso   1.00
H1366  H     0.70311   0.87443   0.34862   0.00000  Uiso   1.00
H1367  H     0.74924   0.61540   0.57942   0.00000  Uiso   1.00
H1368  H     0.77235   0.63888   0.62814   0.00000  Uiso   1.00
H1369  H     0.72394   0.60670   0.63364   0.00000  Uiso   1.00
H1370  H     0.83594   0.74005   0.49537   0.00000  Uiso   1.00
H1371  H     0.80223   0.69897   0.46835   0.00000  Uiso   1.00
H1372  H     0.82008   0.74668   0.43803   0.00000  Uiso   1.00
H1373  H     0.60576   0.86160   0.61164   0.00000  Uiso   1.00
H1374  H     0.65828   0.83667   0.61983   0.00000  Uiso   1.00
H1375  H     0.99184   0.88477   0.37080   0.00000  Uiso   1.00
H1376  H     0.61148   0.80673   0.63583   0.00000  Uiso   1.00
H1377  H     0.58260   0.87501   0.35916   0.00000  Uiso   1.00
H1378  H     0.61581   0.83551   0.38842   0.00000  Uiso   1.00
H1379  H     0.62700   0.89509   0.38833   0.00000  Uiso   1.00
H1380  H     0.95836   0.55526   0.51253   0.00000  Uiso   1.00
H1381  H     0.95349   0.54547   0.57252   0.00000  Uiso   1.00
H1382  H     0.50079   0.56975   0.54943   0.00000  Uiso   1.00
H1383  H     0.68528   0.69108   0.57217   0.00000  Uiso   1.00
H1384  H     0.65378   0.73380   0.59817   0.00000  Uiso   1.00
H1385  H     0.65633   0.73128   0.53793   0.00000  Uiso   1.00
H1386  H     0.54684   0.66419   0.62828   0.00000  Uiso   1.00
H1387  H     0.88984   0.79822   0.36782   0.00000  Uiso   1.00
H1388  H     0.88243   0.85594   0.38300   0.00000  Uiso   1.00
H1389  H     0.83701   0.81757   0.38012   0.00000  Uiso   1.00
H1390  H     0.90862   0.81449   0.63060   0.00000  Uiso   1.00
H1391  H     0.87414   0.80365   0.58521   0.00000  Uiso   1.00
H1392  H     0.86385   0.85159   0.62152   0.00000  Uiso   1.00
H1393  H     0.54091   0.56555   0.47882   0.00000  Uiso   1.00
H1394  H     0.51218   0.57305   0.42856   0.00000  Uiso   1.00
H1395  H     0.50330   0.61195   0.47363   0.00000  Uiso   1.00
H1396  H     0.58593   0.99005   0.49537   0.00000  Uiso   1.00
H1397  H     0.52251   0.64007   0.58007   0.00000  Uiso   1.00
H1398  H     0.55222   0.94896   0.46836   0.00000  Uiso   1.00
H1399  H     0.57006   0.99667   0.43803   0.00000  Uiso   1.00
H1400  H     0.85577   0.61159   0.61164   0.00000  Uiso   1.00
H1401  H     0.90829   0.58666   0.61982   0.00000  Uiso   1.00
H1402  H     0.86148   0.55672   0.63583   0.00000  Uiso   1.00
H1403  H     0.83261   0.62493   0.35915   0.00000  Uiso   1.00
H1404  H     0.86587   0.58551   0.38847   0.00000  Uiso   1.00
H1405  H     0.87698   0.64512   0.38831   0.00000  Uiso   1.00
H1406  H     0.70836   0.80526   0.51254   0.00000  Uiso   1.00
H1407  H     0.70350   0.79548   0.57253   0.00000  Uiso   1.00
H1408  H     0.51279   0.61568   0.63293   0.00000  Uiso   1.00
H1409  H     0.75079   0.81976   0.54943   0.00000  Uiso   1.00
H1410  H     0.93526   0.94105   0.57223   0.00000  Uiso   1.00
H1411  H     0.90374   0.98377   0.59822   0.00000  Uiso   1.00
H1412  H     0.90632   0.98126   0.53797   0.00000  Uiso   1.00
H1413  H     0.63982   0.54817   0.36784   0.00000  Uiso   1.00
H1414  H     0.63243   0.60590   0.38300   0.00000  Uiso   1.00
H1415  H     0.58699   0.56754   0.38015   0.00000  Uiso   1.00
H1416  H     0.65863   0.56468   0.63070   0.00000  Uiso   1.00
H1417  H     0.62421   0.55369   0.58530   0.00000  Uiso   1.00
H1418  H     0.61385   0.60172   0.62147   0.00000  Uiso   1.00
H1419  H     0.95692   0.62323   0.40753   0.00000  Uiso   1.00
H1420  H     0.79091   0.81554   0.47880   0.00000  Uiso   1.00
H1421  H     0.76219   0.82305   0.42855   0.00000  Uiso   1.00
H1422  H     0.75330   0.86194   0.47362   0.00000  Uiso   1.00
H1423  H     0.50453   0.63639   0.37522   0.00000  Uiso   1.00
H1424  H     0.95313   0.62443   0.34862   0.00000  Uiso   1.00
N1425  N     0.50000   0.75000   0.61907   0.00000  Uiso   1.00
N1426  N     0.50000   0.75000   0.38093   0.00000  Uiso   1.00
N1427  N     0.75000   0.50000   0.61907   0.00000  Uiso   1.00
N1428  N     0.75000   0.50000   0.38093   0.00000  Uiso   1.00
O1429  O     0.54581   0.70419   0.53821   0.00000  Uiso   1.00
O1430  O     0.70420   0.54581   0.46179   0.00000  Uiso   1.00
O1431  O     0.70420   0.54581   0.53821   0.00000  Uiso   1.00
O1432  O     0.79581   0.95419   0.46179   0.00000  Uiso   1.00
O1433  O     0.70420   0.95419   0.46179   0.00000  Uiso   1.00
O1434  O     0.79581   0.54581   0.53821   0.00000  Uiso   1.00
O1435  O     0.79581   0.54581   0.46179   0.00000  Uiso   1.00
O1436  O     0.70420   0.95419   0.53821   0.00000  Uiso   1.00
O1437  O     0.52374   0.82475   0.37923   0.00000  Uiso   1.00
O1438  O     0.97884   0.67412   0.62036   0.00000  Uiso   1.00
O1439  O     0.95630   0.68567   0.38013   0.00000  Uiso   1.00
O1440  O     0.95420   0.79581   0.46179   0.00000  Uiso   1.00
O1441  O     0.53210   0.82159   0.61942   0.00000  Uiso   1.00
O1442  O     0.77374   0.57475   0.37922   0.00000  Uiso   1.00
O1443  O     0.72884   0.92412   0.62036   0.00000  Uiso   1.00
O1444  O     0.70630   0.93568   0.38013   0.00000  Uiso   1.00
O1445  O     0.78211   0.57159   0.61941   0.00000  Uiso   1.00
O1446  O     0.86801   0.70056   0.44850   0.00000  Uiso   1.00
O1447  O     0.62281   0.80903   0.56786   0.00000  Uiso   1.00
O1448  O     0.57351   0.87345   0.42784   0.00000  Uiso   1.00
O1449  O     0.94882   0.61240   0.55353   0.00000  Uiso   1.00
O1450  O     0.61820   0.68383   0.57068   0.00000  Uiso   1.00
O1451  O     0.95420   0.79581   0.53821   0.00000  Uiso   1.00
O1452  O     0.87678   0.80687   0.43410   0.00000  Uiso   1.00
O1453  O     0.91671   0.85835   0.57859   0.00000  Uiso   1.00
O1454  O     0.55922   0.62028   0.43676   0.00000  Uiso   1.00
O1455  O     0.61800   0.95057   0.44851   0.00000  Uiso   1.00
O1456  O     0.87281   0.55902   0.56786   0.00000  Uiso   1.00
O1457  O     0.82352   0.62344   0.42784   0.00000  Uiso   1.00
O1458  O     0.69882   0.86241   0.55353   0.00000  Uiso   1.00
O1459  O     0.86818   0.93380   0.57070   0.00000  Uiso   1.00
O1460  O     0.62677   0.55685   0.43412   0.00000  Uiso   1.00
O1461  O     0.66676   0.60839   0.57857   0.00000  Uiso   1.00
O1462  O     0.54581   0.70419   0.46179   0.00000  Uiso   1.00
O1463  O     0.80922   0.87029   0.43676   0.00000  Uiso   1.00
O1464  O     0.95420   0.70419   0.46179   0.00000  Uiso   1.00
O1465  O     0.54581   0.79581   0.53821   0.00000  Uiso   1.00
O1466  O     0.54581   0.79581   0.46179   0.00000  Uiso   1.00
O1467  O     0.95420   0.70419   0.53821   0.00000  Uiso   1.00
O1468  O     0.79581   0.95419   0.53821   0.00000  Uiso   1.00
Zn1469 Zn    0.50000   0.75000   0.55104   0.00000  Uiso   1.00
Zn1470 Zn    0.50000   0.75000   0.44896   0.00000  Uiso   1.00
Zn1471 Zn    0.75000   0.50000   0.55104   0.00000  Uiso   1.00
Zn1472 Zn    0.75000   0.50000   0.44896   0.00000  Uiso   1.00
C1473  C     0.05989   0.19010   0.83317   0.00000  Uiso   1.00
C1474  C     0.48781   0.21290   0.97638   0.00000  Uiso   1.00
C1475  C     0.48436   0.21412   0.69107   0.00000  Uiso   1.00
C1476  C     0.01203   0.28717   0.97562   0.00000  Uiso   1.00
C1477  C     0.26137   0.03720   0.69016   0.00000  Uiso   1.00
C1478  C     0.23781   0.46290   0.97638   0.00000  Uiso   1.00
C1479  C     0.23436   0.46412   0.69107   0.00000  Uiso   1.00
C1480  C     0.26204   0.03717   0.97562   0.00000  Uiso   1.00
C1481  C     0.37356   0.16168   0.80648   0.00000  Uiso   1.00
C1482  C     0.12593   0.34058   0.86710   0.00000  Uiso   1.00
C1483  C     0.09805   0.37469   0.79906   0.00000  Uiso   1.00
C1484  C     0.43889   0.30868   0.83365   0.00000  Uiso   1.00
C1485  C     0.41147   0.11921   0.86308   0.00000  Uiso   1.00
C1486  C     0.12049   0.15375   0.86895   0.00000  Uiso   1.00
C1487  C     0.37591   0.34186   0.79796   0.00000  Uiso   1.00
C1488  C     0.39716   0.36714   0.87191   0.00000  Uiso   1.00
C1489  C     0.09282   0.12358   0.79932   0.00000  Uiso   1.00
C1490  C     0.12356   0.41169   0.80648   0.00000  Uiso   1.00
C1491  C     0.37593   0.09058   0.86709   0.00000  Uiso   1.00
C1492  C     0.34805   0.12468   0.79905   0.00000  Uiso   1.00
C1493  C     0.16147   0.36921   0.86308   0.00000  Uiso   1.00
C1494  C     0.37047   0.40373   0.86896   0.00000  Uiso   1.00
C1495  C     0.44072   0.18969   0.83381   0.00000  Uiso   1.00
C1496  C     0.12591   0.09185   0.79797   0.00000  Uiso   1.00
C1497  C     0.14718   0.11716   0.87190   0.00000  Uiso   1.00
C1498  C     0.34282   0.37358   0.79932   0.00000  Uiso   1.00
C1499  C     0.09543   0.34159   0.83266   0.00000  Uiso   1.00
C1500  C     0.40793   0.15665   0.83503   0.00000  Uiso   1.00
C1501  C     0.40364   0.33982   0.83438   0.00000  Uiso   1.00
C1502  C     0.09230   0.15617   0.83308   0.00000  Uiso   1.00
C1503  C     0.34543   0.09159   0.83266   0.00000  Uiso   1.00
C1504  C     0.15793   0.40666   0.83503   0.00000  Uiso   1.00
C1505  C     0.15365   0.08983   0.83438   0.00000  Uiso   1.00
C1506  C     0.06064   0.30953   0.83301   0.00000  Uiso   1.00
C1507  C     0.34230   0.40617   0.83309   0.00000  Uiso   1.00
C1508  C     0.48801   0.35261   0.72226   0.00000  Uiso   1.00
C1509  C     0.01702   0.14827   0.94903   0.00000  Uiso   1.00
C1510  C     0.46906   0.14069   0.71043   0.00000  Uiso   1.00
C1511  C     0.00516   0.35924   0.94870   0.00000  Uiso   1.00
C1512  C     0.23801   0.10260   0.72228   0.00000  Uiso   1.00
C1513  C     0.26701   0.39826   0.94903   0.00000  Uiso   1.00
C1514  C     0.21905   0.39069   0.71043   0.00000  Uiso   1.00
C1515  C     0.25520   0.10926   0.94872   0.00000  Uiso   1.00
C1516  C     0.32996   0.22203   0.79698   0.00000  Uiso   1.00
C1517  C     0.30989   0.44010   0.83317   0.00000  Uiso   1.00
C1518  C     0.12477   0.32999   0.94349   0.00000  Uiso   1.00
C1519  C     0.10132   0.36952   0.72319   0.00000  Uiso   1.00
C1520  C     0.46540   0.06880   0.87963   0.00000  Uiso   1.00
C1521  C     0.15517   0.21088   0.90250   0.00000  Uiso   1.00
C1522  C     0.37109   0.32119   0.72293   0.00000  Uiso   1.00
C1523  C     0.38914   0.33099   0.93806   0.00000  Uiso   1.00
C1524  C     0.02791   0.09152   0.78911   0.00000  Uiso   1.00
C1525  C     0.07995   0.47203   0.79699   0.00000  Uiso   1.00
C1526  C     0.37477   0.07998   0.94349   0.00000  Uiso   1.00
C1527  C     0.35134   0.11951   0.72320   0.00000  Uiso   1.00
C1528  C     0.18889   0.05868   0.83365   0.00000  Uiso   1.00
C1529  C     0.21540   0.31881   0.87964   0.00000  Uiso   1.00
C1530  C     0.40515   0.46086   0.90254   0.00000  Uiso   1.00
C1531  C     0.12108   0.07116   0.72295   0.00000  Uiso   1.00
C1532  C     0.13917   0.08110   0.93810   0.00000  Uiso   1.00
C1533  C     0.27791   0.34152   0.78910   0.00000  Uiso   1.00
C1534  C     0.19072   0.43969   0.83381   0.00000  Uiso   1.00
C1535  C     0.31064   0.05953   0.83300   0.00000  Uiso   1.00
C1536  C     0.01137   0.28720   0.69016   0.00000  Uiso   1.00
H1537  H     0.48790   0.36118   0.75829   0.00000  Uiso   1.00
H1538  H     0.47391   0.35667   0.96696   0.00000  Uiso   1.00
H1539  H     0.49919   0.36534   0.91272   0.00000  Uiso   1.00
H1540  H     0.02229   0.38889   0.96141   0.00000  Uiso   1.00
H1541  H     0.23791   0.11117   0.75830   0.00000  Uiso   1.00
H1542  H     0.20638   0.08804   0.71412   0.00000  Uiso   1.00
H1543  H     0.24183   0.13477   0.70415   0.00000  Uiso   1.00
H1544  H     0.29683   0.41417   0.96165   0.00000  Uiso   1.00
H1545  H     0.27251   0.39008   0.91341   0.00000  Uiso   1.00
H1546  H     0.26276   0.36566   0.96625   0.00000  Uiso   1.00
H1547  H     0.20692   0.37323   0.74086   0.00000  Uiso   1.00
H1548  H     0.45638   0.33805   0.71410   0.00000  Uiso   1.00
H1549  H     0.25452   0.38639   0.70855   0.00000  Uiso   1.00
H1550  H     0.20311   0.37443   0.68195   0.00000  Uiso   1.00
H1551  H     0.24924   0.11540   0.91275   0.00000  Uiso   1.00
H1552  H     0.27235   0.13888   0.96147   0.00000  Uiso   1.00
H1553  H     0.22394   0.10670   0.96698   0.00000  Uiso   1.00
H1554  H     0.33594   0.24005   0.82870   0.00000  Uiso   1.00
H1555  H     0.30223   0.19897   0.80168   0.00000  Uiso   1.00
H1556  H     0.32008   0.24668   0.77136   0.00000  Uiso   1.00
H1557  H     0.10576   0.36160   0.94497   0.00000  Uiso   1.00
H1558  H     0.15828   0.33667   0.95316   0.00000  Uiso   1.00
H1559  H     0.49184   0.38477   0.70413   0.00000  Uiso   1.00
H1560  H     0.11148   0.30673   0.96916   0.00000  Uiso   1.00
H1561  H     0.08260   0.37501   0.69249   0.00000  Uiso   1.00
H1562  H     0.11581   0.33551   0.72176   0.00000  Uiso   1.00
H1563  H     0.12700   0.39509   0.72166   0.00000  Uiso   1.00
H1564  H     0.45836   0.05526   0.84586   0.00000  Uiso   1.00
H1565  H     0.45349   0.04547   0.90585   0.00000  Uiso   1.00
H1566  H     0.00079   0.06975   0.88277   0.00000  Uiso   1.00
H1567  H     0.18528   0.19108   0.90551   0.00000  Uiso   1.00
H1568  H     0.15378   0.23380   0.93151   0.00000  Uiso   1.00
H1569  H     0.15633   0.23128   0.87127   0.00000  Uiso   1.00
H1570  H     0.04684   0.16419   0.96161   0.00000  Uiso   1.00
H1571  H     0.38984   0.29822   0.70115   0.00000  Uiso   1.00
H1572  H     0.38243   0.35594   0.71633   0.00000  Uiso   1.00
H1573  H     0.33701   0.31757   0.71346   0.00000  Uiso   1.00
H1574  H     0.40862   0.31449   0.96393   0.00000  Uiso   1.00
H1575  H     0.37414   0.30365   0.91854   0.00000  Uiso   1.00
H1576  H     0.36385   0.35159   0.95486   0.00000  Uiso   1.00
H1577  H     0.04091   0.06555   0.81215   0.00000  Uiso   1.00
H1578  H     0.01218   0.07305   0.76189   0.00000  Uiso   1.00
H1579  H     0.00330   0.11195   0.80696   0.00000  Uiso   1.00
H1580  H     0.08593   0.49005   0.82870   0.00000  Uiso   1.00
H1581  H     0.02251   0.14007   0.91340   0.00000  Uiso   1.00
H1582  H     0.05222   0.44896   0.80170   0.00000  Uiso   1.00
H1583  H     0.07006   0.49667   0.77137   0.00000  Uiso   1.00
H1584  H     0.35577   0.11159   0.94497   0.00000  Uiso   1.00
H1585  H     0.40829   0.08666   0.95316   0.00000  Uiso   1.00
H1586  H     0.36148   0.05672   0.96916   0.00000  Uiso   1.00
H1587  H     0.33261   0.12493   0.69248   0.00000  Uiso   1.00
H1588  H     0.36587   0.08551   0.72180   0.00000  Uiso   1.00
H1589  H     0.37698   0.14512   0.72164   0.00000  Uiso   1.00
H1590  H     0.20836   0.30526   0.84587   0.00000  Uiso   1.00
H1591  H     0.20350   0.29548   0.90586   0.00000  Uiso   1.00
H1592  H     0.01279   0.11568   0.96627   0.00000  Uiso   1.00
H1593  H     0.25079   0.31976   0.88276   0.00000  Uiso   1.00
H1594  H     0.43526   0.44105   0.90556   0.00000  Uiso   1.00
H1595  H     0.40374   0.48377   0.93155   0.00000  Uiso   1.00
H1596  H     0.40632   0.48126   0.87130   0.00000  Uiso   1.00
H1597  H     0.13982   0.04817   0.70118   0.00000  Uiso   1.00
H1598  H     0.13243   0.10590   0.71633   0.00000  Uiso   1.00
H1599  H     0.08699   0.06754   0.71348   0.00000  Uiso   1.00
H1600  H     0.15863   0.06468   0.96403   0.00000  Uiso   1.00
H1601  H     0.12421   0.05369   0.91863   0.00000  Uiso   1.00
H1602  H     0.11385   0.10172   0.95480   0.00000  Uiso   1.00
H1603  H     0.45692   0.12323   0.74086   0.00000  Uiso   1.00
H1604  H     0.29091   0.31554   0.81214   0.00000  Uiso   1.00
H1605  H     0.26219   0.32305   0.76188   0.00000  Uiso   1.00
H1606  H     0.25330   0.36194   0.80695   0.00000  Uiso   1.00
H1607  H     0.00453   0.13639   0.70855   0.00000  Uiso   1.00
H1608  H     0.45313   0.12443   0.68195   0.00000  Uiso   1.00
N1609  N     0.00000   0.25000   0.95240   0.00000  Uiso   1.00
N1610  N     0.00000   0.25000   0.71427   0.00000  Uiso   1.00
N1611  N     0.25000  -0.00000   0.95240   0.00000  Uiso   1.00
N1612  N     0.25000  -0.00000   0.71427   0.00000  Uiso   1.00
O1613  O     0.04581   0.20419   0.87154   0.00000  Uiso   1.00
O1614  O     0.20420   0.04581   0.79513   0.00000  Uiso   1.00
O1615  O     0.20420   0.04581   0.87154   0.00000  Uiso   1.00
O1616  O     0.29581   0.45419   0.79513   0.00000  Uiso   1.00
O1617  O     0.20420   0.45419   0.79513   0.00000  Uiso   1.00
O1618  O     0.29581   0.04581   0.87154   0.00000  Uiso   1.00
O1619  O     0.29581   0.04581   0.79513   0.00000  Uiso   1.00
O1620  O     0.20420   0.45419   0.87154   0.00000  Uiso   1.00
O1621  O     0.02374   0.32475   0.71256   0.00000  Uiso   1.00
O1622  O     0.47884   0.17412   0.95369   0.00000  Uiso   1.00
O1623  O     0.45630   0.18567   0.71346   0.00000  Uiso   1.00
O1624  O     0.45420   0.29581   0.79513   0.00000  Uiso   1.00
O1625  O     0.03210   0.32159   0.95275   0.00000  Uiso   1.00
O1626  O     0.27374   0.07475   0.71256   0.00000  Uiso   1.00
O1627  O     0.22884   0.42412   0.95369   0.00000  Uiso   1.00
O1628  O     0.20630   0.43568   0.71346   0.00000  Uiso   1.00
O1629  O     0.28211   0.07159   0.95274   0.00000  Uiso   1.00
O1630  O     0.36801   0.20056   0.78184   0.00000  Uiso   1.00
O1631  O     0.12281   0.30903   0.90119   0.00000  Uiso   1.00
O1632  O     0.07351   0.37345   0.76118   0.00000  Uiso   1.00
O1633  O     0.44882   0.11240   0.88686   0.00000  Uiso   1.00
O1634  O     0.11820   0.18383   0.90401   0.00000  Uiso   1.00
O1635  O     0.45420   0.29581   0.87154   0.00000  Uiso   1.00
O1636  O     0.37678   0.30687   0.76743   0.00000  Uiso   1.00
O1637  O     0.41671   0.35835   0.91192   0.00000  Uiso   1.00
O1638  O     0.05922   0.12028   0.77009   0.00000  Uiso   1.00
O1639  O     0.11800   0.45057   0.78184   0.00000  Uiso   1.00
O1640  O     0.37281   0.05902   0.90119   0.00000  Uiso   1.00
O1641  O     0.32352   0.12344   0.76117   0.00000  Uiso   1.00
O1642  O     0.19882   0.36241   0.88687   0.00000  Uiso   1.00
O1643  O     0.36818   0.43380   0.90404   0.00000  Uiso   1.00
O1644  O     0.12677   0.05685   0.76745   0.00000  Uiso   1.00
O1645  O     0.16676   0.10839   0.91191   0.00000  Uiso   1.00
O1646  O     0.04581   0.20419   0.79513   0.00000  Uiso   1.00
O1647  O     0.30922   0.37029   0.77009   0.00000  Uiso   1.00
O1648  O     0.45420   0.20419   0.79513   0.00000  Uiso   1.00
O1649  O     0.04581   0.29581   0.87154   0.00000  Uiso   1.00
O1650  O     0.04581   0.29581   0.79513   0.00000  Uiso   1.00
O1651  O     0.45420   0.20419   0.87154   0.00000  Uiso   1.00
O1652  O     0.29581   0.45419   0.87154   0.00000  Uiso   1.00
Zn1653 Zn    0.00000   0.25000   0.88437   0.00000  Uiso   1.00
Zn1654 Zn    0.00000   0.25000   0.78229   0.00000  Uiso   1.00
Zn1655 Zn    0.25000  -0.00000   0.88437   0.00000  Uiso   1.00
Zn1656 Zn    0.25000  -0.00000   0.78229   0.00000  Uiso   1.00
C1657  C     0.55989   0.19010   0.83317   0.00000  Uiso   1.00
C1658  C     0.98781   0.21290   0.97638   0.00000  Uiso   1.00
C1659  C     0.98436   0.21412   0.69107   0.00000  Uiso   1.00
C1660  C     0.51203   0.28717   0.97562   0.00000  Uiso   1.00
C1661  C     0.76137   0.03720   0.69016   0.00000  Uiso   1.00
C1662  C     0.73781   0.46290   0.97638   0.00000  Uiso   1.00
C1663  C     0.73436   0.46412   0.69107   0.00000  Uiso   1.00
C1664  C     0.76204   0.03717   0.97562   0.00000  Uiso   1.00
C1665  C     0.87356   0.16168   0.80648   0.00000  Uiso   1.00
C1666  C     0.62593   0.34058   0.86710   0.00000  Uiso   1.00
C1667  C     0.59805   0.37469   0.79906   0.00000  Uiso   1.00
C1668  C     0.93889   0.30868   0.83365   0.00000  Uiso   1.00
C1669  C     0.91147   0.11921   0.86308   0.00000  Uiso   1.00
C1670  C     0.62049   0.15375   0.86895   0.00000  Uiso   1.00
C1671  C     0.87591   0.34186   0.79796   0.00000  Uiso   1.00
C1672  C     0.89716   0.36714   0.87191   0.00000  Uiso   1.00
C1673  C     0.59282   0.12358   0.79932   0.00000  Uiso   1.00
C1674  C     0.62356   0.41169   0.80648   0.00000  Uiso   1.00
C1675  C     0.87593   0.09058   0.86709   0.00000  Uiso   1.00
C1676  C     0.84805   0.12468   0.79905   0.00000  Uiso   1.00
C1677  C     0.66147   0.36921   0.86308   0.00000  Uiso   1.00
C1678  C     0.87047   0.40373   0.86896   0.00000  Uiso   1.00
C1679  C     0.94072   0.18969   0.83381   0.00000  Uiso   1.00
C1680  C     0.62591   0.09185   0.79797   0.00000  Uiso   1.00
C1681  C     0.64718   0.11716   0.87190   0.00000  Uiso   1.00
C1682  C     0.84282   0.37358   0.79932   0.00000  Uiso   1.00
C1683  C     0.59543   0.34159   0.83266   0.00000  Uiso   1.00
C1684  C     0.90793   0.15665   0.83503   0.00000  Uiso   1.00
C1685  C     0.90364   0.33982   0.83438   0.00000  Uiso   1.00
C1686  C     0.59230   0.15617   0.83308   0.00000  Uiso   1.00
C1687  C     0.84543   0.09159   0.83266   0.00000  Uiso   1.00
C1688  C     0.65793   0.40666   0.83503   0.00000  Uiso   1.00
C1689  C     0.65365   0.08983   0.83438   0.00000  Uiso   1.00
C1690  C     0.56064   0.30953   0.83301   0.00000  Uiso   1.00
C1691  C     0.84230   0.40617   0.83309   0.00000  Uiso   1.00
C1692  C     0.98801   0.35261   0.72226   0.00000  Uiso   1.00
C1693  C     0.51702   0.14827   0.94903   0.00000  Uiso   1.00
C1694  C     0.96906   0.14069   0.71043   0.00000  Uiso   1.00
C1695  C     0.50516   0.35924   0.94870   0.00000  Uiso   1.00
C1696  C     0.73801   0.10260   0.72228   0.00000  Uiso   1.00
C1697  C     0.76701   0.39826   0.94903   0.00000  Uiso   1.00
C1698  C     0.71905   0.39069   0.71043   0.00000  Uiso   1.00
C1699  C     0.75520   0.10926   0.94872   0.00000  Uiso   1.00
C1700  C     0.82996   0.22203   0.79698   0.00000  Uiso   1.00
C1701  C     0.80989   0.44010   0.83317   0.00000  Uiso   1.00
C1702  C     0.62477   0.32999   0.94349   0.00000  Uiso   1.00
C1703  C     0.60132   0.36952   0.72319   0.00000  Uiso   1.00
C1704  C     0.96540   0.06880   0.87963   0.00000  Uiso   1.00
C1705  C     0.65517   0.21088   0.90250   0.00000  Uiso   1.00
C1706  C     0.87109   0.32119   0.72293   0.00000  Uiso   1.00
C1707  C     0.88914   0.33099   0.93806   0.00000  Uiso   1.00
C1708  C     0.52791   0.09152   0.78911   0.00000  Uiso   1.00
C1709  C     0.57995   0.47203   0.79699   0.00000  Uiso   1.00
C1710  C     0.87477   0.07998   0.94349   0.00000  Uiso   1.00
C1711  C     0.85134   0.11951   0.72320   0.00000  Uiso   1.00
C1712  C     0.68889   0.05868   0.83365   0.00000  Uiso   1.00
C1713  C     0.71540   0.31881   0.87964   0.00000  Uiso   1.00
C1714  C     0.90515   0.46086   0.90254   0.00000  Uiso   1.00
C1715  C     0.62108   0.07116   0.72295   0.00000  Uiso   1.00
C1716  C     0.63917   0.08110   0.93810   0.00000  Uiso   1.00
C1717  C     0.77791   0.34152   0.78910   0.00000  Uiso   1.00
C1718  C     0.69072   0.43969   0.83381   0.00000  Uiso   1.00
C1719  C     0.81064   0.05953   0.83300   0.00000  Uiso   1.00
C1720  C     0.51137   0.28720   0.69016   0.00000  Uiso   1.00
H1721  H     0.98790   0.36118   0.75829   0.00000  Uiso   1.00
H1722  H     0.97391   0.35667   0.96696   0.00000  Uiso   1.00
H1723  H     0.99919   0.36534   0.91272   0.00000  Uiso   1.00
H1724  H     0.52229   0.38889   0.96141   0.00000  Uiso   1.00
H1725  H     0.73791   0.11117   0.75830   0.00000  Uiso   1.00
H1726  H     0.70638   0.08804   0.71412   0.00000  Uiso   1.00
H1727  H     0.74183   0.13477   0.70415   0.00000  Uiso   1.00
H1728  H     0.79683   0.41417   0.96165   0.00000  Uiso   1.00
H1729  H     0.77251   0.39008   0.91341   0.00000  Uiso   1.00
H1730  H     0.76276   0.36566   0.96625   0.00000  Uiso   1.00
H1731  H     0.70692   0.37323   0.74086   0.00000  Uiso   1.00
H1732  H     0.95638   0.33805   0.71410   0.00000  Uiso   1.00
H1733  H     0.75452   0.38639   0.70855   0.00000  Uiso   1.00
H1734  H     0.70311   0.37443   0.68195   0.00000  Uiso   1.00
H1735  H     0.74924   0.11540   0.91275   0.00000  Uiso   1.00
H1736  H     0.77235   0.13888   0.96147   0.00000  Uiso   1.00
H1737  H     0.72394   0.10670   0.96698   0.00000  Uiso   1.00
H1738  H     0.83594   0.24005   0.82870   0.00000  Uiso   1.00
H1739  H     0.80223   0.19897   0.80168   0.00000  Uiso   1.00
H1740  H     0.82008   0.24668   0.77136   0.00000  Uiso   1.00
H1741  H     0.60576   0.36160   0.94497   0.00000  Uiso   1.00
H1742  H     0.65828   0.33667   0.95316   0.00000  Uiso   1.00
H1743  H     0.99184   0.38477   0.70413   0.00000  Uiso   1.00
H1744  H     0.61148   0.30673   0.96916   0.00000  Uiso   1.00
H1745  H     0.58260   0.37501   0.69249   0.00000  Uiso   1.00
H1746  H     0.61581   0.33551   0.72176   0.00000  Uiso   1.00
H1747  H     0.62700   0.39509   0.72166   0.00000  Uiso   1.00
H1748  H     0.95836   0.05526   0.84586   0.00000  Uiso   1.00
H1749  H     0.95349   0.04547   0.90585   0.00000  Uiso   1.00
H1750  H     0.50079   0.06975   0.88277   0.00000  Uiso   1.00
H1751  H     0.68528   0.19108   0.90551   0.00000  Uiso   1.00
H1752  H     0.65378   0.23380   0.93151   0.00000  Uiso   1.00
H1753  H     0.65633   0.23128   0.87127   0.00000  Uiso   1.00
H1754  H     0.54684   0.16419   0.96161   0.00000  Uiso   1.00
H1755  H     0.88984   0.29822   0.70115   0.00000  Uiso   1.00
H1756  H     0.88243   0.35594   0.71633   0.00000  Uiso   1.00
H1757  H     0.83701   0.31757   0.71346   0.00000  Uiso   1.00
H1758  H     0.90862   0.31449   0.96393   0.00000  Uiso   1.00
H1759  H     0.87414   0.30365   0.91854   0.00000  Uiso   1.00
H1760  H     0.86385   0.35159   0.95486   0.00000  Uiso   1.00
H1761  H     0.54091   0.06555   0.81215   0.00000  Uiso   1.00
H1762  H     0.51218   0.07305   0.76189   0.00000  Uiso   1.00
H1763  H     0.50330   0.11195   0.80696   0.00000  Uiso   1.00
H1764  H     0.58593   0.49005   0.82870   0.00000  Uiso   1.00
H1765  H     0.52251   0.14007   0.91340   0.00000  Uiso   1.00
H1766  H     0.55222   0.44896   0.80170   0.00000  Uiso   1.00
H1767  H     0.57006   0.49667   0.77137   0.00000  Uiso   1.00
H1768  H     0.85577   0.11159   0.94497   0.00000  Uiso   1.00
H1769  H     0.90829   0.08666   0.95316   0.00000  Uiso   1.00
H1770  H     0.86148   0.05672   0.96916   0.00000  Uiso   1.00
H1771  H     0.83261   0.12493   0.69248   0.00000  Uiso   1.00
H1772  H     0.86587   0.08551   0.72180   0.00000  Uiso   1.00
H1773  H     0.87698   0.14512   0.72164   0.00000  Uiso   1.00
H1774  H     0.70836   0.30526   0.84587   0.00000  Uiso   1.00
H1775  H     0.70350   0.29548   0.90586   0.00000  Uiso   1.00
H1776  H     0.51279   0.11568   0.96627   0.00000  Uiso   1.00
H1777  H     0.75079   0.31976   0.88276   0.00000  Uiso   1.00
H1778  H     0.93526   0.44105   0.90556   0.00000  Uiso   1.00
H1779  H     0.90374   0.48377   0.93155   0.00000  Uiso   1.00
H1780  H     0.90632   0.48126   0.87130   0.00000  Uiso   1.00
H1781  H     0.63982   0.04817   0.70118   0.00000  Uiso   1.00
H1782  H     0.63243   0.10590   0.71633   0.00000  Uiso   1.00
H1783  H     0.58699   0.06754   0.71348   0.00000  Uiso   1.00
H1784  H     0.65863   0.06468   0.96403   0.00000  Uiso   1.00
H1785  H     0.62421   0.05369   0.91863   0.00000  Uiso   1.00
H1786  H     0.61385   0.10172   0.95480   0.00000  Uiso   1.00
H1787  H     0.95692   0.12323   0.74086   0.00000  Uiso   1.00
H1788  H     0.79091   0.31554   0.81214   0.00000  Uiso   1.00
H1789  H     0.76219   0.32305   0.76188   0.00000  Uiso   1.00
H1790  H     0.75330   0.36194   0.80695   0.00000  Uiso   1.00
H1791  H     0.50453   0.13639   0.70855   0.00000  Uiso   1.00
H1792  H     0.95313   0.12443   0.68195   0.00000  Uiso   1.00
N1793  N     0.50000   0.25000   0.95240   0.00000  Uiso   1.00
N1794  N     0.50000   0.25000   0.71427   0.00000  Uiso   1.00
N1795  N     0.75000  -0.00000   0.95240   0.00000  Uiso   1.00
N1796  N     0.75000  -0.00000   0.71427   0.00000  Uiso   1.00
O1797  O     0.54581   0.20419   0.87154   0.00000  Uiso   1.00
O1798  O     0.70420   0.04581   0.79513   0.00000  Uiso   1.00
O1799  O     0.70420   0.04581   0.87154   0.00000  Uiso   1.00
O1800  O     0.79581   0.45419   0.79513   0.00000  Uiso   1.00
O1801  O     0.70420   0.45419   0.79513   0.00000  Uiso   1.00
O1802  O     0.79581   0.04581   0.87154   0.00000  Uiso   1.00
O1803  O     0.79581   0.04581   0.79513   0.00000  Uiso   1.00
O1804  O     0.70420   0.45419   0.87154   0.00000  Uiso   1.00
O1805  O     0.52374   0.32475   0.71256   0.00000  Uiso   1.00
O1806  O     0.97884   0.17412   0.95369   0.00000  Uiso   1.00
O1807  O     0.95630   0.18567   0.71346   0.00000  Uiso   1.00
O1808  O     0.95420   0.29581   0.79513   0.00000  Uiso   1.00
O1809  O     0.53210   0.32159   0.95275   0.00000  Uiso   1.00
O1810  O     0.77374   0.07475   0.71256   0.00000  Uiso   1.00
O1811  O     0.72884   0.42412   0.95369   0.00000  Uiso   1.00
O1812  O     0.70630   0.43568   0.71346   0.00000  Uiso   1.00
O1813  O     0.78211   0.07159   0.95274   0.00000  Uiso   1.00
O1814  O     0.86801   0.20056   0.78184   0.00000  Uiso   1.00
O1815  O     0.62281   0.30903   0.90119   0.00000  Uiso   1.00
O1816  O     0.57351   0.37345   0.76118   0.00000  Uiso   1.00
O1817  O     0.94882   0.11240   0.88686   0.00000  Uiso   1.00
O1818  O     0.61820   0.18383   0.90401   0.00000  Uiso   1.00
O1819  O     0.95420   0.29581   0.87154   0.00000  Uiso   1.00
O1820  O     0.87678   0.30687   0.76743   0.00000  Uiso   1.00
O1821  O     0.91671   0.35835   0.91192   0.00000  Uiso   1.00
O1822  O     0.55922   0.12028   0.77009   0.00000  Uiso   1.00
O1823  O     0.61800   0.45057   0.78184   0.00000  Uiso   1.00
O1824  O     0.87281   0.05902   0.90119   0.00000  Uiso   1.00
O1825  O     0.82352   0.12344   0.76117   0.00000  Uiso   1.00
O1826  O     0.69882   0.36241   0.88687   0.00000  Uiso   1.00
O1827  O     0.86818   0.43380   0.90404   0.00000  Uiso   1.00
O1828  O     0.62677   0.05685   0.76745   0.00000  Uiso   1.00
O1829  O     0.66676   0.10839   0.91191   0.00000  Uiso   1.00
O1830  O     0.54581   0.20419   0.79513   0.00000  Uiso   1.00
O1831  O     0.80922   0.37029   0.77009   0.00000  Uiso   1.00
O1832  O     0.95420   0.20419   0.79513   0.00000  Uiso   1.00
O1833  O     0.54581   0.29581   0.87154   0.00000  Uiso   1.00
O1834  O     0.54581   0.29581   0.79513   0.00000  Uiso   1.00
O1835  O     0.95420   0.20419   0.87154   0.00000  Uiso   1.00
O1836  O     0.79581   0.45419   0.87154   0.00000  Uiso   1.00
Zn1837 Zn    0.50000   0.25000   0.88437   0.00000  Uiso   1.00
Zn1838 Zn    0.50000   0.25000   0.78229   0.00000  Uiso   1.00
Zn1839 Zn    0.75000  -0.00000   0.88437   0.00000  Uiso   1.00
Zn1840 Zn    0.75000  -0.00000   0.78229   0.00000  Uiso   1.00
C1841  C     0.05989   0.69010   0.83317   0.00000  Uiso   1.00
C1842  C     0.48781   0.71290   0.97638   0.00000  Uiso   1.00
C1843  C     0.48436   0.71412   0.69107   0.00000  Uiso   1.00
C1844  C     0.01203   0.78717   0.97562   0.00000  Uiso   1.00
C1845  C     0.26137   0.53720   0.69016   0.00000  Uiso   1.00
C1846  C     0.23781   0.96290   0.97638   0.00000  Uiso   1.00
C1847  C     0.23436   0.96412   0.69107   0.00000  Uiso   1.00
C1848  C     0.26204   0.53717   0.97562   0.00000  Uiso   1.00
C1849  C     0.37356   0.66168   0.80648   0.00000  Uiso   1.00
C1850  C     0.12593   0.84058   0.86710   0.00000  Uiso   1.00
C1851  C     0.09805   0.87469   0.79906   0.00000  Uiso   1.00
C1852  C     0.43889   0.80868   0.83365   0.00000  Uiso   1.00
C1853  C     0.41147   0.61921   0.86308   0.00000  Uiso   1.00
C1854  C     0.12049   0.65375   0.86895   0.00000  Uiso   1.00
C1855  C     0.37591   0.84186   0.79796   0.00000  Uiso   1.00
C1856  C     0.39716   0.86714   0.87191   0.00000  Uiso   1.00
C1857  C     0.09282   0.62358   0.79932   0.00000  Uiso   1.00
C1858  C     0.12356   0.91169   0.80648   0.00000  Uiso   1.00
C1859  C     0.37593   0.59058   0.86709   0.00000  Uiso   1.00
C1860  C     0.34805   0.62468   0.79905   0.00000  Uiso   1.00
C1861  C     0.16147   0.86921   0.86308   0.00000  Uiso   1.00
C1862  C     0.37047   0.90373   0.86896   0.00000  Uiso   1.00
C1863  C     0.44072   0.68969   0.83381   0.00000  Uiso   1.00
C1864  C     0.12591   0.59185   0.79797   0.00000  Uiso   1.00
C1865  C     0.14718   0.61716   0.87190   0.00000  Uiso   1.00
C1866  C     0.34282   0.87358   0.79932   0.00000  Uiso   1.00
C1867  C     0.09543   0.84159   0.83266   0.00000  Uiso   1.00
C1868  C     0.40793   0.65665   0.83503   0.00000  Uiso   1.00
C1869  C     0.40364   0.83982   0.83438   0.00000  Uiso   1.00
C1870  C     0.09230   0.65617   0.83308   0.00000  Uiso   1.00
C1871  C     0.34543   0.59159   0.83266   0.00000  Uiso   1.00
C1872  C     0.15793   0.90666   0.83503   0.00000  Uiso   1.00
C1873  C     0.15365   0.58983   0.83438   0.00000  Uiso   1.00
C1874  C     0.06064   0.80953   0.83301   0.00000  Uiso   1.00
C1875  C     0.34230   0.90617   0.83309   0.00000  Uiso   1.00
C1876  C     0.48801   0.85261   0.72226   0.00000  Uiso   1.00
C1877  C     0.01702   0.64827   0.94903   0.00000  Uiso   1.00
C1878  C     0.46906   0.64069   0.71043   0.00000  Uiso   1.00
C1879  C     0.00516   0.85924   0.94870   0.00000  Uiso   1.00
C1880  C     0.23801   0.60260   0.72228   0.00000  Uiso   1.00
C1881  C     0.26701   0.89826   0.94903   0.00000  Uiso   1.00
C1882  C     0.21905   0.89069   0.71043   0.00000  Uiso   1.00
C1883  C     0.25520   0.60926   0.94872   0.00000  Uiso   1.00
C1884  C     0.32996   0.72203   0.79698   0.00000  Uiso   1.00
C1885  C     0.30989   0.94010   0.83317   0.00000  Uiso   1.00
C1886  C     0.12477   0.82999   0.94349   0.00000  Uiso   1.00
C1887  C     0.10132   0.86952   0.72319   0.00000  Uiso   1.00
C1888  C     0.46540   0.56880   0.87963   0.00000  Uiso   1.00
C1889  C     0.15517   0.71088   0.90250   0.00000  Uiso   1.00
C1890  C     0.37109   0.82119   0.72293   0.00000  Uiso   1.00
C1891  C     0.38914   0.83099   0.93806   0.00000  Uiso   1.00
C1892  C     0.02791   0.59152   0.78911   0.00000  Uiso   1.00
C1893  C     0.07995   0.97203   0.79699   0.00000  Uiso   1.00
C1894  C     0.37477   0.57998   0.94349   0.00000  Uiso   1.00
C1895  C     0.35134   0.61951   0.72320   0.00000  Uiso   1.00
C1896  C     0.18889   0.55868   0.83365   0.00000  Uiso   1.00
C1897  C     0.21540   0.81881   0.87964   0.00000  Uiso   1.00
C1898  C     0.40515   0.96086   0.90254   0.00000  Uiso   1.00
C1899  C     0.12108   0.57116   0.72295   0.00000  Uiso   1.00
C1900  C     0.13917   0.58110   0.93810   0.00000  Uiso   1.00
C1901  C     0.27791   0.84152   0.78910   0.00000  Uiso   1.00
C1902  C     0.19072   0.93969   0.83381   0.00000  Uiso   1.00
C1903  C     0.31064   0.55953   0.83300   0.00000  Uiso   1.00
C1904  C     0.01137   0.78720   0.69016   0.00000  Uiso   1.00
H1905  H     0.48790   0.86118   0.75829   0.00000  Uiso   1.00
H1906  H     0.47391   0.85667   0.96696   0.00000  Uiso   1.00
H1907  H     0.49919   0.86534   0.91272   0.00000  Uiso   1.00
H1908  H     0.02229   0.88889   0.96141   0.00000  Uiso   1.00
H1909  H     0.23791   0.61117   0.75830   0.00000  Uiso   1.00
H1910  H     0.20638   0.58804   0.71412   0.00000  Uiso   1.00
H1911  H     0.24183   0.63477   0.70415   0.00000  Uiso   1.00
H1912  H     0.29683   0.91417   0.96165   0.00000  Uiso   1.00
H1913  H     0.27251   0.89008   0.91341   0.00000  Uiso   1.00
H1914  H     0.26276   0.86566   0.96625   0.00000  Uiso   1.00
H1915  H     0.20692   0.87323   0.74086   0.00000  Uiso   1.00
H1916  H     0.45638   0.83805   0.71410   0.00000  Uiso   1.00
H1917  H     0.25452   0.88639   0.70855   0.00000  Uiso   1.00
H1918  H     0.20311   0.87443   0.68195   0.00000  Uiso   1.00
H1919  H     0.24924   0.61540   0.91275   0.00000  Uiso   1.00
H1920  H     0.27235   0.63888   0.96147   0.00000  Uiso   1.00
H1921  H     0.22394   0.60670   0.96698   0.00000  Uiso   1.00
H1922  H     0.33594   0.74005   0.82870   0.00000  Uiso   1.00
H1923  H     0.30223   0.69897   0.80168   0.00000  Uiso   1.00
H1924  H     0.32008   0.74668   0.77136   0.00000  Uiso   1.00
H1925  H     0.10576   0.86160   0.94497   0.00000  Uiso   1.00
H1926  H     0.15828   0.83667   0.95316   0.00000  Uiso   1.00
H1927  H     0.49184   0.88477   0.70413   0.00000  Uiso   1.00
H1928  H     0.11148   0.80673   0.96916   0.00000  Uiso   1.00
H1929  H     0.08260   0.87501   0.69249   0.00000  Uiso   1.00
H1930  H     0.11581   0.83551   0.72176   0.00000  Uiso   1.00
H1931  H     0.12700   0.89509   0.72166   0.00000  Uiso   1.00
H1932  H     0.45836   0.55526   0.84586   0.00000  Uiso   1.00
H1933  H     0.45349   0.54547   0.90585   0.00000  Uiso   1.00
H1934  H     0.00079   0.56975   0.88277   0.00000  Uiso   1.00
H1935  H     0.18528   0.69108   0.90551   0.00000  Uiso   1.00
H1936  H     0.15378   0.73380   0.93151   0.00000  Uiso   1.00
H1937  H     0.15633   0.73128   0.87127   0.00000  Uiso   1.00
H1938  H     0.04684   0.66419   0.96161   0.00000  Uiso   1.00
H1939  H     0.38984   0.79822   0.70115   0.00000  Uiso   1.00
H1940  H     0.38243   0.85594   0.71633   0.00000  Uiso   1.00
H1941  H     0.33701   0.81757   0.71346   0.00000  Uiso   1.00
H1942  H     0.40862   0.81449   0.96393   0.00000  Uiso   1.00
H1943  H     0.37414   0.80365   0.91854   0.00000  Uiso   1.00
H1944  H     0.36385   0.85159   0.95486   0.00000  Uiso   1.00
H1945  H     0.04091   0.56555   0.81215   0.00000  Uiso   1.00
H1946  H     0.01218   0.57305   0.76189   0.00000  Uiso   1.00
H1947  H     0.00330   0.61195   0.80696   0.00000  Uiso   1.00
H1948  H     0.08593   0.99005   0.82870   0.00000  Uiso   1.00
H1949  H     0.02251   0.64007   0.91340   0.00000  Uiso   1.00
H1950  H     0.05222   0.94896   0.80170   0.00000  Uiso   1.00
H1951  H     0.07006   0.99667   0.77137   0.00000  Uiso   1.00
H1952  H     0.35577   0.61159   0.94497   0.00000  Uiso   1.00
H1953  H     0.40829   0.58666   0.95316   0.00000  Uiso   1.00
H1954  H     0.36148   0.55672   0.96916   0.00000  Uiso   1.00
H1955  H     0.33261   0.62493   0.69248   0.00000  Uiso   1.00
H1956  H     0.36587   0.58551   0.72180   0.00000  Uiso   1.00
H1957  H     0.37698   0.64512   0.72164   0.00000  Uiso   1.00
H1958  H     0.20836   0.80526   0.84587   0.00000  Uiso   1.00
H1959  H     0.20350   0.79548   0.90586   0.00000  Uiso   1.00
H1960  H     0.01279   0.61568   0.96627   0.00000  Uiso   1.00
H1961  H     0.25079   0.81976   0.88276   0.00000  Uiso   1.00
H1962  H     0.43526   0.94105   0.90556   0.00000  Uiso   1.00
H1963  H     0.40374   0.98377   0.93155   0.00000  Uiso   1.00
H1964  H     0.40632   0.98126   0.87130   0.00000  Uiso   1.00
H1965  H     0.13982   0.54817   0.70118   0.00000  Uiso   1.00
H1966  H     0.13243   0.60590   0.71633   0.00000  Uiso   1.00
H1967  H     0.08699   0.56754   0.71348   0.00000  Uiso   1.00
H1968  H     0.15863   0.56468   0.96403   0.00000  Uiso   1.00
H1969  H     0.12421   0.55369   0.91863   0.00000  Uiso   1.00
H1970  H     0.11385   0.60172   0.95480   0.00000  Uiso   1.00
H1971  H     0.45692   0.62323   0.74086   0.00000  Uiso   1.00
H1972  H     0.29091   0.81554   0.81214   0.00000  Uiso   1.00
H1973  H     0.26219   0.82305   0.76188   0.00000  Uiso   1.00
H1974  H     0.25330   0.86194   0.80695   0.00000  Uiso   1.00
H1975  H     0.00453   0.63639   0.70855   0.00000  Uiso   1.00
H1976  H     0.45313   0.62443   0.68195   0.00000  Uiso   1.00
N1977  N     0.00000   0.75000   0.95240   0.00000  Uiso   1.00
N1978  N     0.00000   0.75000   0.71427   0.00000  Uiso   1.00
N1979  N     0.25000   0.50000   0.95240   0.00000  Uiso   1.00
N1980  N     0.25000   0.50000   0.71427   0.00000  Uiso   1.00
O1981  O     0.04581   0.70419   0.87154   0.00000  Uiso   1.00
O1982  O     0.20420   0.54581   0.79513   0.00000  Uiso   1.00
O1983  O     0.20420   0.54581   0.87154   0.00000  Uiso   1.00
O1984  O     0.29581   0.95419   0.79513   0.00000  Uiso   1.00
O1985  O     0.20420   0.95419   0.79513   0.00000  Uiso   1.00
O1986  O     0.29581   0.54581   0.87154   0.00000  Uiso   1.00
O1987  O     0.29581   0.54581   0.79513   0.00000  Uiso   1.00
O1988  O     0.20420   0.95419   0.87154   0.00000  Uiso   1.00
O1989  O     0.02374   0.82475   0.71256   0.00000  Uiso   1.00
O1990  O     0.47884   0.67412   0.95369   0.00000  Uiso   1.00
O1991  O     0.45630   0.68567   0.71346   0.00000  Uiso   1.00
O1992  O     0.45420   0.79581   0.79513   0.00000  Uiso   1.00
O1993  O     0.03210   0.82159   0.95275   0.00000  Uiso   1.00
O1994  O     0.27374   0.57475   0.71256   0.00000  Uiso   1.00
O1995  O     0.22884   0.92412   0.95369   0.00000  Uiso   1.00
O1996  O     0.20630   0.93568   0.71346   0.00000  Uiso   1.00
O1997  O     0.28211   0.57159   0.95274   0.00000  Uiso   1.00
O1998  O     0.36801   0.70056   0.78184   0.00000  Uiso   1.00
O1999  O     0.12281   0.80903   0.90119   0.00000  Uiso   1.00
O2000  O     0.07351   0.87345   0.76118   0.00000  Uiso   1.00
O2001  O     0.44882   0.61240   0.88686   0.00000  Uiso   1.00
O2002  O     0.11820   0.68383   0.90401   0.00000  Uiso   1.00
O2003  O     0.45420   0.79581   0.87154   0.00000  Uiso   1.00
O2004  O     0.37678   0.80687   0.76743   0.00000  Uiso   1.00
O2005  O     0.41671   0.85835   0.91192   0.00000  Uiso   1.00
O2006  O     0.05922   0.62028   0.77009   0.00000  Uiso   1.00
O2007  O     0.11800   0.95057   0.78184   0.00000  Uiso   1.00
O2008  O     0.37281   0.55902   0.90119   0.00000  Uiso   1.00
O2009  O     0.32352   0.62344   0.76117   0.00000  Uiso   1.00
O2010  O     0.19882   0.86241   0.88687   0.00000  Uiso   1.00
O2011  O     0.36818   0.93380   0.90404   0.00000  Uiso   1.00
O2012  O     0.12677   0.55685   0.76745   0.00000  Uiso   1.00
O2013  O     0.16676   0.60839   0.91191   0.00000  Uiso   1.00
O2014  O     0.04581   0.70419   0.79513   0.00000  Uiso   1.00
O2015  O     0.30922   0.87029   0.77009   0.00000  Uiso   1.00
O2016  O     0.45420   0.70419   0.79513   0.00000  Uiso   1.00
O2017  O     0.04581   0.79581   0.87154   0.00000  Uiso   1.00
O2018  O     0.04581   0.79581   0.79513   0.00000  Uiso   1.00
O2019  O     0.45420   0.70419   0.87154   0.00000  Uiso   1.00
O2020  O     0.29581   0.95419   0.87154   0.00000  Uiso   1.00
Zn2021 Zn    0.00000   0.75000   0.88437   0.00000  Uiso   1.00
Zn2022 Zn    0.00000   0.75000   0.78229   0.00000  Uiso   1.00
Zn2023 Zn    0.25000   0.50000   0.88437   0.00000  Uiso   1.00
Zn2024 Zn    0.25000   0.50000   0.78229   0.00000  Uiso   1.00
C2025  C     0.55989   0.69010   0.83317   0.00000  Uiso   1.00
C2026  C     0.98781   0.71290   0.97638   0.00000  Uiso   1.00
C2027  C     0.98436   0.71412   0.69107   0.00000  Uiso   1.00
C2028  C     0.51203   0.78717   0.97562   0.00000  Uiso   1.00
C2029  C     0.76137   0.53720   0.69016   0.00000  Uiso   1.00
C2030  C     0.73781   0.96290   0.97638   0.00000  Uiso   1.00
C2031  C     0.73436   0.96412   0.69107   0.00000  Uiso   1.00
C2032  C     0.76204   0.53717   0.97562   0.00000  Uiso   1.00
C2033  C     0.87356   0.66168   0.80648   0.00000  Uiso   1.00
C2034  C     0.62593   0.84058   0.86710   0.00000  Uiso   1.00
C2035  C     0.59805   0.87469   0.79906   0.00000  Uiso   1.00
C2036  C     0.93889   0.80868   0.83365   0.00000  Uiso   1.00
C2037  C     0.91147   0.61921   0.86308   0.00000  Uiso   1.00
C2038  C     0.62049   0.65375   0.86895   0.00000  Uiso   1.00
C2039  C     0.87591   0.84186   0.79796   0.00000  Uiso   1.00
C2040  C     0.89716   0.86714   0.87191   0.00000  Uiso   1.00
C2041  C     0.59282   0.62358   0.79932   0.00000  Uiso   1.00
C2042  C     0.62356   0.91169   0.80648   0.00000  Uiso   1.00
C2043  C     0.87593   0.59058   0.86709   0.00000  Uiso   1.00
C2044  C     0.84805   0.62468   0.79905   0.00000  Uiso   1.00
C2045  C     0.66147   0.86921   0.86308   0.00000  Uiso   1.00
C2046  C     0.87047   0.90373   0.86896   0.00000  Uiso   1.00
C2047  C     0.94072   0.68969   0.83381   0.00000  Uiso   1.00
C2048  C     0.62591   0.59185   0.79797   0.00000  Uiso   1.00
C2049  C     0.64718   0.61716   0.87190   0.00000  Uiso   1.00
C2050  C     0.84282   0.87358   0.79932   0.00000  Uiso   1.00
C2051  C     0.59543   0.84159   0.83266   0.00000  Uiso   1.00
C2052  C     0.90793   0.65665   0.83503   0.00000  Uiso   1.00
C2053  C     0.90364   0.83982   0.83438   0.00000  Uiso   1.00
C2054  C     0.59230   0.65617   0.83308   0.00000  Uiso   1.00
C2055  C     0.84543   0.59159   0.83266   0.00000  Uiso   1.00
C2056  C     0.65793   0.90666   0.83503   0.00000  Uiso   1.00
C2057  C     0.65365   0.58983   0.83438   0.00000  Uiso   1.00
C2058  C     0.56064   0.80953   0.83301   0.00000  Uiso   1.00
C2059  C     0.84230   0.90617   0.83309   0.00000  Uiso   1.00
C2060  C     0.98801   0.85261   0.72226   0.00000  Uiso   1.00
C2061  C     0.51702   0.64827   0.94903   0.00000  Uiso   1.00
C2062  C     0.96906   0.64069   0.71043   0.00000  Uiso   1.00
C2063  C     0.50516   0.85924   0.94870   0.00000  Uiso   1.00
C2064  C     0.73801   0.60260   0.72228   0.00000  Uiso   1.00
C2065  C     0.76701   0.89826   0.94903   0.00000  Uiso   1.00
C2066  C     0.71905   0.89069   0.71043   0.00000  Uiso   1.00
C2067  C     0.75520   0.60926   0.94872   0.00000  Uiso   1.00
C2068  C     0.82996   0.72203   0.79698   0.00000  Uiso   1.00
C2069  C     0.80989   0.94010   0.83317   0.00000  Uiso   1.00
C2070  C     0.62477   0.82999   0.94349   0.00000  Uiso   1.00
C2071  C     0.60132   0.86952   0.72319   0.00000  Uiso   1.00
C2072  C     0.96540   0.56880   0.87963   0.00000  Uiso   1.00
C2073  C     0.65517   0.71088   0.90250   0.00000  Uiso   1.00
C2074  C     0.87109   0.82119   0.72293   0.00000  Uiso   1.00
C2075  C     0.88914   0.83099   0.93806   0.00000  Uiso   1.00
C2076  C     0.52791   0.59152   0.78911   0.00000  Uiso   1.00
C2077  C     0.57995   0.97203   0.79699   0.00000  Uiso   1.00
C2078  C     0.87477   0.57998   0.94349   0.00000  Uiso   1.00
C2079  C     0.85134   0.61951   0.72320   0.00000  Uiso   1.00
C2080  C     0.68889   0.55868   0.83365   0.00000  Uiso   1.00
C2081  C     0.71540   0.81881   0.87964   0.00000  Uiso   1.00
C2082  C     0.90515   0.96086   0.90254   0.00000  Uiso   1.00
C2083  C     0.62108   0.57116   0.72295   0.00000  Uiso   1.00
C2084  C     0.63917   0.58110   0.93810   0.00000  Uiso   1.00
C2085  C     0.77791   0.84152   0.78910   0.00000  Uiso   1.00
C2086  C     0.69072   0.93969   0.83381   0.00000  Uiso   1.00
C2087  C     0.81064   0.55953   0.83300   0.00000  Uiso   1.00
C2088  C     0.51137   0.78720   0.69016   0.00000  Uiso   1.00
H2089  H     0.98790   0.86118   0.75829   0.00000  Uiso   1.00
H2090  H     0.97391   0.85667   0.96696   0.00000  Uiso   1.00
H2091  H     0.99919   0.86534   0.91272   0.00000  Uiso   1.00
H2092  H     0.52229   0.88889   0.96141   0.00000  Uiso   1.00
H2093  H     0.73791   0.61117   0.75830   0.00000  Uiso   1.00
H2094  H     0.70638   0.58804   0.71412   0.00000  Uiso   1.00
H2095  H     0.74183   0.63477   0.70415   0.00000  Uiso   1.00
H2096  H     0.79683   0.91417   0.96165   0.00000  Uiso   1.00
H2097  H     0.77251   0.89008   0.91341   0.00000  Uiso   1.00
H2098  H     0.76276   0.86566   0.96625   0.00000  Uiso   1.00
H2099  H     0.70692   0.87323   0.74086   0.00000  Uiso   1.00
H2100  H     0.95638   0.83805   0.71410   0.00000  Uiso   1.00
H2101  H     0.75452   0.88639   0.70855   0.00000  Uiso   1.00
H2102  H     0.70311   0.87443   0.68195   0.00000  Uiso   1.00
H2103  H     0.74924   0.61540   0.91275   0.00000  Uiso   1.00
H2104  H     0.77235   0.63888   0.96147   0.00000  Uiso   1.00
H2105  H     0.72394   0.60670   0.96698   0.00000  Uiso   1.00
H2106  H     0.83594   0.74005   0.82870   0.00000  Uiso   1.00
H2107  H     0.80223   0.69897   0.80168   0.00000  Uiso   1.00
H2108  H     0.82008   0.74668   0.77136   0.00000  Uiso   1.00
H2109  H     0.60576   0.86160   0.94497   0.00000  Uiso   1.00
H2110  H     0.65828   0.83667   0.95316   0.00000  Uiso   1.00
H2111  H     0.99184   0.88477   0.70413   0.00000  Uiso   1.00
H2112  H     0.61148   0.80673   0.96916   0.00000  Uiso   1.00
H2113  H     0.58260   0.87501   0.69249   0.00000  Uiso   1.00
H2114  H     0.61581   0.83551   0.72176   0.00000  Uiso   1.00
H2115  H     0.62700   0.89509   0.72166   0.00000  Uiso   1.00
H2116  H     0.95836   0.55526   0.84586   0.00000  Uiso   1.00
H2117  H     0.95349   0.54547   0.90585   0.00000  Uiso   1.00
H2118  H     0.50079   0.56975   0.88277   0.00000  Uiso   1.00
H2119  H     0.68528   0.69108   0.90551   0.00000  Uiso   1.00
H2120  H     0.65378   0.73380   0.93151   0.00000  Uiso   1.00
H2121  H     0.65633   0.73128   0.87127   0.00000  Uiso   1.00
H2122  H     0.54684   0.66419   0.96161   0.00000  Uiso   1.00
H2123  H     0.88984   0.79822   0.70115   0.00000  Uiso   1.00
H2124  H     0.88243   0.85594   0.71633   0.00000  Uiso   1.00
H2125  H     0.83701   0.81757   0.71346   0.00000  Uiso   1.00
H2126  H     0.90862   0.81449   0.96393   0.00000  Uiso   1.00
H2127  H     0.87414   0.80365   0.91854   0.00000  Uiso   1.00
H2128  H     0.86385   0.85159   0.95486   0.00000  Uiso   1.00
H2129  H     0.54091   0.56555   0.81215   0.00000  Uiso   1.00
H2130  H     0.51218   0.57305   0.76189   0.00000  Uiso   1.00
H2131  H     0.50330   0.61195   0.80696   0.00000  Uiso   1.00
H2132  H     0.58593   0.99005   0.82870   0.00000  Uiso   1.00
H2133  H     0.52251   0.64007   0.91340   0.00000  Uiso   1.00
H2134  H     0.55222   0.94896   0.80170   0.00000  Uiso   1.00
H2135  H     0.57006   0.99667   0.77137   0.00000  Uiso   1.00
H2136  H     0.85577   0.61159   0.94497   0.00000  Uiso   1.00
H2137  H     0.90829   0.58666   0.95316   0.00000  Uiso   1.00
H2138  H     0.86148   0.55672   0.96916   0.00000  Uiso   1.00
H2139  H     0.83261   0.62493   0.69248   0.00000  Uiso   1.00
H2140  H     0.86587   0.58551   0.72180   0.00000  Uiso   1.00
H2141  H     0.87698   0.64512   0.72164   0.00000  Uiso   1.00
H2142  H     0.70836   0.80526   0.84587   0.00000  Uiso   1.00
H2143  H     0.70350   0.79548   0.90586   0.00000  Uiso   1.00
H2144  H     0.51279   0.61568   0.96627   0.00000  Uiso   1.00
H2145  H     0.75079   0.81976   0.88276   0.00000  Uiso   1.00
H2146  H     0.93526   0.94105   0.90556   0.00000  Uiso   1.00
H2147  H     0.90374   0.98377   0.93155   0.00000  Uiso   1.00
H2148  H     0.90632   0.98126   0.87130   0.00000  Uiso   1.00
H2149  H     0.63982   0.54817   0.70118   0.00000  Uiso   1.00
H2150  H     0.63243   0.60590   0.71633   0.00000  Uiso   1.00
H2151  H     0.58699   0.56754   0.71348   0.00000  Uiso   1.00
H2152  H     0.65863   0.56468   0.96403   0.00000  Uiso   1.00
H2153  H     0.62421   0.55369   0.91863   0.00000  Uiso   1.00
H2154  H     0.61385   0.60172   0.95480   0.00000  Uiso   1.00
H2155  H     0.95692   0.62323   0.74086   0.00000  Uiso   1.00
H2156  H     0.79091   0.81554   0.81214   0.00000  Uiso   1.00
H2157  H     0.76219   0.82305   0.76188   0.00000  Uiso   1.00
H2158  H     0.75330   0.86194   0.80695   0.00000  Uiso   1.00
H2159  H     0.50453   0.63639   0.70855   0.00000  Uiso   1.00
H2160  H     0.95313   0.62443   0.68195   0.00000  Uiso   1.00
N2161  N     0.50000   0.75000   0.95240   0.00000  Uiso   1.00
N2162  N     0.50000   0.75000   0.71427   0.00000  Uiso   1.00
N2163  N     0.75000   0.50000   0.95240   0.00000  Uiso   1.00
N2164  N     0.75000   0.50000   0.71427   0.00000  Uiso   1.00
O2165  O     0.54581   0.70419   0.87154   0.00000  Uiso   1.00
O2166  O     0.70420   0.54581   0.79513   0.00000  Uiso   1.00
O2167  O     0.70420   0.54581   0.87154   0.00000  Uiso   1.00
O2168  O     0.79581   0.95419   0.79513   0.00000  Uiso   1.00
O2169  O     0.70420   0.95419   0.79513   0.00000  Uiso   1.00
O2170  O     0.79581   0.54581   0.87154   0.00000  Uiso   1.00
O2171  O     0.79581   0.54581   0.79513   0.00000  Uiso   1.00
O2172  O     0.70420   0.95419   0.87154   0.00000  Uiso   1.00
O2173  O     0.52374   0.82475   0.71256   0.00000  Uiso   1.00
O2174  O     0.97884   0.67412   0.95369   0.00000  Uiso   1.00
O2175  O     0.95630   0.68567   0.71346   0.00000  Uiso   1.00
O2176  O     0.95420   0.79581   0.79513   0.00000  Uiso   1.00
O2177  O     0.53210   0.82159   0.95275   0.00000  Uiso   1.00
O2178  O     0.77374   0.57475   0.71256   0.00000  Uiso   1.00
O2179  O     0.72884   0.92412   0.95369   0.00000  Uiso   1.00
O2180  O     0.70630   0.93568   0.71346   0.00000  Uiso   1.00
O2181  O     0.78211   0.57159   0.95274   0.00000  Uiso   1.00
O2182  O     0.86801   0.70056   0.78184   0.00000  Uiso   1.00
O2183  O     0.62281   0.80903   0.90119   0.00000  Uiso   1.00
O2184  O     0.57351   0.87345   0.76118   0.00000  Uiso   1.00
O2185  O     0.94882   0.61240   0.88686   0.00000  Uiso   1.00
O2186  O     0.61820   0.68383   0.90401   0.00000  Uiso   1.00
O2187  O     0.95420   0.79581   0.87154   0.00000  Uiso   1.00
O2188  O     0.87678   0.80687   0.76743   0.00000  Uiso   1.00
O2189  O     0.91671   0.85835   0.91192   0.00000  Uiso   1.00
O2190  O     0.55922   0.62028   0.77009   0.00000  Uiso   1.00
O2191  O     0.61800   0.95057   0.78184   0.00000  Uiso   1.00
O2192  O     0.87281   0.55902   0.90119   0.00000  Uiso   1.00
O2193  O     0.82352   0.62344   0.76117   0.00000  Uiso   1.00
O2194  O     0.69882   0.86241   0.88687   0.00000  Uiso   1.00
O2195  O     0.86818   0.93380   0.90404   0.00000  Uiso   1.00
O2196  O     0.62677   0.55685   0.76745   0.00000  Uiso   1.00
O2197  O     0.66676   0.60839   0.91191   0.00000  Uiso   1.00
O2198  O     0.54581   0.70419   0.79513   0.00000  Uiso   1.00
O2199  O     0.80922   0.87029   0.77009   0.00000  Uiso   1.00
O2200  O     0.95420   0.70419   0.79513   0.00000  Uiso   1.00
O2201  O     0.54581   0.79581   0.87154   0.00000  Uiso   1.00
O2202  O     0.54581   0.79581   0.79513   0.00000  Uiso   1.00
O2203  O     0.95420   0.70419   0.87154   0.00000  Uiso   1.00
O2204  O     0.79581   0.95419   0.87154   0.00000  Uiso   1.00
Zn2205 Zn    0.50000   0.75000   0.88437   0.00000  Uiso   1.00
Zn2206 Zn    0.50000   0.75000   0.78229   0.00000  Uiso   1.00
Zn2207 Zn    0.75000   0.50000   0.88437   0.00000  Uiso   1.00
Zn2208 Zn    0.75000   0.50000   0.78229   0.00000  Uiso   1.00
loop_
_geom_bond_atom_site_label_1
_geom_bond_atom_site_label_2
_geom_bond_distance
_geom_bond_site_symmetry_2
_ccdc_geom_bond_type
C1     O174    1.294   .     A
C1     C30     1.428   .     S
C1     O141    1.292   .     A
C2     O150    1.379   .     S
C2     C739    1.438   .     S
C2     N321    1.369   .     S
C3     O151    1.383   .     S
C3     C1474   1.438   1_554 S
C3     N322    1.376   .     S
C4     N137    1.371   .     A
C4     O153    1.379   .     S
C4     C800    1.430   .     S
C5     O154    1.370   .     S
C5     N140    1.367   .     A
C5     C1480   1.430   1_554 S
C6     O155    1.379   .     S
C6     C743    1.438   .     S
C6     N507    1.369   .     S
C7     O156    1.383   .     S
C7     C1478   1.438   1_554 S
C7     N508    1.376   .     S
C8     N139    1.371   .     A
C8     O157    1.379   .     S
C8     C741    1.430   .     S
C9     C20     1.386   .     A
C9     O158    1.386   .     S
C9     C28     1.388   .     A
C10    C27     1.414   .     A
C10    C21     1.405   .     A
C10    O159    1.388   .     S
C11    C18     1.386   .     A
C11    O160    1.378   .     S
C11    C27     1.409   .     A
C12    C29     1.437   .     S
C12    O152    1.297   .     A
C12    O163    1.293   .     A
C13    C28     1.401   .     A
C13    C19     1.405   .     A
C13    O161    1.388   .     S
C14    C30     1.399   .     A
C14    O162    1.385   .     S
C14    C25     1.375   .     A
C15    C29     1.403   .     A
C15    O164    1.392   .     S
C15    C26     1.398   .     A
C16    C29     1.402   .     A
C16    O165    1.376   .     S
C16    C22     1.375   .     A
C17    O166    1.380   .     S
C17    C30     1.406   .     A
C17    C24     1.398   .     A
C18    C32     1.388   .     A
C18    O167    1.386   .     S
C19    C31     1.414   .     A
C19    O168    1.388   .     S
C20    O169    1.378   .     S
C20    C31     1.409   .     A
C21    C32     1.401   .     A
C21    O170    1.388   .     S
C22    C35     1.400   .     A
C22    O171    1.385   .     S
C23    C28     1.424   .     S
C23    O179    1.288   .     A
C23    O176    1.296   .     A
C24    C33     1.403   .     A
C24    O172    1.392   .     S
C25    O173    1.376   .     S
C25    C33     1.402   .     A
C26    O175    1.380   .     S
C26    C35     1.406   .     A
C27    C34     1.449   .     S
C31    C63     1.449   .     S
C32    C62     1.424   .     S
C33    C56     1.437   .     S
C34    O178    1.299   .     A
C34    O177    1.298   .     A
C35    C45     1.428   .     S
C36    H76     1.110   .     S
C36    H87     1.108   .     S
C36    H65     1.108   .     S
C36    O333    1.414   .     S
C37    H109    1.104   .     S
C37    H98     1.117   .     S
C37    H120    1.108   .     S
C37    O334    1.420   1_455 S
C38    H136    1.109   .     S
C38    O151    1.404   .     S
C38    H131    1.108   .     S
C38    H319    1.112   .     S
C39    H68     1.109   .     S
C39    O153    1.408   .     S
C39    H250    1.109   1_455 S
C39    H251    1.109   1_455 S
C40    H71     1.108   .     S
C40    O154    1.414   .     S
C40    H69     1.108   .     S
C40    H70     1.110   .     S
C41    H73     1.104   .     S
C41    H74     1.108   .     S
C41    H72     1.117   .     S
C41    O155    1.420   .     S
C42    O156    1.404   .     S
C42    H75     1.108   .     S
C42    H78     1.109   .     S
C42    H77     1.112   .     S
C43    H79     1.109   .     S
C43    O157    1.408   .     S
C43    H81     1.109   .     S
C43    H80     1.109   .     S
C44    O158    1.413   .     S
C44    H83     1.114   .     S
C44    H82     1.112   .     S
C44    H84     1.107   .     S
C45    O180    1.292   .     A
C45    O144    1.294   .     A
C46    H85     1.114   .     S
C46    H88     1.109   .     S
C46    O159    1.416   .     S
C46    H86     1.107   .     S
C47    H89     1.108   .     S
C47    O160    1.420   .     S
C47    H91     1.109   .     S
C47    H90     1.112   .     S
C48    H93     1.107   .     S
C48    O161    1.417   .     S
C48    H92     1.115   .     S
C48    H278    1.108   .     S
C49    H95     1.112   .     S
C49    O162    1.410   .     S
C49    H96     1.108   .     S
C49    H97     1.113   .     S
C50    H99     1.106   .     S
C50    O164    1.409   .     S
C50    H101    1.109   .     S
C50    H100    1.115   .     S
C51    O165    1.411   .     S
C51    H102    1.105   .     S
C51    H104    1.112   .     S
C51    H103    1.116   .     S
C52    O166    1.412   .     S
C52    H107    1.109   .     S
C52    H106    1.108   .     S
C52    H105    1.116   .     S
C53    O167    1.413   .     S
C53    H110    1.114   .     S
C53    H111    1.107   .     S
C53    H108    1.112   .     S
C54    H113    1.107   .     S
C54    H112    1.114   .     S
C54    O168    1.416   .     S
C54    H114    1.109   .     S
C55    H116    1.112   .     S
C55    H117    1.109   .     S
C55    H115    1.108   .     S
C55    O169    1.420   .     S
C56    O143    1.293   .     A
C56    O142    1.297   .     A
C57    H119    1.107   .     S
C57    H121    1.108   .     S
C57    O170    1.417   .     S
C57    H118    1.115   .     S
C58    H122    1.112   .     S
C58    H124    1.113   .     S
C58    O171    1.410   .     S
C58    H123    1.108   .     S
C59    H126    1.115   .     S
C59    O172    1.409   .     S
C59    H127    1.109   .     S
C59    H125    1.106   .     S
C60    O173    1.411   .     S
C60    H128    1.105   .     S
C60    H130    1.111   .     S
C60    H129    1.116   .     S
C61    O175    1.412   .     S
C61    H133    1.108   .     S
C61    H134    1.109   .     S
C61    H132    1.116   .     S
C62    O145    1.296   .     A
C62    O148    1.288   .     A
C63    O146    1.298   .     A
C63    O147    1.299   .     A
C64    N138    1.367   .     A
C64    O149    1.370   .     S
C64    C1476   1.430   1_554 S
H66    C223    1.109   .     S
H67    C223    1.109   .     S
H94    C232    1.108   1_455 S
H135   C222    1.112   1_455 S
N137   Zn181   2.033   .     S
N137   C186    1.369   1_455 S
N138   Zn182   2.033   .     S
N138   C187    1.376   1_455 S
N139   Zn183   2.033   .     S
N139   C374    1.369   1_545 S
N140   Zn184   2.033   .     S
N140   C375    1.376   1_545 S
O141   Zn181   2.007   .     S
O142   Zn184   2.007   .     S
O143   Zn183   2.015   .     S
O144   Zn552   2.015   .     S
O145   Zn552   2.012   .     S
O146   Zn183   2.012   .     S
O147   Zn184   2.025   .     S
O148   Zn551   2.025   .     S
O149   C220    1.414   1_455 S
O150   C221    1.420   .     S
O152   Zn366   2.007   .     S
O163   Zn365   2.015   .     S
O174   Zn182   2.015   .     S
O176   Zn366   2.012   .     S
O177   Zn181   2.012   .     S
O178   Zn182   2.025   .     S
O179   Zn365   2.025   .     S
O180   Zn551   2.007   .     S
Zn181  O363    2.025   1_455 S
Zn181  O347    2.015   1_455 S
Zn182  O360    2.012   1_455 S
Zn182  O336    2.007   1_455 S
Zn183  O516    2.025   1_545 S
Zn183  O548    2.007   1_545 S
Zn184  O513    2.012   1_545 S
Zn184  O512    2.015   1_545 S
C185   O358    1.294   .     A
C185   C214    1.428   .     S
C185   O325    1.292   .     A
C186   O334    1.379   .     S
C186   C923    1.438   .     S
C186   N137    1.369   1_655 S
C187   O335    1.383   .     S
C187   C1658   1.438   1_554 S
C187   N138    1.376   1_655 S
C188   N321    1.371   .     A
C188   O337    1.379   .     S
C188   C984    1.430   .     S
C189   O338    1.370   .     S
C189   N324    1.367   .     A
C189   C1664   1.430   1_554 S
C190   O339    1.379   .     S
C190   C927    1.438   .     S
C190   N691    1.369   .     S
C191   O340    1.383   .     S
C191   C1662   1.438   1_554 S
C191   N692    1.376   .     S
C192   N323    1.371   .     A
C192   O341    1.379   .     S
C192   C925    1.430   .     S
C193   C204    1.386   .     A
C193   O342    1.386   .     S
C193   C212    1.388   .     A
C194   C211    1.414   .     A
C194   C205    1.405   .     A
C194   O343    1.388   .     S
C195   C202    1.386   .     A
C195   O344    1.378   .     S
C195   C211    1.409   .     A
C196   C213    1.437   .     S
C196   O336    1.297   .     A
C196   O347    1.293   .     A
C197   C212    1.401   .     A
C197   C203    1.405   .     A
C197   O345    1.388   .     S
C198   C214    1.399   .     A
C198   O346    1.385   .     S
C198   C209    1.375   .     A
C199   C213    1.403   .     A
C199   O348    1.392   .     S
C199   C210    1.398   .     A
C200   C213    1.402   .     A
C200   O349    1.376   .     S
C200   C206    1.375   .     A
C201   O350    1.380   .     S
C201   C214    1.406   .     A
C201   C208    1.398   .     A
C202   C216    1.388   .     A
C202   O351    1.386   .     S
C203   C215    1.414   .     A
C203   O352    1.388   .     S
C204   O353    1.378   .     S
C204   C215    1.409   .     A
C205   C216    1.401   .     A
C205   O354    1.388   .     S
C206   C219    1.400   .     A
C206   O355    1.385   .     S
C207   C212    1.424   .     S
C207   O363    1.288   .     A
C207   O360    1.296   .     A
C208   C217    1.403   .     A
C208   O356    1.392   .     S
C209   O357    1.376   .     S
C209   C217    1.402   .     A
C210   O359    1.380   .     S
C210   C219    1.406   .     A
C211   C218    1.449   .     S
C215   C247    1.449   .     S
C216   C246    1.424   .     S
C217   C240    1.437   .     S
C218   O362    1.299   .     A
C218   O361    1.298   .     A
C219   C229    1.428   .     S
C220   H260    1.110   .     S
C220   H271    1.108   .     S
C220   H249    1.108   .     S
C220   O149    1.414   1_655 S
C221   H293    1.104   .     S
C221   H282    1.117   .     S
C221   H304    1.108   .     S
C222   H320    1.109   .     S
C222   O335    1.404   .     S
C222   H315    1.108   .     S
C222   H135    1.112   1_655 S
C223   H252    1.109   .     S
C223   O337    1.408   .     S
C224   H255    1.108   .     S
C224   O338    1.414   .     S
C224   H253    1.108   .     S
C224   H254    1.110   .     S
C225   H257    1.104   .     S
C225   H258    1.108   .     S
C225   H256    1.117   .     S
C225   O339    1.420   .     S
C226   O340    1.404   .     S
C226   H259    1.108   .     S
C226   H262    1.109   .     S
C226   H261    1.112   .     S
C227   H263    1.109   .     S
C227   O341    1.408   .     S
C227   H265    1.109   .     S
C227   H264    1.109   .     S
C228   O342    1.413   .     S
C228   H267    1.114   .     S
C228   H266    1.112   .     S
C228   H268    1.107   .     S
C229   O364    1.292   .     A
C229   O328    1.294   .     A
C230   H269    1.114   .     S
C230   H272    1.109   .     S
C230   O343    1.416   .     S
C230   H270    1.107   .     S
C231   H273    1.108   .     S
C231   O344    1.420   .     S
C231   H275    1.109   .     S
C231   H274    1.112   .     S
C232   H277    1.107   .     S
C232   O345    1.417   .     S
C232   H276    1.115   .     S
C232   H94     1.108   1_655 S
C233   H279    1.112   .     S
C233   O346    1.410   .     S
C233   H280    1.108   .     S
C233   H281    1.113   .     S
C234   H283    1.106   .     S
C234   O348    1.409   .     S
C234   H285    1.109   .     S
C234   H284    1.115   .     S
C235   O349    1.411   .     S
C235   H286    1.105   .     S
C235   H288    1.112   .     S
C235   H287    1.116   .     S
C236   O350    1.412   .     S
C236   H291    1.109   .     S
C236   H290    1.108   .     S
C236   H289    1.116   .     S
C237   O351    1.413   .     S
C237   H294    1.114   .     S
C237   H295    1.107   .     S
C237   H292    1.112   .     S
C238   H297    1.107   .     S
C238   H296    1.114   .     S
C238   O352    1.416   .     S
C238   H298    1.109   .     S
C239   H300    1.112   .     S
C239   H301    1.109   .     S
C239   H299    1.108   .     S
C239   O353    1.420   .     S
C240   O327    1.293   .     A
C240   O326    1.297   .     A
C241   H303    1.107   .     S
C241   H305    1.108   .     S
C241   O354    1.417   .     S
C241   H302    1.115   .     S
C242   H306    1.112   .     S
C242   H308    1.113   .     S
C242   O355    1.410   .     S
C242   H307    1.108   .     S
C243   H310    1.115   .     S
C243   O356    1.409   .     S
C243   H311    1.109   .     S
C243   H309    1.106   .     S
C244   O357    1.411   .     S
C244   H312    1.105   .     S
C244   H314    1.111   .     S
C244   H313    1.116   .     S
C245   O359    1.412   .     S
C245   H317    1.108   .     S
C245   H318    1.109   .     S
C245   H316    1.116   .     S
C246   O329    1.296   .     A
C246   O332    1.288   .     A
C247   O330    1.298   .     A
C247   O331    1.299   .     A
C248   N322    1.367   .     A
C248   O333    1.370   .     S
C248   C1660   1.430   1_554 S
H250   C39     1.109   1_655 S
H251   C39     1.109   1_655 S
N321   Zn365   2.033   .     S
N322   Zn366   2.033   .     S
N323   Zn367   2.033   .     S
N323   C558    1.369   1_545 S
N324   Zn368   2.033   .     S
N324   C559    1.376   1_545 S
O325   Zn365   2.007   .     S
O326   Zn368   2.007   .     S
O327   Zn367   2.015   .     S
O328   Zn736   2.015   .     S
O329   Zn736   2.012   .     S
O330   Zn367   2.012   .     S
O331   Zn368   2.025   .     S
O332   Zn735   2.025   .     S
O334   C37     1.420   1_655 S
O336   Zn182   2.007   1_655 S
O347   Zn181   2.015   1_655 S
O358   Zn366   2.015   .     S
O360   Zn182   2.012   1_655 S
O361   Zn365   2.012   .     S
O362   Zn366   2.025   .     S
O363   Zn181   2.025   1_655 S
O364   Zn735   2.007   .     S
Zn367  O700    2.025   1_545 S
Zn367  O732    2.007   1_545 S
Zn368  O697    2.012   1_545 S
Zn368  O696    2.015   1_545 S
C369   O542    1.294   .     A
C369   C398    1.428   .     S
C369   O509    1.292   .     A
C370   O518    1.379   .     S
C370   C1107   1.438   .     S
C370   N689    1.369   .     S
C371   O519    1.383   .     S
C371   C1842   1.438   1_554 S
C371   N690    1.376   .     S
C372   N505    1.371   .     A
C372   O521    1.379   .     S
C372   C1168   1.430   .     S
C373   O522    1.370   .     S
C373   N508    1.367   .     A
C373   C1848   1.430   1_554 S
C374   O523    1.379   .     S
C374   C1111   1.438   .     S
C374   N139    1.369   1_565 S
C375   O524    1.383   .     S
C375   C1846   1.438   1_554 S
C375   N140    1.376   1_565 S
C376   N507    1.371   .     A
C376   O525    1.379   .     S
C376   C1109   1.430   .     S
C377   C388    1.386   .     A
C377   O526    1.386   .     S
C377   C396    1.388   .     A
C378   C395    1.414   .     A
C378   C389    1.405   .     A
C378   O527    1.388   .     S
C379   C386    1.386   .     A
C379   O528    1.378   .     S
C379   C395    1.409   .     A
C380   C397    1.437   .     S
C380   O520    1.297   .     A
C380   O531    1.293   .     A
C381   C396    1.401   .     A
C381   C387    1.405   .     A
C381   O529    1.388   .     S
C382   C398    1.399   .     A
C382   O530    1.385   .     S
C382   C393    1.375   .     A
C383   C397    1.403   .     A
C383   O532    1.392   .     S
C383   C394    1.398   .     A
C384   C397    1.402   .     A
C384   O533    1.376   .     S
C384   C390    1.375   .     A
C385   O534    1.380   .     S
C385   C398    1.406   .     A
C385   C392    1.398   .     A
C386   C400    1.388   .     A
C386   O535    1.386   .     S
C387   C399    1.414   .     A
C387   O536    1.388   .     S
C388   O537    1.378   .     S
C388   C399    1.409   .     A
C389   C400    1.401   .     A
C389   O538    1.388   .     S
C390   C403    1.400   .     A
C390   O539    1.385   .     S
C391   C396    1.424   .     S
C391   O547    1.288   .     A
C391   O544    1.296   .     A
C392   C401    1.403   .     A
C392   O540    1.392   .     S
C393   O541    1.376   .     S
C393   C401    1.402   .     A
C394   O543    1.380   .     S
C394   C403    1.406   .     A
C395   C402    1.449   .     S
C399   C431    1.449   .     S
C400   C430    1.424   .     S
C401   C424    1.437   .     S
C402   O546    1.299   .     A
C402   O545    1.298   .     A
C403   C413    1.428   .     S
C404   H444    1.110   .     S
C404   H455    1.108   .     S
C404   H433    1.108   .     S
C404   O701    1.414   .     S
C405   H477    1.104   .     S
C405   H466    1.117   .     S
C405   H488    1.108   .     S
C405   O702    1.420   1_455 S
C406   H504    1.109   .     S
C406   O519    1.404   .     S
C406   H499    1.108   .     S
C406   H687    1.112   .     S
C407   H436    1.109   .     S
C407   O521    1.408   .     S
C407   H618    1.109   1_455 S
C407   H619    1.109   1_455 S
C408   H439    1.108   .     S
C408   O522    1.414   .     S
C408   H437    1.108   .     S
C408   H438    1.110   .     S
C409   H441    1.104   .     S
C409   H442    1.108   .     S
C409   H440    1.117   .     S
C409   O523    1.420   .     S
C410   O524    1.404   .     S
C410   H443    1.108   .     S
C410   H446    1.109   .     S
C410   H445    1.112   .     S
C411   H447    1.109   .     S
C411   O525    1.408   .     S
C411   H449    1.109   .     S
C411   H448    1.109   .     S
C412   O526    1.413   .     S
C412   H451    1.114   .     S
C412   H450    1.112   .     S
C412   H452    1.107   .     S
C413   O548    1.292   .     A
C413   O512    1.294   .     A
C414   H453    1.114   .     S
C414   H456    1.109   .     S
C414   O527    1.416   .     S
C414   H454    1.107   .     S
C415   H457    1.108   .     S
C415   O528    1.420   .     S
C415   H459    1.109   .     S
C415   H458    1.112   .     S
C416   H461    1.107   .     S
C416   O529    1.417   .     S
C416   H460    1.115   .     S
C416   H646    1.108   .     S
C417   H463    1.112   .     S
C417   O530    1.410   .     S
C417   H464    1.108   .     S
C417   H465    1.113   .     S
C418   H467    1.106   .     S
C418   O532    1.409   .     S
C418   H469    1.109   .     S
C418   H468    1.115   .     S
C419   O533    1.411   .     S
C419   H470    1.105   .     S
C419   H472    1.112   .     S
C419   H471    1.116   .     S
C420   O534    1.412   .     S
C420   H475    1.109   .     S
C420   H474    1.108   .     S
C420   H473    1.116   .     S
C421   O535    1.413   .     S
C421   H478    1.114   .     S
C421   H479    1.107   .     S
C421   H476    1.112   .     S
C422   H481    1.107   .     S
C422   H480    1.114   .     S
C422   O536    1.416   .     S
C422   H482    1.109   .     S
C423   H484    1.112   .     S
C423   H485    1.109   .     S
C423   H483    1.108   .     S
C423   O537    1.420   .     S
C424   O511    1.293   .     A
C424   O510    1.297   .     A
C425   H487    1.107   .     S
C425   H489    1.108   .     S
C425   O538    1.417   .     S
C425   H486    1.115   .     S
C426   H490    1.112   .     S
C426   H492    1.113   .     S
C426   O539    1.410   .     S
C426   H491    1.108   .     S
C427   H494    1.115   .     S
C427   O540    1.409   .     S
C427   H495    1.109   .     S
C427   H493    1.106   .     S
C428   O541    1.411   .     S
C428   H496    1.105   .     S
C428   H498    1.111   .     S
C428   H497    1.116   .     S
C429   O543    1.412   .     S
C429   H501    1.108   .     S
C429   H502    1.109   .     S
C429   H500    1.116   .     S
C430   O513    1.296   .     A
C430   O516    1.288   .     A
C431   O514    1.298   .     A
C431   O515    1.299   .     A
C432   N506    1.367   .     A
C432   O517    1.370   .     S
C432   C1844   1.430   1_554 S
H434   C591    1.109   .     S
H435   C591    1.109   .     S
H462   C600    1.108   1_455 S
H503   C590    1.112   1_455 S
N505   Zn549   2.033   .     S
N505   C554    1.369   1_455 S
N506   Zn550   2.033   .     S
N506   C555    1.376   1_455 S
N507   Zn551   2.033   .     S
N508   Zn552   2.033   .     S
O509   Zn549   2.007   .     S
O510   Zn552   2.007   .     S
O511   Zn551   2.015   .     S
O512   Zn184   2.015   1_565 S
O513   Zn184   2.012   1_565 S
O514   Zn551   2.012   .     S
O515   Zn552   2.025   .     S
O516   Zn183   2.025   1_565 S
O517   C588    1.414   1_455 S
O518   C589    1.420   .     S
O520   Zn734   2.007   .     S
O531   Zn733   2.015   .     S
O542   Zn550   2.015   .     S
O544   Zn734   2.012   .     S
O545   Zn549   2.012   .     S
O546   Zn550   2.025   .     S
O547   Zn733   2.025   .     S
O548   Zn183   2.007   1_565 S
Zn549  O731    2.025   1_455 S
Zn549  O715    2.015   1_455 S
Zn550  O728    2.012   1_455 S
Zn550  O704    2.007   1_455 S
C553   O726    1.294   .     A
C553   C582    1.428   .     S
C553   O693    1.292   .     A
C554   O702    1.379   .     S
C554   C1291   1.438   .     S
C554   N505    1.369   1_655 S
C555   O703    1.383   .     S
C555   C2026   1.438   1_554 S
C555   N506    1.376   1_655 S
C556   N689    1.371   .     A
C556   O705    1.379   .     S
C556   C1352   1.430   .     S
C557   O706    1.370   .     S
C557   N692    1.367   .     A
C557   C2032   1.430   1_554 S
C558   O707    1.379   .     S
C558   C1295   1.438   .     S
C558   N323    1.369   1_565 S
C559   O708    1.383   .     S
C559   C2030   1.438   1_554 S
C559   N324    1.376   1_565 S
C560   N691    1.371   .     A
C560   O709    1.379   .     S
C560   C1293   1.430   .     S
C561   C572    1.386   .     A
C561   O710    1.386   .     S
C561   C580    1.388   .     A
C562   C579    1.414   .     A
C562   C573    1.405   .     A
C562   O711    1.388   .     S
C563   C570    1.386   .     A
C563   O712    1.378   .     S
C563   C579    1.409   .     A
C564   C581    1.437   .     S
C564   O704    1.297   .     A
C564   O715    1.293   .     A
C565   C580    1.401   .     A
C565   C571    1.405   .     A
C565   O713    1.388   .     S
C566   C582    1.399   .     A
C566   O714    1.385   .     S
C566   C577    1.375   .     A
C567   C581    1.403   .     A
C567   O716    1.392   .     S
C567   C578    1.398   .     A
C568   C581    1.402   .     A
C568   O717    1.376   .     S
C568   C574    1.375   .     A
C569   O718    1.380   .     S
C569   C582    1.406   .     A
C569   C576    1.398   .     A
C570   C584    1.388   .     A
C570   O719    1.386   .     S
C571   C583    1.414   .     A
C571   O720    1.388   .     S
C572   O721    1.378   .     S
C572   C583    1.409   .     A
C573   C584    1.401   .     A
C573   O722    1.388   .     S
C574   C587    1.400   .     A
C574   O723    1.385   .     S
C575   C580    1.424   .     S
C575   O731    1.288   .     A
C575   O728    1.296   .     A
C576   C585    1.403   .     A
C576   O724    1.392   .     S
C577   O725    1.376   .     S
C577   C585    1.402   .     A
C578   O727    1.380   .     S
C578   C587    1.406   .     A
C579   C586    1.449   .     S
C583   C615    1.449   .     S
C584   C614    1.424   .     S
C585   C608    1.437   .     S
C586   O730    1.299   .     A
C586   O729    1.298   .     A
C587   C597    1.428   .     S
C588   H628    1.110   .     S
C588   H639    1.108   .     S
C588   H617    1.108   .     S
C588   O517    1.414   1_655 S
C589   H661    1.104   .     S
C589   H650    1.117   .     S
C589   H672    1.108   .     S
C590   H688    1.109   .     S
C590   O703    1.404   .     S
C590   H683    1.108   .     S
C590   H503    1.112   1_655 S
C591   H620    1.109   .     S
C591   O705    1.408   .     S
C592   H623    1.108   .     S
C592   O706    1.414   .     S
C592   H621    1.108   .     S
C592   H622    1.110   .     S
C593   H625    1.104   .     S
C593   H626    1.108   .     S
C593   H624    1.117   .     S
C593   O707    1.420   .     S
C594   O708    1.404   .     S
C594   H627    1.108   .     S
C594   H630    1.109   .     S
C594   H629    1.112   .     S
C595   H631    1.109   .     S
C595   O709    1.408   .     S
C595   H633    1.109   .     S
C595   H632    1.109   .     S
C596   O710    1.413   .     S
C596   H635    1.114   .     S
C596   H634    1.112   .     S
C596   H636    1.107   .     S
C597   O732    1.292   .     A
C597   O696    1.294   .     A
C598   H637    1.114   .     S
C598   H640    1.109   .     S
C598   O711    1.416   .     S
C598   H638    1.107   .     S
C599   H641    1.108   .     S
C599   O712    1.420   .     S
C599   H643    1.109   .     S
C599   H642    1.112   .     S
C600   H645    1.107   .     S
C600   O713    1.417   .     S
C600   H644    1.115   .     S
C600   H462    1.108   1_655 S
C601   H647    1.112   .     S
C601   O714    1.410   .     S
C601   H648    1.108   .     S
C601   H649    1.113   .     S
C602   H651    1.106   .     S
C602   O716    1.409   .     S
C602   H653    1.109   .     S
C602   H652    1.115   .     S
C603   O717    1.411   .     S
C603   H654    1.105   .     S
C603   H656    1.112   .     S
C603   H655    1.116   .     S
C604   O718    1.412   .     S
C604   H659    1.109   .     S
C604   H658    1.108   .     S
C604   H657    1.116   .     S
C605   O719    1.413   .     S
C605   H662    1.114   .     S
C605   H663    1.107   .     S
C605   H660    1.112   .     S
C606   H665    1.107   .     S
C606   H664    1.114   .     S
C606   O720    1.416   .     S
C606   H666    1.109   .     S
C607   H668    1.112   .     S
C607   H669    1.109   .     S
C607   H667    1.108   .     S
C607   O721    1.420   .     S
C608   O695    1.293   .     A
C608   O694    1.297   .     A
C609   H671    1.107   .     S
C609   H673    1.108   .     S
C609   O722    1.417   .     S
C609   H670    1.115   .     S
C610   H674    1.112   .     S
C610   H676    1.113   .     S
C610   O723    1.410   .     S
C610   H675    1.108   .     S
C611   H678    1.115   .     S
C611   O724    1.409   .     S
C611   H679    1.109   .     S
C611   H677    1.106   .     S
C612   O725    1.411   .     S
C612   H680    1.105   .     S
C612   H682    1.111   .     S
C612   H681    1.116   .     S
C613   O727    1.412   .     S
C613   H685    1.108   .     S
C613   H686    1.109   .     S
C613   H684    1.116   .     S
C614   O697    1.296   .     A
C614   O700    1.288   .     A
C615   O698    1.298   .     A
C615   O699    1.299   .     A
C616   N690    1.367   .     A
C616   O701    1.370   .     S
C616   C2028   1.430   1_554 S
H618   C407    1.109   1_655 S
H619   C407    1.109   1_655 S
N689   Zn733   2.033   .     S
N690   Zn734   2.033   .     S
N691   Zn735   2.033   .     S
N692   Zn736   2.033   .     S
O693   Zn733   2.007   .     S
O694   Zn736   2.007   .     S
O695   Zn735   2.015   .     S
O696   Zn368   2.015   1_565 S
O697   Zn368   2.012   1_565 S
O698   Zn735   2.012   .     S
O699   Zn736   2.025   .     S
O700   Zn367   2.025   1_565 S
O702   C405    1.420   1_655 S
O704   Zn550   2.007   1_655 S
O715   Zn549   2.015   1_655 S
O726   Zn734   2.015   .     S
O728   Zn550   2.012   1_655 S
O729   Zn733   2.012   .     S
O730   Zn734   2.025   .     S
O731   Zn549   2.025   1_655 S
O732   Zn367   2.007   1_565 S
C737   O910    1.294   .     A
C737   C766    1.428   .     S
C737   O877    1.292   .     A
C738   O886    1.379   .     S
C738   C1475   1.438   .     S
C738   N1057   1.369   .     S
C739   O887    1.383   .     S
C739   N1058   1.376   .     S
C740   N873    1.371   .     A
C740   O889    1.379   .     S
C740   C1536   1.430   .     S
C741   O890    1.370   .     S
C741   N876    1.367   .     A
C742   O891    1.379   .     S
C742   C1479   1.438   .     S
C742   N1243   1.369   .     S
C743   O892    1.383   .     S
C743   N1244   1.376   .     S
C744   N875    1.371   .     A
C744   O893    1.379   .     S
C744   C1477   1.430   .     S
C745   C756    1.386   .     A
C745   O894    1.386   .     S
C745   C764    1.388   .     A
C746   C763    1.414   .     A
C746   C757    1.405   .     A
C746   O895    1.388   .     S
C747   C754    1.386   .     A
C747   O896    1.378   .     S
C747   C763    1.409   .     A
C748   C765    1.437   .     S
C748   O888    1.297   .     A
C748   O899    1.293   .     A
C749   C764    1.401   .     A
C749   C755    1.405   .     A
C749   O897    1.388   .     S
C750   C766    1.399   .     A
C750   O898    1.385   .     S
C750   C761    1.375   .     A
C751   C765    1.403   .     A
C751   O900    1.392   .     S
C751   C762    1.398   .     A
C752   C765    1.402   .     A
C752   O901    1.376   .     S
C752   C758    1.375   .     A
C753   O902    1.380   .     S
C753   C766    1.406   .     A
C753   C760    1.398   .     A
C754   C768    1.388   .     A
C754   O903    1.386   .     S
C755   C767    1.414   .     A
C755   O904    1.388   .     S
C756   O905    1.378   .     S
C756   C767    1.409   .     A
C757   C768    1.401   .     A
C757   O906    1.388   .     S
C758   C771    1.400   .     A
C758   O907    1.385   .     S
C759   C764    1.424   .     S
C759   O915    1.288   .     A
C759   O912    1.296   .     A
C760   C769    1.403   .     A
C760   O908    1.392   .     S
C761   O909    1.376   .     S
C761   C769    1.402   .     A
C762   O911    1.380   .     S
C762   C771    1.406   .     A
C763   C770    1.449   .     S
C767   C799    1.449   .     S
C768   C798    1.424   .     S
C769   C792    1.437   .     S
C770   O914    1.299   .     A
C770   O913    1.298   .     A
C771   C781    1.428   .     S
C772   H812    1.110   .     S
C772   H823    1.108   .     S
C772   H801    1.108   .     S
C772   O1069   1.414   .     S
C773   H845    1.104   .     S
C773   H834    1.117   .     S
C773   H856    1.108   .     S
C773   O1070   1.420   1_455 S
C774   H872    1.109   .     S
C774   O887    1.404   .     S
C774   H867    1.108   .     S
C774   H1055   1.112   .     S
C775   H804    1.109   .     S
C775   O889    1.408   .     S
C775   H986    1.109   1_455 S
C775   H987    1.109   1_455 S
C776   H807    1.108   .     S
C776   O890    1.414   .     S
C776   H805    1.108   .     S
C776   H806    1.110   .     S
C777   H809    1.104   .     S
C777   H810    1.108   .     S
C777   H808    1.117   .     S
C777   O891    1.420   .     S
C778   O892    1.404   .     S
C778   H811    1.108   .     S
C778   H814    1.109   .     S
C778   H813    1.112   .     S
C779   H815    1.109   .     S
C779   O893    1.408   .     S
C779   H817    1.109   .     S
C779   H816    1.109   .     S
C780   O894    1.413   .     S
C780   H819    1.114   .     S
C780   H818    1.112   .     S
C780   H820    1.107   .     S
C781   O916    1.292   .     A
C781   O880    1.294   .     A
C782   H821    1.114   .     S
C782   H824    1.109   .     S
C782   O895    1.416   .     S
C782   H822    1.107   .     S
C783   H825    1.108   .     S
C783   O896    1.420   .     S
C783   H827    1.109   .     S
C783   H826    1.112   .     S
C784   H829    1.107   .     S
C784   O897    1.417   .     S
C784   H828    1.115   .     S
C784   H1014   1.108   .     S
C785   H831    1.112   .     S
C785   O898    1.410   .     S
C785   H832    1.108   .     S
C785   H833    1.113   .     S
C786   H835    1.106   .     S
C786   O900    1.409   .     S
C786   H837    1.109   .     S
C786   H836    1.115   .     S
C787   O901    1.411   .     S
C787   H838    1.105   .     S
C787   H840    1.112   .     S
C787   H839    1.116   .     S
C788   O902    1.412   .     S
C788   H843    1.109   .     S
C788   H842    1.108   .     S
C788   H841    1.116   .     S
C789   O903    1.413   .     S
C789   H846    1.114   .     S
C789   H847    1.107   .     S
C789   H844    1.112   .     S
C790   H849    1.107   .     S
C790   H848    1.114   .     S
C790   O904    1.416   .     S
C790   H850    1.109   .     S
C791   H852    1.112   .     S
C791   H853    1.109   .     S
C791   H851    1.108   .     S
C791   O905    1.420   .     S
C792   O879    1.293   .     A
C792   O878    1.297   .     A
C793   H855    1.107   .     S
C793   H857    1.108   .     S
C793   O906    1.417   .     S
C793   H854    1.115   .     S
C794   H858    1.112   .     S
C794   H860    1.113   .     S
C794   O907    1.410   .     S
C794   H859    1.108   .     S
C795   H862    1.115   .     S
C795   O908    1.409   .     S
C795   H863    1.109   .     S
C795   H861    1.106   .     S
C796   O909    1.411   .     S
C796   H864    1.105   .     S
C796   H866    1.111   .     S
C796   H865    1.116   .     S
C797   O911    1.412   .     S
C797   H869    1.108   .     S
C797   H870    1.109   .     S
C797   H868    1.116   .     S
C798   O881    1.296   .     A
C798   O884    1.288   .     A
C799   O882    1.298   .     A
C799   O883    1.299   .     A
C800   N874    1.367   .     A
C800   O885    1.370   .     S
H802   C959    1.109   .     S
H803   C959    1.109   .     S
H830   C968    1.108   1_455 S
H871   C958    1.112   1_455 S
N873   Zn917   2.033   .     S
N873   C922    1.369   1_455 S
N874   Zn918   2.033   .     S
N874   C923    1.376   1_455 S
N875   Zn919   2.033   .     S
N875   C1110   1.369   1_545 S
N876   Zn920   2.033   .     S
N876   C1111   1.376   1_545 S
O877   Zn917   2.007   .     S
O878   Zn920   2.007   .     S
O879   Zn919   2.015   .     S
O880   Zn1288  2.015   .     S
O881   Zn1288  2.012   .     S
O882   Zn919   2.012   .     S
O883   Zn920   2.025   .     S
O884   Zn1287  2.025   .     S
O885   C956    1.414   1_455 S
O886   C957    1.420   .     S
O888   Zn1102  2.007   .     S
O899   Zn1101  2.015   .     S
O910   Zn918   2.015   .     S
O912   Zn1102  2.012   .     S
O913   Zn917   2.012   .     S
O914   Zn918   2.025   .     S
O915   Zn1101  2.025   .     S
O916   Zn1287  2.007   .     S
Zn917  O1099   2.025   1_455 S
Zn917  O1083   2.015   1_455 S
Zn918  O1096   2.012   1_455 S
Zn918  O1072   2.007   1_455 S
Zn919  O1252   2.025   1_545 S
Zn919  O1284   2.007   1_545 S
Zn920  O1249   2.012   1_545 S
Zn920  O1248   2.015   1_545 S
C921   O1094   1.294   .     A
C921   C950    1.428   .     S
C921   O1061   1.292   .     A
C922   O1070   1.379   .     S
C922   C1659   1.438   .     S
C922   N873    1.369   1_655 S
C923   O1071   1.383   .     S
C923   N874    1.376   1_655 S
C924   N1057   1.371   .     A
C924   O1073   1.379   .     S
C924   C1720   1.430   .     S
C925   O1074   1.370   .     S
C925   N1060   1.367   .     A
C926   O1075   1.379   .     S
C926   C1663   1.438   .     S
C926   N1427   1.369   .     S
C927   O1076   1.383   .     S
C927   N1428   1.376   .     S
C928   N1059   1.371   .     A
C928   O1077   1.379   .     S
C928   C1661   1.430   .     S
C929   C940    1.386   .     A
C929   O1078   1.386   .     S
C929   C948    1.388   .     A
C930   C947    1.414   .     A
C930   C941    1.405   .     A
C930   O1079   1.388   .     S
C931   C938    1.386   .     A
C931   O1080   1.378   .     S
C931   C947    1.409   .     A
C932   C949    1.437   .     S
C932   O1072   1.297   .     A
C932   O1083   1.293   .     A
C933   C948    1.401   .     A
C933   C939    1.405   .     A
C933   O1081   1.388   .     S
C934   C950    1.399   .     A
C934   O1082   1.385   .     S
C934   C945    1.375   .     A
C935   C949    1.403   .     A
C935   O1084   1.392   .     S
C935   C946    1.398   .     A
C936   C949    1.402   .     A
C936   O1085   1.376   .     S
C936   C942    1.375   .     A
C937   O1086   1.380   .     S
C937   C950    1.406   .     A
C937   C944    1.398   .     A
C938   C952    1.388   .     A
C938   O1087   1.386   .     S
C939   C951    1.414   .     A
C939   O1088   1.388   .     S
C940   O1089   1.378   .     S
C940   C951    1.409   .     A
C941   C952    1.401   .     A
C941   O1090   1.388   .     S
C942   C955    1.400   .     A
C942   O1091   1.385   .     S
C943   C948    1.424   .     S
C943   O1099   1.288   .     A
C943   O1096   1.296   .     A
C944   C953    1.403   .     A
C944   O1092   1.392   .     S
C945   O1093   1.376   .     S
C945   C953    1.402   .     A
C946   O1095   1.380   .     S
C946   C955    1.406   .     A
C947   C954    1.449   .     S
C951   C983    1.449   .     S
C952   C982    1.424   .     S
C953   C976    1.437   .     S
C954   O1098   1.299   .     A
C954   O1097   1.298   .     A
C955   C965    1.428   .     S
C956   H996    1.110   .     S
C956   H1007   1.108   .     S
C956   H985    1.108   .     S
C956   O885    1.414   1_655 S
C957   H1029   1.104   .     S
C957   H1018   1.117   .     S
C957   H1040   1.108   .     S
C958   H1056   1.109   .     S
C958   O1071   1.404   .     S
C958   H1051   1.108   .     S
C958   H871    1.112   1_655 S
C959   H988    1.109   .     S
C959   O1073   1.408   .     S
C960   H991    1.108   .     S
C960   O1074   1.414   .     S
C960   H989    1.108   .     S
C960   H990    1.110   .     S
C961   H993    1.104   .     S
C961   H994    1.108   .     S
C961   H992    1.117   .     S
C961   O1075   1.420   .     S
C962   O1076   1.404   .     S
C962   H995    1.108   .     S
C962   H998    1.109   .     S
C962   H997    1.112   .     S
C963   H999    1.109   .     S
C963   O1077   1.408   .     S
C963   H1001   1.109   .     S
C963   H1000   1.109   .     S
C964   O1078   1.413   .     S
C964   H1003   1.114   .     S
C964   H1002   1.112   .     S
C964   H1004   1.107   .     S
C965   O1100   1.292   .     A
C965   O1064   1.294   .     A
C966   H1005   1.114   .     S
C966   H1008   1.109   .     S
C966   O1079   1.416   .     S
C966   H1006   1.107   .     S
C967   H1009   1.108   .     S
C967   O1080   1.420   .     S
C967   H1011   1.109   .     S
C967   H1010   1.112   .     S
C968   H1013   1.107   .     S
C968   O1081   1.417   .     S
C968   H1012   1.115   .     S
C968   H830    1.108   1_655 S
C969   H1015   1.112   .     S
C969   O1082   1.410   .     S
C969   H1016   1.108   .     S
C969   H1017   1.113   .     S
C970   H1019   1.106   .     S
C970   O1084   1.409   .     S
C970   H1021   1.109   .     S
C970   H1020   1.115   .     S
C971   O1085   1.411   .     S
C971   H1022   1.105   .     S
C971   H1024   1.112   .     S
C971   H1023   1.116   .     S
C972   O1086   1.412   .     S
C972   H1027   1.109   .     S
C972   H1026   1.108   .     S
C972   H1025   1.116   .     S
C973   O1087   1.413   .     S
C973   H1030   1.114   .     S
C973   H1031   1.107   .     S
C973   H1028   1.112   .     S
C974   H1033   1.107   .     S
C974   H1032   1.114   .     S
C974   O1088   1.416   .     S
C974   H1034   1.109   .     S
C975   H1036   1.112   .     S
C975   H1037   1.109   .     S
C975   H1035   1.108   .     S
C975   O1089   1.420   .     S
C976   O1063   1.293   .     A
C976   O1062   1.297   .     A
C977   H1039   1.107   .     S
C977   H1041   1.108   .     S
C977   O1090   1.417   .     S
C977   H1038   1.115   .     S
C978   H1042   1.112   .     S
C978   H1044   1.113   .     S
C978   O1091   1.410   .     S
C978   H1043   1.108   .     S
C979   H1046   1.115   .     S
C979   O1092   1.409   .     S
C979   H1047   1.109   .     S
C979   H1045   1.106   .     S
C980   O1093   1.411   .     S
C980   H1048   1.105   .     S
C980   H1050   1.111   .     S
C980   H1049   1.116   .     S
C981   O1095   1.412   .     S
C981   H1053   1.108   .     S
C981   H1054   1.109   .     S
C981   H1052   1.116   .     S
C982   O1065   1.296   .     A
C982   O1068   1.288   .     A
C983   O1066   1.298   .     A
C983   O1067   1.299   .     A
C984   N1058   1.367   .     A
C984   O1069   1.370   .     S
H986   C775    1.109   1_655 S
H987   C775    1.109   1_655 S
N1057  Zn1101  2.033   .     S
N1058  Zn1102  2.033   .     S
N1059  Zn1103  2.033   .     S
N1059  C1294   1.369   1_545 S
N1060  Zn1104  2.033   .     S
N1060  C1295   1.376   1_545 S
O1061  Zn1101  2.007   .     S
O1062  Zn1104  2.007   .     S
O1063  Zn1103  2.015   .     S
O1064  Zn1472  2.015   .     S
O1065  Zn1472  2.012   .     S
O1066  Zn1103  2.012   .     S
O1067  Zn1104  2.025   .     S
O1068  Zn1471  2.025   .     S
O1070  C773    1.420   1_655 S
O1072  Zn918   2.007   1_655 S
O1083  Zn917   2.015   1_655 S
O1094  Zn1102  2.015   .     S
O1096  Zn918   2.012   1_655 S
O1097  Zn1101  2.012   .     S
O1098  Zn1102  2.025   .     S
O1099  Zn917   2.025   1_655 S
O1100  Zn1471  2.007   .     S
Zn1103 O1436   2.025   1_545 S
Zn1103 O1468   2.007   1_545 S
Zn1104 O1433   2.012   1_545 S
Zn1104 O1432   2.015   1_545 S
C1105  O1278   1.294   .     A
C1105  C1134   1.428   .     S
C1105  O1245   1.292   .     A
C1106  O1254   1.379   .     S
C1106  C1843   1.438   .     S
C1106  N1425   1.369   .     S
C1107  O1255   1.383   .     S
C1107  N1426   1.376   .     S
C1108  N1241   1.371   .     A
C1108  O1257   1.379   .     S
C1108  C1904   1.430   .     S
C1109  O1258   1.370   .     S
C1109  N1244   1.367   .     A
C1110  O1259   1.379   .     S
C1110  C1847   1.438   .     S
C1110  N875    1.369   1_565 S
C1111  O1260   1.383   .     S
C1111  N876    1.376   1_565 S
C1112  N1243   1.371   .     A
C1112  O1261   1.379   .     S
C1112  C1845   1.430   .     S
C1113  C1124   1.386   .     A
C1113  O1262   1.386   .     S
C1113  C1132   1.388   .     A
C1114  C1131   1.414   .     A
C1114  C1125   1.405   .     A
C1114  O1263   1.388   .     S
C1115  C1122   1.386   .     A
C1115  O1264   1.378   .     S
C1115  C1131   1.409   .     A
C1116  C1133   1.437   .     S
C1116  O1256   1.297   .     A
C1116  O1267   1.293   .     A
C1117  C1132   1.401   .     A
C1117  C1123   1.405   .     A
C1117  O1265   1.388   .     S
C1118  C1134   1.399   .     A
C1118  O1266   1.385   .     S
C1118  C1129   1.375   .     A
C1119  C1133   1.403   .     A
C1119  O1268   1.392   .     S
C1119  C1130   1.398   .     A
C1120  C1133   1.402   .     A
C1120  O1269   1.376   .     S
C1120  C1126   1.375   .     A
C1121  O1270   1.380   .     S
C1121  C1134   1.406   .     A
C1121  C1128   1.398   .     A
C1122  C1136   1.388   .     A
C1122  O1271   1.386   .     S
C1123  C1135   1.414   .     A
C1123  O1272   1.388   .     S
C1124  O1273   1.378   .     S
C1124  C1135   1.409   .     A
C1125  C1136   1.401   .     A
C1125  O1274   1.388   .     S
C1126  C1139   1.400   .     A
C1126  O1275   1.385   .     S
C1127  C1132   1.424   .     S
C1127  O1283   1.288   .     A
C1127  O1280   1.296   .     A
C1128  C1137   1.403   .     A
C1128  O1276   1.392   .     S
C1129  O1277   1.376   .     S
C1129  C1137   1.402   .     A
C1130  O1279   1.380   .     S
C1130  C1139   1.406   .     A
C1131  C1138   1.449   .     S
C1135  C1167   1.449   .     S
C1136  C1166   1.424   .     S
C1137  C1160   1.437   .     S
C1138  O1282   1.299   .     A
C1138  O1281   1.298   .     A
C1139  C1149   1.428   .     S
C1140  H1180   1.110   .     S
C1140  H1191   1.108   .     S
C1140  H1169   1.108   .     S
C1140  O1437   1.414   .     S
C1141  H1213   1.104   .     S
C1141  H1202   1.117   .     S
C1141  H1224   1.108   .     S
C1141  O1438   1.420   1_455 S
C1142  H1240   1.109   .     S
C1142  O1255   1.404   .     S
C1142  H1235   1.108   .     S
C1142  H1423   1.112   .     S
C1143  H1172   1.109   .     S
C1143  O1257   1.408   .     S
C1143  H1354   1.109   1_455 S
C1143  H1355   1.109   1_455 S
C1144  H1175   1.108   .     S
C1144  O1258   1.414   .     S
C1144  H1173   1.108   .     S
C1144  H1174   1.110   .     S
C1145  H1177   1.104   .     S
C1145  H1178   1.108   .     S
C1145  H1176   1.117   .     S
C1145  O1259   1.420   .     S
C1146  O1260   1.404   .     S
C1146  H1179   1.108   .     S
C1146  H1182   1.109   .     S
C1146  H1181   1.112   .     S
C1147  H1183   1.109   .     S
C1147  O1261   1.408   .     S
C1147  H1185   1.109   .     S
C1147  H1184   1.109   .     S
C1148  O1262   1.413   .     S
C1148  H1187   1.114   .     S
C1148  H1186   1.112   .     S
C1148  H1188   1.107   .     S
C1149  O1284   1.292   .     A
C1149  O1248   1.294   .     A
C1150  H1189   1.114   .     S
C1150  H1192   1.109   .     S
C1150  O1263   1.416   .     S
C1150  H1190   1.107   .     S
C1151  H1193   1.108   .     S
C1151  O1264   1.420   .     S
C1151  H1195   1.109   .     S
C1151  H1194   1.112   .     S
C1152  H1197   1.107   .     S
C1152  O1265   1.417   .     S
C1152  H1196   1.115   .     S
C1152  H1382   1.108   .     S
C1153  H1199   1.112   .     S
C1153  O1266   1.410   .     S
C1153  H1200   1.108   .     S
C1153  H1201   1.113   .     S
C1154  H1203   1.106   .     S
C1154  O1268   1.409   .     S
C1154  H1205   1.109   .     S
C1154  H1204   1.115   .     S
C1155  O1269   1.411   .     S
C1155  H1206   1.105   .     S
C1155  H1208   1.112   .     S
C1155  H1207   1.116   .     S
C1156  O1270   1.412   .     S
C1156  H1211   1.109   .     S
C1156  H1210   1.108   .     S
C1156  H1209   1.116   .     S
C1157  O1271   1.413   .     S
C1157  H1214   1.114   .     S
C1157  H1215   1.107   .     S
C1157  H1212   1.112   .     S
C1158  H1217   1.107   .     S
C1158  H1216   1.114   .     S
C1158  O1272   1.416   .     S
C1158  H1218   1.109   .     S
C1159  H1220   1.112   .     S
C1159  H1221   1.109   .     S
C1159  H1219   1.108   .     S
C1159  O1273   1.420   .     S
C1160  O1247   1.293   .     A
C1160  O1246   1.297   .     A
C1161  H1223   1.107   .     S
C1161  H1225   1.108   .     S
C1161  O1274   1.417   .     S
C1161  H1222   1.115   .     S
C1162  H1226   1.112   .     S
C1162  H1228   1.113   .     S
C1162  O1275   1.410   .     S
C1162  H1227   1.108   .     S
C1163  H1230   1.115   .     S
C1163  O1276   1.409   .     S
C1163  H1231   1.109   .     S
C1163  H1229   1.106   .     S
C1164  O1277   1.411   .     S
C1164  H1232   1.105   .     S
C1164  H1234   1.111   .     S
C1164  H1233   1.116   .     S
C1165  O1279   1.412   .     S
C1165  H1237   1.108   .     S
C1165  H1238   1.109   .     S
C1165  H1236   1.116   .     S
C1166  O1249   1.296   .     A
C1166  O1252   1.288   .     A
C1167  O1250   1.298   .     A
C1167  O1251   1.299   .     A
C1168  N1242   1.367   .     A
C1168  O1253   1.370   .     S
H1170  C1327   1.109   .     S
H1171  C1327   1.109   .     S
H1198  C1336   1.108   1_455 S
H1239  C1326   1.112   1_455 S
N1241  Zn1285  2.033   .     S
N1241  C1290   1.369   1_455 S
N1242  Zn1286  2.033   .     S
N1242  C1291   1.376   1_455 S
N1243  Zn1287  2.033   .     S
N1244  Zn1288  2.033   .     S
O1245  Zn1285  2.007   .     S
O1246  Zn1288  2.007   .     S
O1247  Zn1287  2.015   .     S
O1248  Zn920   2.015   1_565 S
O1249  Zn920   2.012   1_565 S
O1250  Zn1287  2.012   .     S
O1251  Zn1288  2.025   .     S
O1252  Zn919   2.025   1_565 S
O1253  C1324   1.414   1_455 S
O1254  C1325   1.420   .     S
O1256  Zn1470  2.007   .     S
O1267  Zn1469  2.015   .     S
O1278  Zn1286  2.015   .     S
O1280  Zn1470  2.012   .     S
O1281  Zn1285  2.012   .     S
O1282  Zn1286  2.025   .     S
O1283  Zn1469  2.025   .     S
O1284  Zn919   2.007   1_565 S
Zn1285 O1467   2.025   1_455 S
Zn1285 O1451   2.015   1_455 S
Zn1286 O1464   2.012   1_455 S
Zn1286 O1440   2.007   1_455 S
C1289  O1462   1.294   .     A
C1289  C1318   1.428   .     S
C1289  O1429   1.292   .     A
C1290  O1438   1.379   .     S
C1290  C2027   1.438   .     S
C1290  N1241   1.369   1_655 S
C1291  O1439   1.383   .     S
C1291  N1242   1.376   1_655 S
C1292  N1425   1.371   .     A
C1292  O1441   1.379   .     S
C1292  C2088   1.430   .     S
C1293  O1442   1.370   .     S
C1293  N1428   1.367   .     A
C1294  O1443   1.379   .     S
C1294  C2031   1.438   .     S
C1294  N1059   1.369   1_565 S
C1295  O1444   1.383   .     S
C1295  N1060   1.376   1_565 S
C1296  N1427   1.371   .     A
C1296  O1445   1.379   .     S
C1296  C2029   1.430   .     S
C1297  C1308   1.386   .     A
C1297  O1446   1.386   .     S
C1297  C1316   1.388   .     A
C1298  C1315   1.414   .     A
C1298  C1309   1.405   .     A
C1298  O1447   1.388   .     S
C1299  C1306   1.386   .     A
C1299  O1448   1.378   .     S
C1299  C1315   1.409   .     A
C1300  C1317   1.437   .     S
C1300  O1440   1.297   .     A
C1300  O1451   1.293   .     A
C1301  C1316   1.401   .     A
C1301  C1307   1.405   .     A
C1301  O1449   1.388   .     S
C1302  C1318   1.399   .     A
C1302  O1450   1.385   .     S
C1302  C1313   1.375   .     A
C1303  C1317   1.403   .     A
C1303  O1452   1.392   .     S
C1303  C1314   1.398   .     A
C1304  C1317   1.402   .     A
C1304  O1453   1.376   .     S
C1304  C1310   1.375   .     A
C1305  O1454   1.380   .     S
C1305  C1318   1.406   .     A
C1305  C1312   1.398   .     A
C1306  C1320   1.388   .     A
C1306  O1455   1.386   .     S
C1307  C1319   1.414   .     A
C1307  O1456   1.388   .     S
C1308  O1457   1.378   .     S
C1308  C1319   1.409   .     A
C1309  C1320   1.401   .     A
C1309  O1458   1.388   .     S
C1310  C1323   1.400   .     A
C1310  O1459   1.385   .     S
C1311  C1316   1.424   .     S
C1311  O1467   1.288   .     A
C1311  O1464   1.296   .     A
C1312  C1321   1.403   .     A
C1312  O1460   1.392   .     S
C1313  O1461   1.376   .     S
C1313  C1321   1.402   .     A
C1314  O1463   1.380   .     S
C1314  C1323   1.406   .     A
C1315  C1322   1.449   .     S
C1319  C1351   1.449   .     S
C1320  C1350   1.424   .     S
C1321  C1344   1.437   .     S
C1322  O1466   1.299   .     A
C1322  O1465   1.298   .     A
C1323  C1333   1.428   .     S
C1324  H1364   1.110   .     S
C1324  H1375   1.108   .     S
C1324  H1353   1.108   .     S
C1324  O1253   1.414   1_655 S
C1325  H1397   1.104   .     S
C1325  H1386   1.117   .     S
C1325  H1408   1.108   .     S
C1326  H1424   1.109   .     S
C1326  O1439   1.404   .     S
C1326  H1419   1.108   .     S
C1326  H1239   1.112   1_655 S
C1327  H1356   1.109   .     S
C1327  O1441   1.408   .     S
C1328  H1359   1.108   .     S
C1328  O1442   1.414   .     S
C1328  H1357   1.108   .     S
C1328  H1358   1.110   .     S
C1329  H1361   1.104   .     S
C1329  H1362   1.108   .     S
C1329  H1360   1.117   .     S
C1329  O1443   1.420   .     S
C1330  O1444   1.404   .     S
C1330  H1363   1.108   .     S
C1330  H1366   1.109   .     S
C1330  H1365   1.112   .     S
C1331  H1367   1.109   .     S
C1331  O1445   1.408   .     S
C1331  H1369   1.109   .     S
C1331  H1368   1.109   .     S
C1332  O1446   1.413   .     S
C1332  H1371   1.114   .     S
C1332  H1370   1.112   .     S
C1332  H1372   1.107   .     S
C1333  O1468   1.292   .     A
C1333  O1432   1.294   .     A
C1334  H1373   1.114   .     S
C1334  H1376   1.109   .     S
C1334  O1447   1.416   .     S
C1334  H1374   1.107   .     S
C1335  H1377   1.108   .     S
C1335  O1448   1.420   .     S
C1335  H1379   1.109   .     S
C1335  H1378   1.112   .     S
C1336  H1381   1.107   .     S
C1336  O1449   1.417   .     S
C1336  H1380   1.115   .     S
C1336  H1198   1.108   1_655 S
C1337  H1383   1.112   .     S
C1337  O1450   1.410   .     S
C1337  H1384   1.108   .     S
C1337  H1385   1.113   .     S
C1338  H1387   1.106   .     S
C1338  O1452   1.409   .     S
C1338  H1389   1.109   .     S
C1338  H1388   1.115   .     S
C1339  O1453   1.411   .     S
C1339  H1390   1.105   .     S
C1339  H1392   1.112   .     S
C1339  H1391   1.116   .     S
C1340  O1454   1.412   .     S
C1340  H1395   1.109   .     S
C1340  H1394   1.108   .     S
C1340  H1393   1.116   .     S
C1341  O1455   1.413   .     S
C1341  H1398   1.114   .     S
C1341  H1399   1.107   .     S
C1341  H1396   1.112   .     S
C1342  H1401   1.107   .     S
C1342  H1400   1.114   .     S
C1342  O1456   1.416   .     S
C1342  H1402   1.109   .     S
C1343  H1404   1.112   .     S
C1343  H1405   1.109   .     S
C1343  H1403   1.108   .     S
C1343  O1457   1.420   .     S
C1344  O1431   1.293   .     A
C1344  O1430   1.297   .     A
C1345  H1407   1.107   .     S
C1345  H1409   1.108   .     S
C1345  O1458   1.417   .     S
C1345  H1406   1.115   .     S
C1346  H1410   1.112   .     S
C1346  H1412   1.113   .     S
C1346  O1459   1.410   .     S
C1346  H1411   1.108   .     S
C1347  H1414   1.115   .     S
C1347  O1460   1.409   .     S
C1347  H1415   1.109   .     S
C1347  H1413   1.106   .     S
C1348  O1461   1.411   .     S
C1348  H1416   1.105   .     S
C1348  H1418   1.111   .     S
C1348  H1417   1.116   .     S
C1349  O1463   1.412   .     S
C1349  H1421   1.108   .     S
C1349  H1422   1.109   .     S
C1349  H1420   1.116   .     S
C1350  O1433   1.296   .     A
C1350  O1436   1.288   .     A
C1351  O1434   1.298   .     A
C1351  O1435   1.299   .     A
C1352  N1426   1.367   .     A
C1352  O1437   1.370   .     S
H1354  C1143   1.109   1_655 S
H1355  C1143   1.109   1_655 S
N1425  Zn1469  2.033   .     S
N1426  Zn1470  2.033   .     S
N1427  Zn1471  2.033   .     S
N1428  Zn1472  2.033   .     S
O1429  Zn1469  2.007   .     S
O1430  Zn1472  2.007   .     S
O1431  Zn1471  2.015   .     S
O1432  Zn1104  2.015   1_565 S
O1433  Zn1104  2.012   1_565 S
O1434  Zn1471  2.012   .     S
O1435  Zn1472  2.025   .     S
O1436  Zn1103  2.025   1_565 S
O1438  C1141   1.420   1_655 S
O1440  Zn1286  2.007   1_655 S
O1451  Zn1285  2.015   1_655 S
O1462  Zn1470  2.015   .     S
O1464  Zn1286  2.012   1_655 S
O1465  Zn1469  2.012   .     S
O1466  Zn1470  2.025   .     S
O1467  Zn1285  2.025   1_655 S
O1468  Zn1103  2.007   1_565 S
C1473  O1646   1.294   .     A
C1473  C1502   1.428   .     S
C1473  O1613   1.292   .     A
C1474  O1622   1.379   .     S
C1474  C3      1.438   1_556 S
C1474  N1793   1.369   .     S
C1475  O1623   1.383   .     S
C1475  N1794   1.376   .     S
C1476  N1609   1.371   .     A
C1476  O1625   1.379   .     S
C1476  C64     1.430   1_556 S
C1477  O1626   1.370   .     S
C1477  N1612   1.367   .     A
C1478  O1627   1.379   .     S
C1478  C7      1.438   1_556 S
C1478  N1979   1.369   .     S
C1479  O1628   1.383   .     S
C1479  N1980   1.376   .     S
C1480  N1611   1.371   .     A
C1480  O1629   1.379   .     S
C1480  C5      1.430   1_556 S
C1481  C1492   1.386   .     A
C1481  O1630   1.386   .     S
C1481  C1500   1.388   .     A
C1482  C1499   1.414   .     A
C1482  C1493   1.405   .     A
C1482  O1631   1.388   .     S
C1483  C1490   1.386   .     A
C1483  O1632   1.378   .     S
C1483  C1499   1.409   .     A
C1484  C1501   1.437   .     S
C1484  O1624   1.297   .     A
C1484  O1635   1.293   .     A
C1485  C1500   1.401   .     A
C1485  C1491   1.405   .     A
C1485  O1633   1.388   .     S
C1486  C1502   1.399   .     A
C1486  O1634   1.385   .     S
C1486  C1497   1.375   .     A
C1487  C1501   1.403   .     A
C1487  O1636   1.392   .     S
C1487  C1498   1.398   .     A
C1488  C1501   1.402   .     A
C1488  O1637   1.376   .     S
C1488  C1494   1.375   .     A
C1489  O1638   1.380   .     S
C1489  C1502   1.406   .     A
C1489  C1496   1.398   .     A
C1490  C1504   1.388   .     A
C1490  O1639   1.386   .     S
C1491  C1503   1.414   .     A
C1491  O1640   1.388   .     S
C1492  O1641   1.378   .     S
C1492  C1503   1.409   .     A
C1493  C1504   1.401   .     A
C1493  O1642   1.388   .     S
C1494  C1507   1.400   .     A
C1494  O1643   1.385   .     S
C1495  C1500   1.424   .     S
C1495  O1651   1.288   .     A
C1495  O1648   1.296   .     A
C1496  C1505   1.403   .     A
C1496  O1644   1.392   .     S
C1497  O1645   1.376   .     S
C1497  C1505   1.402   .     A
C1498  O1647   1.380   .     S
C1498  C1507   1.406   .     A
C1499  C1506   1.449   .     S
C1503  C1535   1.449   .     S
C1504  C1534   1.424   .     S
C1505  C1528   1.437   .     S
C1506  O1650   1.299   .     A
C1506  O1649   1.298   .     A
C1507  C1517   1.428   .     S
C1508  H1548   1.110   .     S
C1508  H1559   1.108   .     S
C1508  H1537   1.108   .     S
C1508  O1805   1.414   .     S
C1509  H1581   1.104   .     S
C1509  H1570   1.117   .     S
C1509  H1592   1.108   .     S
C1509  O1806   1.420   1_455 S
C1510  H1608   1.109   .     S
C1510  O1623   1.404   .     S
C1510  H1603   1.108   .     S
C1510  H1791   1.112   .     S
C1511  H1540   1.109   .     S
C1511  O1625   1.408   .     S
C1511  H1722   1.109   1_455 S
C1511  H1723   1.109   1_455 S
C1512  H1543   1.108   .     S
C1512  O1626   1.414   .     S
C1512  H1541   1.108   .     S
C1512  H1542   1.110   .     S
C1513  H1545   1.104   .     S
C1513  H1546   1.108   .     S
C1513  H1544   1.117   .     S
C1513  O1627   1.420   .     S
C1514  O1628   1.404   .     S
C1514  H1547   1.108   .     S
C1514  H1550   1.109   .     S
C1514  H1549   1.112   .     S
C1515  H1551   1.109   .     S
C1515  O1629   1.408   .     S
C1515  H1553   1.109   .     S
C1515  H1552   1.109   .     S
C1516  O1630   1.413   .     S
C1516  H1555   1.114   .     S
C1516  H1554   1.112   .     S
C1516  H1556   1.107   .     S
C1517  O1652   1.292   .     A
C1517  O1616   1.294   .     A
C1518  H1557   1.114   .     S
C1518  H1560   1.109   .     S
C1518  O1631   1.416   .     S
C1518  H1558   1.107   .     S
C1519  H1561   1.108   .     S
C1519  O1632   1.420   .     S
C1519  H1563   1.109   .     S
C1519  H1562   1.112   .     S
C1520  H1565   1.107   .     S
C1520  O1633   1.417   .     S
C1520  H1564   1.115   .     S
C1520  H1750   1.108   .     S
C1521  H1567   1.112   .     S
C1521  O1634   1.410   .     S
C1521  H1568   1.108   .     S
C1521  H1569   1.113   .     S
C1522  H1571   1.106   .     S
C1522  O1636   1.409   .     S
C1522  H1573   1.109   .     S
C1522  H1572   1.115   .     S
C1523  O1637   1.411   .     S
C1523  H1574   1.105   .     S
C1523  H1576   1.112   .     S
C1523  H1575   1.116   .     S
C1524  O1638   1.412   .     S
C1524  H1579   1.109   .     S
C1524  H1578   1.108   .     S
C1524  H1577   1.116   .     S
C1525  O1639   1.413   .     S
C1525  H1582   1.114   .     S
C1525  H1583   1.107   .     S
C1525  H1580   1.112   .     S
C1526  H1585   1.107   .     S
C1526  H1584   1.114   .     S
C1526  O1640   1.416   .     S
C1526  H1586   1.109   .     S
C1527  H1588   1.112   .     S
C1527  H1589   1.109   .     S
C1527  H1587   1.108   .     S
C1527  O1641   1.420   .     S
C1528  O1615   1.293   .     A
C1528  O1614   1.297   .     A
C1529  H1591   1.107   .     S
C1529  H1593   1.108   .     S
C1529  O1642   1.417   .     S
C1529  H1590   1.115   .     S
C1530  H1594   1.112   .     S
C1530  H1596   1.113   .     S
C1530  O1643   1.410   .     S
C1530  H1595   1.108   .     S
C1531  H1598   1.115   .     S
C1531  O1644   1.409   .     S
C1531  H1599   1.109   .     S
C1531  H1597   1.106   .     S
C1532  O1645   1.411   .     S
C1532  H1600   1.105   .     S
C1532  H1602   1.111   .     S
C1532  H1601   1.116   .     S
C1533  O1647   1.412   .     S
C1533  H1605   1.108   .     S
C1533  H1606   1.109   .     S
C1533  H1604   1.116   .     S
C1534  O1617   1.296   .     A
C1534  O1620   1.288   .     A
C1535  O1618   1.298   .     A
C1535  O1619   1.299   .     A
C1536  N1610   1.367   .     A
C1536  O1621   1.370   .     S
H1538  C1695   1.109   .     S
H1539  C1695   1.109   .     S
H1566  C1704   1.108   1_455 S
H1607  C1694   1.112   1_455 S
N1609  Zn1653  2.033   .     S
N1609  C1658   1.369   1_455 S
N1610  Zn1654  2.033   .     S
N1610  C1659   1.376   1_455 S
N1611  Zn1655  2.033   .     S
N1611  C1846   1.369   1_545 S
N1612  Zn1656  2.033   .     S
N1612  C1847   1.376   1_545 S
O1613  Zn1653  2.007   .     S
O1614  Zn1656  2.007   .     S
O1615  Zn1655  2.015   .     S
O1616  Zn2024  2.015   .     S
O1617  Zn2024  2.012   .     S
O1618  Zn1655  2.012   .     S
O1619  Zn1656  2.025   .     S
O1620  Zn2023  2.025   .     S
O1621  C1692   1.414   1_455 S
O1622  C1693   1.420   .     S
O1624  Zn1838  2.007   .     S
O1635  Zn1837  2.015   .     S
O1646  Zn1654  2.015   .     S
O1648  Zn1838  2.012   .     S
O1649  Zn1653  2.012   .     S
O1650  Zn1654  2.025   .     S
O1651  Zn1837  2.025   .     S
O1652  Zn2023  2.007   .     S
Zn1653 O1835   2.025   1_455 S
Zn1653 O1819   2.015   1_455 S
Zn1654 O1832   2.012   1_455 S
Zn1654 O1808   2.007   1_455 S
Zn1655 O1988   2.025   1_545 S
Zn1655 O2020   2.007   1_545 S
Zn1656 O1985   2.012   1_545 S
Zn1656 O1984   2.015   1_545 S
C1657  O1830   1.294   .     A
C1657  C1686   1.428   .     S
C1657  O1797   1.292   .     A
C1658  O1806   1.379   .     S
C1658  C187    1.438   1_556 S
C1658  N1609   1.369   1_655 S
C1659  O1807   1.383   .     S
C1659  N1610   1.376   1_655 S
C1660  N1793   1.371   .     A
C1660  O1809   1.379   .     S
C1660  C248    1.430   1_556 S
C1661  O1810   1.370   .     S
C1661  N1796   1.367   .     A
C1662  O1811   1.379   .     S
C1662  C191    1.438   1_556 S
C1662  N2163   1.369   .     S
C1663  O1812   1.383   .     S
C1663  N2164   1.376   .     S
C1664  N1795   1.371   .     A
C1664  O1813   1.379   .     S
C1664  C189    1.430   1_556 S
C1665  C1676   1.386   .     A
C1665  O1814   1.386   .     S
C1665  C1684   1.388   .     A
C1666  C1683   1.414   .     A
C1666  C1677   1.405   .     A
C1666  O1815   1.388   .     S
C1667  C1674   1.386   .     A
C1667  O1816   1.378   .     S
C1667  C1683   1.409   .     A
C1668  C1685   1.437   .     S
C1668  O1808   1.297   .     A
C1668  O1819   1.293   .     A
C1669  C1684   1.401   .     A
C1669  C1675   1.405   .     A
C1669  O1817   1.388   .     S
C1670  C1686   1.399   .     A
C1670  O1818   1.385   .     S
C1670  C1681   1.375   .     A
C1671  C1685   1.403   .     A
C1671  O1820   1.392   .     S
C1671  C1682   1.398   .     A
C1672  C1685   1.402   .     A
C1672  O1821   1.376   .     S
C1672  C1678   1.375   .     A
C1673  O1822   1.380   .     S
C1673  C1686   1.406   .     A
C1673  C1680   1.398   .     A
C1674  C1688   1.388   .     A
C1674  O1823   1.386   .     S
C1675  C1687   1.414   .     A
C1675  O1824   1.388   .     S
C1676  O1825   1.378   .     S
C1676  C1687   1.409   .     A
C1677  C1688   1.401   .     A
C1677  O1826   1.388   .     S
C1678  C1691   1.400   .     A
C1678  O1827   1.385   .     S
C1679  C1684   1.424   .     S
C1679  O1835   1.288   .     A
C1679  O1832   1.296   .     A
C1680  C1689   1.403   .     A
C1680  O1828   1.392   .     S
C1681  O1829   1.376   .     S
C1681  C1689   1.402   .     A
C1682  O1831   1.380   .     S
C1682  C1691   1.406   .     A
C1683  C1690   1.449   .     S
C1687  C1719   1.449   .     S
C1688  C1718   1.424   .     S
C1689  C1712   1.437   .     S
C1690  O1834   1.299   .     A
C1690  O1833   1.298   .     A
C1691  C1701   1.428   .     S
C1692  H1732   1.110   .     S
C1692  H1743   1.108   .     S
C1692  H1721   1.108   .     S
C1692  O1621   1.414   1_655 S
C1693  H1765   1.104   .     S
C1693  H1754   1.117   .     S
C1693  H1776   1.108   .     S
C1694  H1792   1.109   .     S
C1694  O1807   1.404   .     S
C1694  H1787   1.108   .     S
C1694  H1607   1.112   1_655 S
C1695  H1724   1.109   .     S
C1695  O1809   1.408   .     S
C1696  H1727   1.108   .     S
C1696  O1810   1.414   .     S
C1696  H1725   1.108   .     S
C1696  H1726   1.110   .     S
C1697  H1729   1.104   .     S
C1697  H1730   1.108   .     S
C1697  H1728   1.117   .     S
C1697  O1811   1.420   .     S
C1698  O1812   1.404   .     S
C1698  H1731   1.108   .     S
C1698  H1734   1.109   .     S
C1698  H1733   1.112   .     S
C1699  H1735   1.109   .     S
C1699  O1813   1.408   .     S
C1699  H1737   1.109   .     S
C1699  H1736   1.109   .     S
C1700  O1814   1.413   .     S
C1700  H1739   1.114   .     S
C1700  H1738   1.112   .     S
C1700  H1740   1.107   .     S
C1701  O1836   1.292   .     A
C1701  O1800   1.294   .     A
C1702  H1741   1.114   .     S
C1702  H1744   1.109   .     S
C1702  O1815   1.416   .     S
C1702  H1742   1.107   .     S
C1703  H1745   1.108   .     S
C1703  O1816   1.420   .     S
C1703  H1747   1.109   .     S
C1703  H1746   1.112   .     S
C1704  H1749   1.107   .     S
C1704  O1817   1.417   .     S
C1704  H1748   1.115   .     S
C1704  H1566   1.108   1_655 S
C1705  H1751   1.112   .     S
C1705  O1818   1.410   .     S
C1705  H1752   1.108   .     S
C1705  H1753   1.113   .     S
C1706  H1755   1.106   .     S
C1706  O1820   1.409   .     S
C1706  H1757   1.109   .     S
C1706  H1756   1.115   .     S
C1707  O1821   1.411   .     S
C1707  H1758   1.105   .     S
C1707  H1760   1.112   .     S
C1707  H1759   1.116   .     S
C1708  O1822   1.412   .     S
C1708  H1763   1.109   .     S
C1708  H1762   1.108   .     S
C1708  H1761   1.116   .     S
C1709  O1823   1.413   .     S
C1709  H1766   1.114   .     S
C1709  H1767   1.107   .     S
C1709  H1764   1.112   .     S
C1710  H1769   1.107   .     S
C1710  H1768   1.114   .     S
C1710  O1824   1.416   .     S
C1710  H1770   1.109   .     S
C1711  H1772   1.112   .     S
C1711  H1773   1.109   .     S
C1711  H1771   1.108   .     S
C1711  O1825   1.420   .     S
C1712  O1799   1.293   .     A
C1712  O1798   1.297   .     A
C1713  H1775   1.107   .     S
C1713  H1777   1.108   .     S
C1713  O1826   1.417   .     S
C1713  H1774   1.115   .     S
C1714  H1778   1.112   .     S
C1714  H1780   1.113   .     S
C1714  O1827   1.410   .     S
C1714  H1779   1.108   .     S
C1715  H1782   1.115   .     S
C1715  O1828   1.409   .     S
C1715  H1783   1.109   .     S
C1715  H1781   1.106   .     S
C1716  O1829   1.411   .     S
C1716  H1784   1.105   .     S
C1716  H1786   1.111   .     S
C1716  H1785   1.116   .     S
C1717  O1831   1.412   .     S
C1717  H1789   1.108   .     S
C1717  H1790   1.109   .     S
C1717  H1788   1.116   .     S
C1718  O1801   1.296   .     A
C1718  O1804   1.288   .     A
C1719  O1802   1.298   .     A
C1719  O1803   1.299   .     A
C1720  N1794   1.367   .     A
C1720  O1805   1.370   .     S
H1722  C1511   1.109   1_655 S
H1723  C1511   1.109   1_655 S
N1793  Zn1837  2.033   .     S
N1794  Zn1838  2.033   .     S
N1795  Zn1839  2.033   .     S
N1795  C2030   1.369   1_545 S
N1796  Zn1840  2.033   .     S
N1796  C2031   1.376   1_545 S
O1797  Zn1837  2.007   .     S
O1798  Zn1840  2.007   .     S
O1799  Zn1839  2.015   .     S
O1800  Zn2208  2.015   .     S
O1801  Zn2208  2.012   .     S
O1802  Zn1839  2.012   .     S
O1803  Zn1840  2.025   .     S
O1804  Zn2207  2.025   .     S
O1806  C1509   1.420   1_655 S
O1808  Zn1654  2.007   1_655 S
O1819  Zn1653  2.015   1_655 S
O1830  Zn1838  2.015   .     S
O1832  Zn1654  2.012   1_655 S
O1833  Zn1837  2.012   .     S
O1834  Zn1838  2.025   .     S
O1835  Zn1653  2.025   1_655 S
O1836  Zn2207  2.007   .     S
Zn1839 O2172   2.025   1_545 S
Zn1839 O2204   2.007   1_545 S
Zn1840 O2169   2.012   1_545 S
Zn1840 O2168   2.015   1_545 S
C1841  O2014   1.294   .     A
C1841  C1870   1.428   .     S
C1841  O1981   1.292   .     A
C1842  O1990   1.379   .     S
C1842  C371    1.438   1_556 S
C1842  N2161   1.369   .     S
C1843  O1991   1.383   .     S
C1843  N2162   1.376   .     S
C1844  N1977   1.371   .     A
C1844  O1993   1.379   .     S
C1844  C432    1.430   1_556 S
C1845  O1994   1.370   .     S
C1845  N1980   1.367   .     A
C1846  O1995   1.379   .     S
C1846  C375    1.438   1_556 S
C1846  N1611   1.369   1_565 S
C1847  O1996   1.383   .     S
C1847  N1612   1.376   1_565 S
C1848  N1979   1.371   .     A
C1848  O1997   1.379   .     S
C1848  C373    1.430   1_556 S
C1849  C1860   1.386   .     A
C1849  O1998   1.386   .     S
C1849  C1868   1.388   .     A
C1850  C1867   1.414   .     A
C1850  C1861   1.405   .     A
C1850  O1999   1.388   .     S
C1851  C1858   1.386   .     A
C1851  O2000   1.378   .     S
C1851  C1867   1.409   .     A
C1852  C1869   1.437   .     S
C1852  O1992   1.297   .     A
C1852  O2003   1.293   .     A
C1853  C1868   1.401   .     A
C1853  C1859   1.405   .     A
C1853  O2001   1.388   .     S
C1854  C1870   1.399   .     A
C1854  O2002   1.385   .     S
C1854  C1865   1.375   .     A
C1855  C1869   1.403   .     A
C1855  O2004   1.392   .     S
C1855  C1866   1.398   .     A
C1856  C1869   1.402   .     A
C1856  O2005   1.376   .     S
C1856  C1862   1.375   .     A
C1857  O2006   1.380   .     S
C1857  C1870   1.406   .     A
C1857  C1864   1.398   .     A
C1858  C1872   1.388   .     A
C1858  O2007   1.386   .     S
C1859  C1871   1.414   .     A
C1859  O2008   1.388   .     S
C1860  O2009   1.378   .     S
C1860  C1871   1.409   .     A
C1861  C1872   1.401   .     A
C1861  O2010   1.388   .     S
C1862  C1875   1.400   .     A
C1862  O2011   1.385   .     S
C1863  C1868   1.424   .     S
C1863  O2019   1.288   .     A
C1863  O2016   1.296   .     A
C1864  C1873   1.403   .     A
C1864  O2012   1.392   .     S
C1865  O2013   1.376   .     S
C1865  C1873   1.402   .     A
C1866  O2015   1.380   .     S
C1866  C1875   1.406   .     A
C1867  C1874   1.449   .     S
C1871  C1903   1.449   .     S
C1872  C1902   1.424   .     S
C1873  C1896   1.437   .     S
C1874  O2018   1.299   .     A
C1874  O2017   1.298   .     A
C1875  C1885   1.428   .     S
C1876  H1916   1.110   .     S
C1876  H1927   1.108   .     S
C1876  H1905   1.108   .     S
C1876  O2173   1.414   .     S
C1877  H1949   1.104   .     S
C1877  H1938   1.117   .     S
C1877  H1960   1.108   .     S
C1877  O2174   1.420   1_455 S
C1878  H1976   1.109   .     S
C1878  O1991   1.404   .     S
C1878  H1971   1.108   .     S
C1878  H2159   1.112   .     S
C1879  H1908   1.109   .     S
C1879  O1993   1.408   .     S
C1879  H2090   1.109   1_455 S
C1879  H2091   1.109   1_455 S
C1880  H1911   1.108   .     S
C1880  O1994   1.414   .     S
C1880  H1909   1.108   .     S
C1880  H1910   1.110   .     S
C1881  H1913   1.104   .     S
C1881  H1914   1.108   .     S
C1881  H1912   1.117   .     S
C1881  O1995   1.420   .     S
C1882  O1996   1.404   .     S
C1882  H1915   1.108   .     S
C1882  H1918   1.109   .     S
C1882  H1917   1.112   .     S
C1883  H1919   1.109   .     S
C1883  O1997   1.408   .     S
C1883  H1921   1.109   .     S
C1883  H1920   1.109   .     S
C1884  O1998   1.413   .     S
C1884  H1923   1.114   .     S
C1884  H1922   1.112   .     S
C1884  H1924   1.107   .     S
C1885  O2020   1.292   .     A
C1885  O1984   1.294   .     A
C1886  H1925   1.114   .     S
C1886  H1928   1.109   .     S
C1886  O1999   1.416   .     S
C1886  H1926   1.107   .     S
C1887  H1929   1.108   .     S
C1887  O2000   1.420   .     S
C1887  H1931   1.109   .     S
C1887  H1930   1.112   .     S
C1888  H1933   1.107   .     S
C1888  O2001   1.417   .     S
C1888  H1932   1.115   .     S
C1888  H2118   1.108   .     S
C1889  H1935   1.112   .     S
C1889  O2002   1.410   .     S
C1889  H1936   1.108   .     S
C1889  H1937   1.113   .     S
C1890  H1939   1.106   .     S
C1890  O2004   1.409   .     S
C1890  H1941   1.109   .     S
C1890  H1940   1.115   .     S
C1891  O2005   1.411   .     S
C1891  H1942   1.105   .     S
C1891  H1944   1.112   .     S
C1891  H1943   1.116   .     S
C1892  O2006   1.412   .     S
C1892  H1947   1.109   .     S
C1892  H1946   1.108   .     S
C1892  H1945   1.116   .     S
C1893  O2007   1.413   .     S
C1893  H1950   1.114   .     S
C1893  H1951   1.107   .     S
C1893  H1948   1.112   .     S
C1894  H1953   1.107   .     S
C1894  H1952   1.114   .     S
C1894  O2008   1.416   .     S
C1894  H1954   1.109   .     S
C1895  H1956   1.112   .     S
C1895  H1957   1.109   .     S
C1895  H1955   1.108   .     S
C1895  O2009   1.420   .     S
C1896  O1983   1.293   .     A
C1896  O1982   1.297   .     A
C1897  H1959   1.107   .     S
C1897  H1961   1.108   .     S
C1897  O2010   1.417   .     S
C1897  H1958   1.115   .     S
C1898  H1962   1.112   .     S
C1898  H1964   1.113   .     S
C1898  O2011   1.410   .     S
C1898  H1963   1.108   .     S
C1899  H1966   1.115   .     S
C1899  O2012   1.409   .     S
C1899  H1967   1.109   .     S
C1899  H1965   1.106   .     S
C1900  O2013   1.411   .     S
C1900  H1968   1.105   .     S
C1900  H1970   1.111   .     S
C1900  H1969   1.116   .     S
C1901  O2015   1.412   .     S
C1901  H1973   1.108   .     S
C1901  H1974   1.109   .     S
C1901  H1972   1.116   .     S
C1902  O1985   1.296   .     A
C1902  O1988   1.288   .     A
C1903  O1986   1.298   .     A
C1903  O1987   1.299   .     A
C1904  N1978   1.367   .     A
C1904  O1989   1.370   .     S
H1906  C2063   1.109   .     S
H1907  C2063   1.109   .     S
H1934  C2072   1.108   1_455 S
H1975  C2062   1.112   1_455 S
N1977  Zn2021  2.033   .     S
N1977  C2026   1.369   1_455 S
N1978  Zn2022  2.033   .     S
N1978  C2027   1.376   1_455 S
N1979  Zn2023  2.033   .     S
N1980  Zn2024  2.033   .     S
O1981  Zn2021  2.007   .     S
O1982  Zn2024  2.007   .     S
O1983  Zn2023  2.015   .     S
O1984  Zn1656  2.015   1_565 S
O1985  Zn1656  2.012   1_565 S
O1986  Zn2023  2.012   .     S
O1987  Zn2024  2.025   .     S
O1988  Zn1655  2.025   1_565 S
O1989  C2060   1.414   1_455 S
O1990  C2061   1.420   .     S
O1992  Zn2206  2.007   .     S
O2003  Zn2205  2.015   .     S
O2014  Zn2022  2.015   .     S
O2016  Zn2206  2.012   .     S
O2017  Zn2021  2.012   .     S
O2018  Zn2022  2.025   .     S
O2019  Zn2205  2.025   .     S
O2020  Zn1655  2.007   1_565 S
Zn2021 O2203   2.025   1_455 S
Zn2021 O2187   2.015   1_455 S
Zn2022 O2200   2.012   1_455 S
Zn2022 O2176   2.007   1_455 S
C2025  O2198   1.294   .     A
C2025  C2054   1.428   .     S
C2025  O2165   1.292   .     A
C2026  O2174   1.379   .     S
C2026  C555    1.438   1_556 S
C2026  N1977   1.369   1_655 S
C2027  O2175   1.383   .     S
C2027  N1978   1.376   1_655 S
C2028  N2161   1.371   .     A
C2028  O2177   1.379   .     S
C2028  C616    1.430   1_556 S
C2029  O2178   1.370   .     S
C2029  N2164   1.367   .     A
C2030  O2179   1.379   .     S
C2030  C559    1.438   1_556 S
C2030  N1795   1.369   1_565 S
C2031  O2180   1.383   .     S
C2031  N1796   1.376   1_565 S
C2032  N2163   1.371   .     A
C2032  O2181   1.379   .     S
C2032  C557    1.430   1_556 S
C2033  C2044   1.386   .     A
C2033  O2182   1.386   .     S
C2033  C2052   1.388   .     A
C2034  C2051   1.414   .     A
C2034  C2045   1.405   .     A
C2034  O2183   1.388   .     S
C2035  C2042   1.386   .     A
C2035  O2184   1.378   .     S
C2035  C2051   1.409   .     A
C2036  C2053   1.437   .     S
C2036  O2176   1.297   .     A
C2036  O2187   1.293   .     A
C2037  C2052   1.401   .     A
C2037  C2043   1.405   .     A
C2037  O2185   1.388   .     S
C2038  C2054   1.399   .     A
C2038  O2186   1.385   .     S
C2038  C2049   1.375   .     A
C2039  C2053   1.403   .     A
C2039  O2188   1.392   .     S
C2039  C2050   1.398   .     A
C2040  C2053   1.402   .     A
C2040  O2189   1.376   .     S
C2040  C2046   1.375   .     A
C2041  O2190   1.380   .     S
C2041  C2054   1.406   .     A
C2041  C2048   1.398   .     A
C2042  C2056   1.388   .     A
C2042  O2191   1.386   .     S
C2043  C2055   1.414   .     A
C2043  O2192   1.388   .     S
C2044  O2193   1.378   .     S
C2044  C2055   1.409   .     A
C2045  C2056   1.401   .     A
C2045  O2194   1.388   .     S
C2046  C2059   1.400   .     A
C2046  O2195   1.385   .     S
C2047  C2052   1.424   .     S
C2047  O2203   1.288   .     A
C2047  O2200   1.296   .     A
C2048  C2057   1.403   .     A
C2048  O2196   1.392   .     S
C2049  O2197   1.376   .     S
C2049  C2057   1.402   .     A
C2050  O2199   1.380   .     S
C2050  C2059   1.406   .     A
C2051  C2058   1.449   .     S
C2055  C2087   1.449   .     S
C2056  C2086   1.424   .     S
C2057  C2080   1.437   .     S
C2058  O2202   1.299   .     A
C2058  O2201   1.298   .     A
C2059  C2069   1.428   .     S
C2060  H2100   1.110   .     S
C2060  H2111   1.108   .     S
C2060  H2089   1.108   .     S
C2060  O1989   1.414   1_655 S
C2061  H2133   1.104   .     S
C2061  H2122   1.117   .     S
C2061  H2144   1.108   .     S
C2062  H2160   1.109   .     S
C2062  O2175   1.404   .     S
C2062  H2155   1.108   .     S
C2062  H1975   1.112   1_655 S
C2063  H2092   1.109   .     S
C2063  O2177   1.408   .     S
C2064  H2095   1.108   .     S
C2064  O2178   1.414   .     S
C2064  H2093   1.108   .     S
C2064  H2094   1.110   .     S
C2065  H2097   1.104   .     S
C2065  H2098   1.108   .     S
C2065  H2096   1.117   .     S
C2065  O2179   1.420   .     S
C2066  O2180   1.404   .     S
C2066  H2099   1.108   .     S
C2066  H2102   1.109   .     S
C2066  H2101   1.112   .     S
C2067  H2103   1.109   .     S
C2067  O2181   1.408   .     S
C2067  H2105   1.109   .     S
C2067  H2104   1.109   .     S
C2068  O2182   1.413   .     S
C2068  H2107   1.114   .     S
C2068  H2106   1.112   .     S
C2068  H2108   1.107   .     S
C2069  O2204   1.292   .     A
C2069  O2168   1.294   .     A
C2070  H2109   1.114   .     S
C2070  H2112   1.109   .     S
C2070  O2183   1.416   .     S
C2070  H2110   1.107   .     S
C2071  H2113   1.108   .     S
C2071  O2184   1.420   .     S
C2071  H2115   1.109   .     S
C2071  H2114   1.112   .     S
C2072  H2117   1.107   .     S
C2072  O2185   1.417   .     S
C2072  H2116   1.115   .     S
C2072  H1934   1.108   1_655 S
C2073  H2119   1.112   .     S
C2073  O2186   1.410   .     S
C2073  H2120   1.108   .     S
C2073  H2121   1.113   .     S
C2074  H2123   1.106   .     S
C2074  O2188   1.409   .     S
C2074  H2125   1.109   .     S
C2074  H2124   1.115   .     S
C2075  O2189   1.411   .     S
C2075  H2126   1.105   .     S
C2075  H2128   1.112   .     S
C2075  H2127   1.116   .     S
C2076  O2190   1.412   .     S
C2076  H2131   1.109   .     S
C2076  H2130   1.108   .     S
C2076  H2129   1.116   .     S
C2077  O2191   1.413   .     S
C2077  H2134   1.114   .     S
C2077  H2135   1.107   .     S
C2077  H2132   1.112   .     S
C2078  H2137   1.107   .     S
C2078  H2136   1.114   .     S
C2078  O2192   1.416   .     S
C2078  H2138   1.109   .     S
C2079  H2140   1.112   .     S
C2079  H2141   1.109   .     S
C2079  H2139   1.108   .     S
C2079  O2193   1.420   .     S
C2080  O2167   1.293   .     A
C2080  O2166   1.297   .     A
C2081  H2143   1.107   .     S
C2081  H2145   1.108   .     S
C2081  O2194   1.417   .     S
C2081  H2142   1.115   .     S
C2082  H2146   1.112   .     S
C2082  H2148   1.113   .     S
C2082  O2195   1.410   .     S
C2082  H2147   1.108   .     S
C2083  H2150   1.115   .     S
C2083  O2196   1.409   .     S
C2083  H2151   1.109   .     S
C2083  H2149   1.106   .     S
C2084  O2197   1.411   .     S
C2084  H2152   1.105   .     S
C2084  H2154   1.111   .     S
C2084  H2153   1.116   .     S
C2085  O2199   1.412   .     S
C2085  H2157   1.108   .     S
C2085  H2158   1.109   .     S
C2085  H2156   1.116   .     S
C2086  O2169   1.296   .     A
C2086  O2172   1.288   .     A
C2087  O2170   1.298   .     A
C2087  O2171   1.299   .     A
C2088  N2162   1.367   .     A
C2088  O2173   1.370   .     S
H2090  C1879   1.109   1_655 S
H2091  C1879   1.109   1_655 S
N2161  Zn2205  2.033   .     S
N2162  Zn2206  2.033   .     S
N2163  Zn2207  2.033   .     S
N2164  Zn2208  2.033   .     S
O2165  Zn2205  2.007   .     S
O2166  Zn2208  2.007   .     S
O2167  Zn2207  2.015   .     S
O2168  Zn1840  2.015   1_565 S
O2169  Zn1840  2.012   1_565 S
O2170  Zn2207  2.012   .     S
O2171  Zn2208  2.025   .     S
O2172  Zn1839  2.025   1_565 S
O2174  C1877   1.420   1_655 S
O2176  Zn2022  2.007   1_655 S
O2187  Zn2021  2.015   1_655 S
O2198  Zn2206  2.015   .     S
O2200  Zn2022  2.012   1_655 S
O2201  Zn2205  2.012   .     S
O2202  Zn2206  2.025   .     S
O2203  Zn2021  2.025   1_655 S
O2204  Zn1839  2.007   1_565 S
