data_str_m2_o2_o5_pcu_sym.50
_audit_creation_date              2020-01-03
_audit_creation_method            'Materials Studio'
_symmetry_space_group_name_H-M    'P1'
_symmetry_Int_Tables_number       1
_symmetry_cell_setting            triclinic
loop_
_symmetry_equiv_pos_as_xyz
  x,y,z
_cell_length_a                    30.2860
_cell_length_b                    28.1529
_cell_length_c                    27.1857
_cell_angle_alpha                 90.0067
_cell_angle_beta                  93.4493
_cell_angle_gamma                 90.0339
loop_
_atom_site_label
_atom_site_type_symbol
_atom_site_fract_x
_atom_site_fract_y
_atom_site_fract_z
_atom_site_U_iso_or_equiv
_atom_site_adp_type
_atom_site_occupancy
C1     C     0.16511   0.25008   0.16706   0.00000  Uiso   1.00
C2     C     0.28608   0.44620   0.18654   0.00000  Uiso   1.00
C3     C     0.24993   0.25000   0.07367   0.00000  Uiso   1.00
C4     C     0.25007   0.25001   0.25966   0.00000  Uiso   1.00
C5     C     0.25001   0.02687   0.16668   0.00000  Uiso   1.00
C6     C     0.24999   0.47263   0.16667   0.00000  Uiso   1.00
C7     C     0.24997   0.25001   0.02188   0.00000  Uiso   1.00
C8     C     0.25002   0.25001   0.31145   0.00000  Uiso   1.00
C9     C     0.04869   0.29144   0.18309   0.00000  Uiso   1.00
C10    C     0.45335   0.21046   0.17994   0.00000  Uiso   1.00
C11    C     0.45142   0.29207   0.15143   0.00000  Uiso   1.00
C12    C     0.33489   0.25009   0.16617   0.00000  Uiso   1.00
C13    C     0.04658   0.21121   0.15060   0.00000  Uiso   1.00
C14    C     0.09469   0.29093   0.18361   0.00000  Uiso   1.00
C15    C     0.40749   0.20991   0.17899   0.00000  Uiso   1.00
C16    C     0.40543   0.29155   0.15106   0.00000  Uiso   1.00
C17    C     0.09244   0.21063   0.15172   0.00000  Uiso   1.00
C18    C     0.11683   0.25051   0.16763   0.00000  Uiso   1.00
C19    C     0.38319   0.25051   0.16530   0.00000  Uiso   1.00
C20    C     0.02429   0.25156   0.16643   0.00000  Uiso   1.00
C21    C     0.47573   0.25152   0.16610   0.00000  Uiso   1.00
C22    C     0.31955   0.12458   0.22418   0.00000  Uiso   1.00
C23    C     0.28161   0.10351   0.19470   0.00000  Uiso   1.00
C24    C     0.17731   0.37350   0.11689   0.00000  Uiso   1.00
C25    C     0.18047   0.12440   0.10911   0.00000  Uiso   1.00
C26    C     0.32270   0.37369   0.21654   0.00000  Uiso   1.00
C27    C     0.21505   0.39609   0.14464   0.00000  Uiso   1.00
C28    C     0.21840   0.10344   0.13864   0.00000  Uiso   1.00
C29    C     0.28495   0.39616   0.18870   0.00000  Uiso   1.00
C30    C     0.28056   0.05333   0.19595   0.00000  Uiso   1.00
C31    C     0.21390   0.44614   0.14679   0.00000  Uiso   1.00
C32    C     0.21946   0.05327   0.13740   0.00000  Uiso   1.00
Cu33   Cu    0.25000   0.29821   0.16667   0.00000  Uiso   1.00
Cu34   Cu    0.25000   0.20178   0.16667   0.00000  Uiso   1.00
H35    H     0.03228   0.32268   0.19637   0.00000  Uiso   1.00
H36    H     0.18449   0.46377   0.13167   0.00000  Uiso   1.00
H37    H     0.19599   0.03525   0.11243   0.00000  Uiso   1.00
H38    H     0.31547   0.46390   0.20167   0.00000  Uiso   1.00
H39    H     0.38357   0.11667   0.24838   0.00000  Uiso   1.00
H40    H     0.11099   0.36894   0.10561   0.00000  Uiso   1.00
H41    H     0.11663   0.11590   0.08436   0.00000  Uiso   1.00
H42    H     0.38900   0.36998   0.22858   0.00000  Uiso   1.00
H43    H     0.47128   0.17887   0.19200   0.00000  Uiso   1.00
H44    H     0.46790   0.32386   0.13960   0.00000  Uiso   1.00
H45    H     0.02858   0.18022   0.13687   0.00000  Uiso   1.00
H46    H     0.11293   0.32185   0.19710   0.00000  Uiso   1.00
H47    H     0.39111   0.17788   0.18948   0.00000  Uiso   1.00
H48    H     0.38729   0.32300   0.13902   0.00000  Uiso   1.00
H49    H     0.10877   0.17925   0.13950   0.00000  Uiso   1.00
H50    H     0.30407   0.03538   0.22091   0.00000  Uiso   1.00
N51    N     0.25000   0.12934   0.16667   0.00000  Uiso   1.00
N52    N     0.25000   0.37065   0.16667   0.00000  Uiso   1.00
O53    O     0.18573   0.29071   0.16667   0.00000  Uiso   1.00
O54    O     0.36084   0.10229   0.22380   0.00000  Uiso   1.00
O55    O     0.18340   0.34707   0.08238   0.00000  Uiso   1.00
O56    O     0.13422   0.38564   0.12779   0.00000  Uiso   1.00
O57    O     0.18524   0.15756   0.08122   0.00000  Uiso   1.00
O58    O     0.13925   0.10188   0.10927   0.00000  Uiso   1.00
O59    O     0.31659   0.34681   0.25067   0.00000  Uiso   1.00
O60    O     0.36578   0.38659   0.20632   0.00000  Uiso   1.00
O61    O     0.31427   0.20928   0.16666   0.00000  Uiso   1.00
O62    O     0.31427   0.29071   0.16666   0.00000  Uiso   1.00
O63    O     0.18573   0.20928   0.16667   0.00000  Uiso   1.00
O64    O     0.25000   0.29071   0.09613   0.00000  Uiso   1.00
O65    O     0.25000   0.20929   0.23720   0.00000  Uiso   1.00
O66    O     0.25000   0.29071   0.23720   0.00000  Uiso   1.00
O67    O     0.25000   0.20929   0.09613   0.00000  Uiso   1.00
O68    O     0.31475   0.15766   0.25216   0.00000  Uiso   1.00
C69    C     0.66511   0.25008   0.16706   0.00000  Uiso   1.00
C70    C     0.78608   0.44620   0.18654   0.00000  Uiso   1.00
C71    C     0.74993   0.25000   0.07367   0.00000  Uiso   1.00
C72    C     0.75007   0.25001   0.25966   0.00000  Uiso   1.00
C73    C     0.75001   0.02687   0.16668   0.00000  Uiso   1.00
C74    C     0.74999   0.47263   0.16667   0.00000  Uiso   1.00
C75    C     0.74997   0.25001   0.02188   0.00000  Uiso   1.00
C76    C     0.75002   0.25001   0.31145   0.00000  Uiso   1.00
C77    C     0.54869   0.29144   0.18309   0.00000  Uiso   1.00
C78    C     0.95335   0.21046   0.17994   0.00000  Uiso   1.00
C79    C     0.95142   0.29207   0.15143   0.00000  Uiso   1.00
C80    C     0.83489   0.25009   0.16617   0.00000  Uiso   1.00
C81    C     0.54658   0.21121   0.15060   0.00000  Uiso   1.00
C82    C     0.59469   0.29093   0.18361   0.00000  Uiso   1.00
C83    C     0.90749   0.20991   0.17899   0.00000  Uiso   1.00
C84    C     0.90543   0.29155   0.15106   0.00000  Uiso   1.00
C85    C     0.59244   0.21063   0.15172   0.00000  Uiso   1.00
C86    C     0.61683   0.25051   0.16763   0.00000  Uiso   1.00
C87    C     0.88319   0.25051   0.16530   0.00000  Uiso   1.00
C88    C     0.52429   0.25156   0.16643   0.00000  Uiso   1.00
C89    C     0.97573   0.25152   0.16610   0.00000  Uiso   1.00
C90    C     0.81955   0.12458   0.22418   0.00000  Uiso   1.00
C91    C     0.78161   0.10351   0.19470   0.00000  Uiso   1.00
C92    C     0.67731   0.37350   0.11689   0.00000  Uiso   1.00
C93    C     0.68047   0.12440   0.10911   0.00000  Uiso   1.00
C94    C     0.82270   0.37369   0.21654   0.00000  Uiso   1.00
C95    C     0.71505   0.39609   0.14464   0.00000  Uiso   1.00
C96    C     0.71840   0.10344   0.13864   0.00000  Uiso   1.00
C97    C     0.78495   0.39616   0.18870   0.00000  Uiso   1.00
C98    C     0.78056   0.05333   0.19595   0.00000  Uiso   1.00
C99    C     0.71390   0.44614   0.14679   0.00000  Uiso   1.00
C100   C     0.71946   0.05327   0.13740   0.00000  Uiso   1.00
Cu101  Cu    0.75000   0.29821   0.16667   0.00000  Uiso   1.00
Cu102  Cu    0.75000   0.20178   0.16667   0.00000  Uiso   1.00
H103   H     0.53228   0.32268   0.19637   0.00000  Uiso   1.00
H104   H     0.68449   0.46377   0.13167   0.00000  Uiso   1.00
H105   H     0.69599   0.03525   0.11243   0.00000  Uiso   1.00
H106   H     0.81547   0.46390   0.20167   0.00000  Uiso   1.00
H107   H     0.88357   0.11667   0.24838   0.00000  Uiso   1.00
H108   H     0.61099   0.36894   0.10561   0.00000  Uiso   1.00
H109   H     0.61663   0.11590   0.08436   0.00000  Uiso   1.00
H110   H     0.88900   0.36998   0.22858   0.00000  Uiso   1.00
H111   H     0.97128   0.17887   0.19200   0.00000  Uiso   1.00
H112   H     0.96790   0.32386   0.13960   0.00000  Uiso   1.00
H113   H     0.52858   0.18022   0.13687   0.00000  Uiso   1.00
H114   H     0.61293   0.32185   0.19710   0.00000  Uiso   1.00
H115   H     0.89111   0.17788   0.18948   0.00000  Uiso   1.00
H116   H     0.88729   0.32300   0.13902   0.00000  Uiso   1.00
H117   H     0.60877   0.17925   0.13950   0.00000  Uiso   1.00
H118   H     0.80407   0.03538   0.22091   0.00000  Uiso   1.00
N119   N     0.75000   0.12934   0.16667   0.00000  Uiso   1.00
N120   N     0.75000   0.37065   0.16667   0.00000  Uiso   1.00
O121   O     0.68573   0.29071   0.16667   0.00000  Uiso   1.00
O122   O     0.86084   0.10229   0.22380   0.00000  Uiso   1.00
O123   O     0.68340   0.34707   0.08238   0.00000  Uiso   1.00
O124   O     0.63422   0.38564   0.12779   0.00000  Uiso   1.00
O125   O     0.68524   0.15756   0.08122   0.00000  Uiso   1.00
O126   O     0.63925   0.10188   0.10927   0.00000  Uiso   1.00
O127   O     0.81659   0.34681   0.25067   0.00000  Uiso   1.00
O128   O     0.86578   0.38659   0.20632   0.00000  Uiso   1.00
O129   O     0.81427   0.20928   0.16666   0.00000  Uiso   1.00
O130   O     0.81427   0.29071   0.16666   0.00000  Uiso   1.00
O131   O     0.68573   0.20928   0.16667   0.00000  Uiso   1.00
O132   O     0.75000   0.29071   0.09613   0.00000  Uiso   1.00
O133   O     0.75000   0.20929   0.23720   0.00000  Uiso   1.00
O134   O     0.75000   0.29071   0.23720   0.00000  Uiso   1.00
O135   O     0.75000   0.20929   0.09613   0.00000  Uiso   1.00
O136   O     0.81475   0.15766   0.25216   0.00000  Uiso   1.00
C137   C     0.16511   0.75008   0.16706   0.00000  Uiso   1.00
C138   C     0.28608   0.94620   0.18654   0.00000  Uiso   1.00
C139   C     0.24993   0.75000   0.07367   0.00000  Uiso   1.00
C140   C     0.25007   0.75001   0.25966   0.00000  Uiso   1.00
C141   C     0.25001   0.52687   0.16668   0.00000  Uiso   1.00
C142   C     0.24999   0.97263   0.16667   0.00000  Uiso   1.00
C143   C     0.24997   0.75001   0.02188   0.00000  Uiso   1.00
C144   C     0.25002   0.75001   0.31145   0.00000  Uiso   1.00
C145   C     0.04869   0.79144   0.18309   0.00000  Uiso   1.00
C146   C     0.45335   0.71046   0.17994   0.00000  Uiso   1.00
C147   C     0.45142   0.79207   0.15143   0.00000  Uiso   1.00
C148   C     0.33489   0.75009   0.16617   0.00000  Uiso   1.00
C149   C     0.04658   0.71121   0.15060   0.00000  Uiso   1.00
C150   C     0.09469   0.79093   0.18361   0.00000  Uiso   1.00
C151   C     0.40749   0.70991   0.17899   0.00000  Uiso   1.00
C152   C     0.40543   0.79155   0.15106   0.00000  Uiso   1.00
C153   C     0.09244   0.71063   0.15172   0.00000  Uiso   1.00
C154   C     0.11683   0.75051   0.16763   0.00000  Uiso   1.00
C155   C     0.38319   0.75051   0.16530   0.00000  Uiso   1.00
C156   C     0.02429   0.75156   0.16643   0.00000  Uiso   1.00
C157   C     0.47573   0.75152   0.16610   0.00000  Uiso   1.00
C158   C     0.31955   0.62458   0.22418   0.00000  Uiso   1.00
C159   C     0.28161   0.60351   0.19470   0.00000  Uiso   1.00
C160   C     0.17731   0.87350   0.11689   0.00000  Uiso   1.00
C161   C     0.18047   0.62440   0.10911   0.00000  Uiso   1.00
C162   C     0.32270   0.87369   0.21654   0.00000  Uiso   1.00
C163   C     0.21505   0.89609   0.14464   0.00000  Uiso   1.00
C164   C     0.21840   0.60344   0.13864   0.00000  Uiso   1.00
C165   C     0.28495   0.89616   0.18870   0.00000  Uiso   1.00
C166   C     0.28056   0.55333   0.19595   0.00000  Uiso   1.00
C167   C     0.21390   0.94614   0.14679   0.00000  Uiso   1.00
C168   C     0.21946   0.55327   0.13740   0.00000  Uiso   1.00
Cu169  Cu    0.25000   0.79821   0.16667   0.00000  Uiso   1.00
Cu170  Cu    0.25000   0.70178   0.16667   0.00000  Uiso   1.00
H171   H     0.03228   0.82268   0.19637   0.00000  Uiso   1.00
H172   H     0.18449   0.96377   0.13167   0.00000  Uiso   1.00
H173   H     0.19599   0.53525   0.11243   0.00000  Uiso   1.00
H174   H     0.31547   0.96390   0.20167   0.00000  Uiso   1.00
H175   H     0.38357   0.61667   0.24838   0.00000  Uiso   1.00
H176   H     0.11099   0.86894   0.10561   0.00000  Uiso   1.00
H177   H     0.11663   0.61590   0.08436   0.00000  Uiso   1.00
H178   H     0.38900   0.86998   0.22858   0.00000  Uiso   1.00
H179   H     0.47128   0.67887   0.19200   0.00000  Uiso   1.00
H180   H     0.46790   0.82386   0.13960   0.00000  Uiso   1.00
H181   H     0.02858   0.68022   0.13687   0.00000  Uiso   1.00
H182   H     0.11293   0.82185   0.19710   0.00000  Uiso   1.00
H183   H     0.39111   0.67788   0.18948   0.00000  Uiso   1.00
H184   H     0.38729   0.82300   0.13902   0.00000  Uiso   1.00
H185   H     0.10877   0.67925   0.13950   0.00000  Uiso   1.00
H186   H     0.30407   0.53538   0.22091   0.00000  Uiso   1.00
N187   N     0.25000   0.62934   0.16667   0.00000  Uiso   1.00
N188   N     0.25000   0.87065   0.16667   0.00000  Uiso   1.00
O189   O     0.18573   0.79071   0.16667   0.00000  Uiso   1.00
O190   O     0.36084   0.60229   0.22380   0.00000  Uiso   1.00
O191   O     0.18340   0.84707   0.08238   0.00000  Uiso   1.00
O192   O     0.13422   0.88564   0.12779   0.00000  Uiso   1.00
O193   O     0.18524   0.65756   0.08122   0.00000  Uiso   1.00
O194   O     0.13925   0.60188   0.10927   0.00000  Uiso   1.00
O195   O     0.31659   0.84681   0.25067   0.00000  Uiso   1.00
O196   O     0.36578   0.88659   0.20632   0.00000  Uiso   1.00
O197   O     0.31427   0.70928   0.16666   0.00000  Uiso   1.00
O198   O     0.31427   0.79071   0.16666   0.00000  Uiso   1.00
O199   O     0.18573   0.70928   0.16667   0.00000  Uiso   1.00
O200   O     0.25000   0.79071   0.09613   0.00000  Uiso   1.00
O201   O     0.25000   0.70929   0.23720   0.00000  Uiso   1.00
O202   O     0.25000   0.79071   0.23720   0.00000  Uiso   1.00
O203   O     0.25000   0.70929   0.09613   0.00000  Uiso   1.00
O204   O     0.31475   0.65766   0.25216   0.00000  Uiso   1.00
C205   C     0.66511   0.75008   0.16706   0.00000  Uiso   1.00
C206   C     0.78608   0.94620   0.18654   0.00000  Uiso   1.00
C207   C     0.74993   0.75000   0.07367   0.00000  Uiso   1.00
C208   C     0.75007   0.75001   0.25966   0.00000  Uiso   1.00
C209   C     0.75001   0.52687   0.16668   0.00000  Uiso   1.00
C210   C     0.74999   0.97263   0.16667   0.00000  Uiso   1.00
C211   C     0.74997   0.75001   0.02188   0.00000  Uiso   1.00
C212   C     0.75002   0.75001   0.31145   0.00000  Uiso   1.00
C213   C     0.54869   0.79144   0.18309   0.00000  Uiso   1.00
C214   C     0.95335   0.71046   0.17994   0.00000  Uiso   1.00
C215   C     0.95142   0.79207   0.15143   0.00000  Uiso   1.00
C216   C     0.83489   0.75009   0.16617   0.00000  Uiso   1.00
C217   C     0.54658   0.71121   0.15060   0.00000  Uiso   1.00
C218   C     0.59469   0.79093   0.18361   0.00000  Uiso   1.00
C219   C     0.90749   0.70991   0.17899   0.00000  Uiso   1.00
C220   C     0.90543   0.79155   0.15106   0.00000  Uiso   1.00
C221   C     0.59244   0.71063   0.15172   0.00000  Uiso   1.00
C222   C     0.61683   0.75051   0.16763   0.00000  Uiso   1.00
C223   C     0.88319   0.75051   0.16530   0.00000  Uiso   1.00
C224   C     0.52429   0.75156   0.16643   0.00000  Uiso   1.00
C225   C     0.97573   0.75152   0.16610   0.00000  Uiso   1.00
C226   C     0.81955   0.62458   0.22418   0.00000  Uiso   1.00
C227   C     0.78161   0.60351   0.19470   0.00000  Uiso   1.00
C228   C     0.67731   0.87350   0.11689   0.00000  Uiso   1.00
C229   C     0.68047   0.62440   0.10911   0.00000  Uiso   1.00
C230   C     0.82270   0.87369   0.21654   0.00000  Uiso   1.00
C231   C     0.71505   0.89609   0.14464   0.00000  Uiso   1.00
C232   C     0.71840   0.60344   0.13864   0.00000  Uiso   1.00
C233   C     0.78495   0.89616   0.18870   0.00000  Uiso   1.00
C234   C     0.78056   0.55333   0.19595   0.00000  Uiso   1.00
C235   C     0.71390   0.94614   0.14679   0.00000  Uiso   1.00
C236   C     0.71946   0.55327   0.13740   0.00000  Uiso   1.00
Cu237  Cu    0.75000   0.79821   0.16667   0.00000  Uiso   1.00
Cu238  Cu    0.75000   0.70178   0.16667   0.00000  Uiso   1.00
H239   H     0.53228   0.82268   0.19637   0.00000  Uiso   1.00
H240   H     0.68449   0.96377   0.13167   0.00000  Uiso   1.00
H241   H     0.69599   0.53525   0.11243   0.00000  Uiso   1.00
H242   H     0.81547   0.96390   0.20167   0.00000  Uiso   1.00
H243   H     0.88357   0.61667   0.24838   0.00000  Uiso   1.00
H244   H     0.61099   0.86894   0.10561   0.00000  Uiso   1.00
H245   H     0.61663   0.61590   0.08436   0.00000  Uiso   1.00
H246   H     0.88900   0.86998   0.22858   0.00000  Uiso   1.00
H247   H     0.97128   0.67887   0.19200   0.00000  Uiso   1.00
H248   H     0.96790   0.82386   0.13960   0.00000  Uiso   1.00
H249   H     0.52858   0.68022   0.13687   0.00000  Uiso   1.00
H250   H     0.61293   0.82185   0.19710   0.00000  Uiso   1.00
H251   H     0.89111   0.67788   0.18948   0.00000  Uiso   1.00
H252   H     0.88729   0.82300   0.13902   0.00000  Uiso   1.00
H253   H     0.60877   0.67925   0.13950   0.00000  Uiso   1.00
H254   H     0.80407   0.53538   0.22091   0.00000  Uiso   1.00
N255   N     0.75000   0.62934   0.16667   0.00000  Uiso   1.00
N256   N     0.75000   0.87065   0.16667   0.00000  Uiso   1.00
O257   O     0.68573   0.79071   0.16667   0.00000  Uiso   1.00
O258   O     0.86084   0.60229   0.22380   0.00000  Uiso   1.00
O259   O     0.68340   0.84707   0.08238   0.00000  Uiso   1.00
O260   O     0.63422   0.88564   0.12779   0.00000  Uiso   1.00
O261   O     0.68524   0.65756   0.08122   0.00000  Uiso   1.00
O262   O     0.63925   0.60188   0.10927   0.00000  Uiso   1.00
O263   O     0.81659   0.84681   0.25067   0.00000  Uiso   1.00
O264   O     0.86578   0.88659   0.20632   0.00000  Uiso   1.00
O265   O     0.81427   0.70928   0.16666   0.00000  Uiso   1.00
O266   O     0.81427   0.79071   0.16666   0.00000  Uiso   1.00
O267   O     0.68573   0.70928   0.16667   0.00000  Uiso   1.00
O268   O     0.75000   0.79071   0.09613   0.00000  Uiso   1.00
O269   O     0.75000   0.70929   0.23720   0.00000  Uiso   1.00
O270   O     0.75000   0.79071   0.23720   0.00000  Uiso   1.00
O271   O     0.75000   0.70929   0.09613   0.00000  Uiso   1.00
O272   O     0.81475   0.65766   0.25216   0.00000  Uiso   1.00
C273   C     0.16511   0.25008   0.50040   0.00000  Uiso   1.00
C274   C     0.28608   0.44620   0.51987   0.00000  Uiso   1.00
C275   C     0.24993   0.25000   0.40700   0.00000  Uiso   1.00
C276   C     0.25007   0.25001   0.59300   0.00000  Uiso   1.00
C277   C     0.25001   0.02687   0.50001   0.00000  Uiso   1.00
C278   C     0.24999   0.47263   0.50000   0.00000  Uiso   1.00
C279   C     0.24997   0.25001   0.35522   0.00000  Uiso   1.00
C280   C     0.25002   0.25001   0.64478   0.00000  Uiso   1.00
C281   C     0.04869   0.29144   0.51642   0.00000  Uiso   1.00
C282   C     0.45335   0.21046   0.51327   0.00000  Uiso   1.00
C283   C     0.45142   0.29207   0.48476   0.00000  Uiso   1.00
C284   C     0.33489   0.25009   0.49950   0.00000  Uiso   1.00
C285   C     0.04658   0.21121   0.48394   0.00000  Uiso   1.00
C286   C     0.09469   0.29093   0.51694   0.00000  Uiso   1.00
C287   C     0.40749   0.20991   0.51233   0.00000  Uiso   1.00
C288   C     0.40543   0.29155   0.48440   0.00000  Uiso   1.00
C289   C     0.09244   0.21063   0.48505   0.00000  Uiso   1.00
C290   C     0.11683   0.25051   0.50097   0.00000  Uiso   1.00
C291   C     0.38319   0.25051   0.49863   0.00000  Uiso   1.00
C292   C     0.02429   0.25156   0.49976   0.00000  Uiso   1.00
C293   C     0.47573   0.25152   0.49943   0.00000  Uiso   1.00
C294   C     0.31955   0.12458   0.55751   0.00000  Uiso   1.00
C295   C     0.28161   0.10351   0.52803   0.00000  Uiso   1.00
C296   C     0.17731   0.37350   0.45023   0.00000  Uiso   1.00
C297   C     0.18047   0.12440   0.44244   0.00000  Uiso   1.00
C298   C     0.32270   0.37369   0.54988   0.00000  Uiso   1.00
C299   C     0.21505   0.39609   0.47797   0.00000  Uiso   1.00
C300   C     0.21840   0.10344   0.47197   0.00000  Uiso   1.00
C301   C     0.28495   0.39616   0.52204   0.00000  Uiso   1.00
C302   C     0.28056   0.05333   0.52928   0.00000  Uiso   1.00
C303   C     0.21390   0.44614   0.48012   0.00000  Uiso   1.00
C304   C     0.21946   0.05327   0.47074   0.00000  Uiso   1.00
Cu305  Cu    0.25000   0.29821   0.50000   0.00000  Uiso   1.00
Cu306  Cu    0.25000   0.20178   0.50000   0.00000  Uiso   1.00
H307   H     0.03228   0.32268   0.52970   0.00000  Uiso   1.00
H308   H     0.18449   0.46377   0.46500   0.00000  Uiso   1.00
H309   H     0.19599   0.03525   0.44576   0.00000  Uiso   1.00
H310   H     0.31547   0.46390   0.53501   0.00000  Uiso   1.00
H311   H     0.38357   0.11667   0.58171   0.00000  Uiso   1.00
H312   H     0.11099   0.36894   0.43894   0.00000  Uiso   1.00
H313   H     0.11663   0.11590   0.41769   0.00000  Uiso   1.00
H314   H     0.38900   0.36998   0.56191   0.00000  Uiso   1.00
H315   H     0.47128   0.17887   0.52533   0.00000  Uiso   1.00
H316   H     0.46790   0.32386   0.47293   0.00000  Uiso   1.00
H317   H     0.02858   0.18022   0.47021   0.00000  Uiso   1.00
H318   H     0.11293   0.32185   0.53043   0.00000  Uiso   1.00
H319   H     0.39111   0.17788   0.52281   0.00000  Uiso   1.00
H320   H     0.38729   0.32300   0.47235   0.00000  Uiso   1.00
H321   H     0.10877   0.17925   0.47284   0.00000  Uiso   1.00
H322   H     0.30407   0.03538   0.55424   0.00000  Uiso   1.00
N323   N     0.25000   0.12934   0.50000   0.00000  Uiso   1.00
N324   N     0.25000   0.37065   0.50000   0.00000  Uiso   1.00
O325   O     0.18573   0.29071   0.50000   0.00000  Uiso   1.00
O326   O     0.36084   0.10229   0.55714   0.00000  Uiso   1.00
O327   O     0.18340   0.34707   0.41572   0.00000  Uiso   1.00
O328   O     0.13422   0.38564   0.46113   0.00000  Uiso   1.00
O329   O     0.18524   0.15756   0.41455   0.00000  Uiso   1.00
O330   O     0.13925   0.10188   0.44260   0.00000  Uiso   1.00
O331   O     0.31659   0.34681   0.58400   0.00000  Uiso   1.00
O332   O     0.36578   0.38659   0.53966   0.00000  Uiso   1.00
O333   O     0.31427   0.20928   0.50000   0.00000  Uiso   1.00
O334   O     0.31427   0.29071   0.50000   0.00000  Uiso   1.00
O335   O     0.18573   0.20928   0.50000   0.00000  Uiso   1.00
O336   O     0.25000   0.29071   0.42946   0.00000  Uiso   1.00
O337   O     0.25000   0.20929   0.57054   0.00000  Uiso   1.00
O338   O     0.25000   0.29071   0.57054   0.00000  Uiso   1.00
O339   O     0.25000   0.20929   0.42946   0.00000  Uiso   1.00
O340   O     0.31475   0.15766   0.58549   0.00000  Uiso   1.00
C341   C     0.66511   0.25008   0.50040   0.00000  Uiso   1.00
C342   C     0.78608   0.44620   0.51987   0.00000  Uiso   1.00
C343   C     0.74993   0.25000   0.40700   0.00000  Uiso   1.00
C344   C     0.75007   0.25001   0.59300   0.00000  Uiso   1.00
C345   C     0.75001   0.02687   0.50001   0.00000  Uiso   1.00
C346   C     0.74999   0.47263   0.50000   0.00000  Uiso   1.00
C347   C     0.74997   0.25001   0.35522   0.00000  Uiso   1.00
C348   C     0.75002   0.25001   0.64478   0.00000  Uiso   1.00
C349   C     0.54869   0.29144   0.51642   0.00000  Uiso   1.00
C350   C     0.95335   0.21046   0.51327   0.00000  Uiso   1.00
C351   C     0.95142   0.29207   0.48476   0.00000  Uiso   1.00
C352   C     0.83489   0.25009   0.49950   0.00000  Uiso   1.00
C353   C     0.54658   0.21121   0.48394   0.00000  Uiso   1.00
C354   C     0.59469   0.29093   0.51694   0.00000  Uiso   1.00
C355   C     0.90749   0.20991   0.51233   0.00000  Uiso   1.00
C356   C     0.90543   0.29155   0.48440   0.00000  Uiso   1.00
C357   C     0.59244   0.21063   0.48505   0.00000  Uiso   1.00
C358   C     0.61683   0.25051   0.50097   0.00000  Uiso   1.00
C359   C     0.88319   0.25051   0.49863   0.00000  Uiso   1.00
C360   C     0.52429   0.25156   0.49976   0.00000  Uiso   1.00
C361   C     0.97573   0.25152   0.49943   0.00000  Uiso   1.00
C362   C     0.81955   0.12458   0.55751   0.00000  Uiso   1.00
C363   C     0.78161   0.10351   0.52803   0.00000  Uiso   1.00
C364   C     0.67731   0.37350   0.45023   0.00000  Uiso   1.00
C365   C     0.68047   0.12440   0.44244   0.00000  Uiso   1.00
C366   C     0.82270   0.37369   0.54988   0.00000  Uiso   1.00
C367   C     0.71505   0.39609   0.47797   0.00000  Uiso   1.00
C368   C     0.71840   0.10344   0.47197   0.00000  Uiso   1.00
C369   C     0.78495   0.39616   0.52204   0.00000  Uiso   1.00
C370   C     0.78056   0.05333   0.52928   0.00000  Uiso   1.00
C371   C     0.71390   0.44614   0.48012   0.00000  Uiso   1.00
C372   C     0.71946   0.05327   0.47074   0.00000  Uiso   1.00
Cu373  Cu    0.75000   0.29821   0.50000   0.00000  Uiso   1.00
Cu374  Cu    0.75000   0.20178   0.50000   0.00000  Uiso   1.00
H375   H     0.53228   0.32268   0.52970   0.00000  Uiso   1.00
H376   H     0.68449   0.46377   0.46500   0.00000  Uiso   1.00
H377   H     0.69599   0.03525   0.44576   0.00000  Uiso   1.00
H378   H     0.81547   0.46390   0.53501   0.00000  Uiso   1.00
H379   H     0.88357   0.11667   0.58171   0.00000  Uiso   1.00
H380   H     0.61099   0.36894   0.43894   0.00000  Uiso   1.00
H381   H     0.61663   0.11590   0.41769   0.00000  Uiso   1.00
H382   H     0.88900   0.36998   0.56191   0.00000  Uiso   1.00
H383   H     0.97128   0.17887   0.52533   0.00000  Uiso   1.00
H384   H     0.96790   0.32386   0.47293   0.00000  Uiso   1.00
H385   H     0.52858   0.18022   0.47021   0.00000  Uiso   1.00
H386   H     0.61293   0.32185   0.53043   0.00000  Uiso   1.00
H387   H     0.89111   0.17788   0.52281   0.00000  Uiso   1.00
H388   H     0.88729   0.32300   0.47235   0.00000  Uiso   1.00
H389   H     0.60877   0.17925   0.47284   0.00000  Uiso   1.00
H390   H     0.80407   0.03538   0.55424   0.00000  Uiso   1.00
N391   N     0.75000   0.12934   0.50000   0.00000  Uiso   1.00
N392   N     0.75000   0.37065   0.50000   0.00000  Uiso   1.00
O393   O     0.68573   0.29071   0.50000   0.00000  Uiso   1.00
O394   O     0.86084   0.10229   0.55714   0.00000  Uiso   1.00
O395   O     0.68340   0.34707   0.41572   0.00000  Uiso   1.00
O396   O     0.63422   0.38564   0.46113   0.00000  Uiso   1.00
O397   O     0.68524   0.15756   0.41455   0.00000  Uiso   1.00
O398   O     0.63925   0.10188   0.44260   0.00000  Uiso   1.00
O399   O     0.81659   0.34681   0.58400   0.00000  Uiso   1.00
O400   O     0.86578   0.38659   0.53966   0.00000  Uiso   1.00
O401   O     0.81427   0.20928   0.50000   0.00000  Uiso   1.00
O402   O     0.81427   0.29071   0.50000   0.00000  Uiso   1.00
O403   O     0.68573   0.20928   0.50000   0.00000  Uiso   1.00
O404   O     0.75000   0.29071   0.42946   0.00000  Uiso   1.00
O405   O     0.75000   0.20929   0.57054   0.00000  Uiso   1.00
O406   O     0.75000   0.29071   0.57054   0.00000  Uiso   1.00
O407   O     0.75000   0.20929   0.42946   0.00000  Uiso   1.00
O408   O     0.81475   0.15766   0.58549   0.00000  Uiso   1.00
C409   C     0.16511   0.75008   0.50040   0.00000  Uiso   1.00
C410   C     0.28608   0.94620   0.51987   0.00000  Uiso   1.00
C411   C     0.24993   0.75000   0.40700   0.00000  Uiso   1.00
C412   C     0.25007   0.75001   0.59300   0.00000  Uiso   1.00
C413   C     0.25001   0.52687   0.50001   0.00000  Uiso   1.00
C414   C     0.24999   0.97263   0.50000   0.00000  Uiso   1.00
C415   C     0.24997   0.75001   0.35522   0.00000  Uiso   1.00
C416   C     0.25002   0.75001   0.64478   0.00000  Uiso   1.00
C417   C     0.04869   0.79144   0.51642   0.00000  Uiso   1.00
C418   C     0.45335   0.71046   0.51327   0.00000  Uiso   1.00
C419   C     0.45142   0.79207   0.48476   0.00000  Uiso   1.00
C420   C     0.33489   0.75009   0.49950   0.00000  Uiso   1.00
C421   C     0.04658   0.71121   0.48394   0.00000  Uiso   1.00
C422   C     0.09469   0.79093   0.51694   0.00000  Uiso   1.00
C423   C     0.40749   0.70991   0.51233   0.00000  Uiso   1.00
C424   C     0.40543   0.79155   0.48440   0.00000  Uiso   1.00
C425   C     0.09244   0.71063   0.48505   0.00000  Uiso   1.00
C426   C     0.11683   0.75051   0.50097   0.00000  Uiso   1.00
C427   C     0.38319   0.75051   0.49863   0.00000  Uiso   1.00
C428   C     0.02429   0.75156   0.49976   0.00000  Uiso   1.00
C429   C     0.47573   0.75152   0.49943   0.00000  Uiso   1.00
C430   C     0.31955   0.62458   0.55751   0.00000  Uiso   1.00
C431   C     0.28161   0.60351   0.52803   0.00000  Uiso   1.00
C432   C     0.17731   0.87350   0.45023   0.00000  Uiso   1.00
C433   C     0.18047   0.62440   0.44244   0.00000  Uiso   1.00
C434   C     0.32270   0.87369   0.54988   0.00000  Uiso   1.00
C435   C     0.21505   0.89609   0.47797   0.00000  Uiso   1.00
C436   C     0.21840   0.60344   0.47197   0.00000  Uiso   1.00
C437   C     0.28495   0.89616   0.52204   0.00000  Uiso   1.00
C438   C     0.28056   0.55333   0.52928   0.00000  Uiso   1.00
C439   C     0.21390   0.94614   0.48012   0.00000  Uiso   1.00
C440   C     0.21946   0.55327   0.47074   0.00000  Uiso   1.00
Cu441  Cu    0.25000   0.79821   0.50000   0.00000  Uiso   1.00
Cu442  Cu    0.25000   0.70178   0.50000   0.00000  Uiso   1.00
H443   H     0.03228   0.82268   0.52970   0.00000  Uiso   1.00
H444   H     0.18449   0.96377   0.46500   0.00000  Uiso   1.00
H445   H     0.19599   0.53525   0.44576   0.00000  Uiso   1.00
H446   H     0.31547   0.96390   0.53501   0.00000  Uiso   1.00
H447   H     0.38357   0.61667   0.58171   0.00000  Uiso   1.00
H448   H     0.11099   0.86894   0.43894   0.00000  Uiso   1.00
H449   H     0.11663   0.61590   0.41769   0.00000  Uiso   1.00
H450   H     0.38900   0.86998   0.56191   0.00000  Uiso   1.00
H451   H     0.47128   0.67887   0.52533   0.00000  Uiso   1.00
H452   H     0.46790   0.82386   0.47293   0.00000  Uiso   1.00
H453   H     0.02858   0.68022   0.47021   0.00000  Uiso   1.00
H454   H     0.11293   0.82185   0.53043   0.00000  Uiso   1.00
H455   H     0.39111   0.67788   0.52281   0.00000  Uiso   1.00
H456   H     0.38729   0.82300   0.47235   0.00000  Uiso   1.00
H457   H     0.10877   0.67925   0.47284   0.00000  Uiso   1.00
H458   H     0.30407   0.53538   0.55424   0.00000  Uiso   1.00
N459   N     0.25000   0.62934   0.50000   0.00000  Uiso   1.00
N460   N     0.25000   0.87065   0.50000   0.00000  Uiso   1.00
O461   O     0.18573   0.79071   0.50000   0.00000  Uiso   1.00
O462   O     0.36084   0.60229   0.55714   0.00000  Uiso   1.00
O463   O     0.18340   0.84707   0.41572   0.00000  Uiso   1.00
O464   O     0.13422   0.88564   0.46113   0.00000  Uiso   1.00
O465   O     0.18524   0.65756   0.41455   0.00000  Uiso   1.00
O466   O     0.13925   0.60188   0.44260   0.00000  Uiso   1.00
O467   O     0.31659   0.84681   0.58400   0.00000  Uiso   1.00
O468   O     0.36578   0.88659   0.53966   0.00000  Uiso   1.00
O469   O     0.31427   0.70928   0.50000   0.00000  Uiso   1.00
O470   O     0.31427   0.79071   0.50000   0.00000  Uiso   1.00
O471   O     0.18573   0.70928   0.50000   0.00000  Uiso   1.00
O472   O     0.25000   0.79071   0.42946   0.00000  Uiso   1.00
O473   O     0.25000   0.70929   0.57054   0.00000  Uiso   1.00
O474   O     0.25000   0.79071   0.57054   0.00000  Uiso   1.00
O475   O     0.25000   0.70929   0.42946   0.00000  Uiso   1.00
O476   O     0.31475   0.65766   0.58549   0.00000  Uiso   1.00
C477   C     0.66511   0.75008   0.50040   0.00000  Uiso   1.00
C478   C     0.78608   0.94620   0.51987   0.00000  Uiso   1.00
C479   C     0.74993   0.75000   0.40700   0.00000  Uiso   1.00
C480   C     0.75007   0.75001   0.59300   0.00000  Uiso   1.00
C481   C     0.75001   0.52687   0.50001   0.00000  Uiso   1.00
C482   C     0.74999   0.97263   0.50000   0.00000  Uiso   1.00
C483   C     0.74997   0.75001   0.35522   0.00000  Uiso   1.00
C484   C     0.75002   0.75001   0.64478   0.00000  Uiso   1.00
C485   C     0.54869   0.79144   0.51642   0.00000  Uiso   1.00
C486   C     0.95335   0.71046   0.51327   0.00000  Uiso   1.00
C487   C     0.95142   0.79207   0.48476   0.00000  Uiso   1.00
C488   C     0.83489   0.75009   0.49950   0.00000  Uiso   1.00
C489   C     0.54658   0.71121   0.48394   0.00000  Uiso   1.00
C490   C     0.59469   0.79093   0.51694   0.00000  Uiso   1.00
C491   C     0.90749   0.70991   0.51233   0.00000  Uiso   1.00
C492   C     0.90543   0.79155   0.48440   0.00000  Uiso   1.00
C493   C     0.59244   0.71063   0.48505   0.00000  Uiso   1.00
C494   C     0.61683   0.75051   0.50097   0.00000  Uiso   1.00
C495   C     0.88319   0.75051   0.49863   0.00000  Uiso   1.00
C496   C     0.52429   0.75156   0.49976   0.00000  Uiso   1.00
C497   C     0.97573   0.75152   0.49943   0.00000  Uiso   1.00
C498   C     0.81955   0.62458   0.55751   0.00000  Uiso   1.00
C499   C     0.78161   0.60351   0.52803   0.00000  Uiso   1.00
C500   C     0.67731   0.87350   0.45023   0.00000  Uiso   1.00
C501   C     0.68047   0.62440   0.44244   0.00000  Uiso   1.00
C502   C     0.82270   0.87369   0.54988   0.00000  Uiso   1.00
C503   C     0.71505   0.89609   0.47797   0.00000  Uiso   1.00
C504   C     0.71840   0.60344   0.47197   0.00000  Uiso   1.00
C505   C     0.78495   0.89616   0.52204   0.00000  Uiso   1.00
C506   C     0.78056   0.55333   0.52928   0.00000  Uiso   1.00
C507   C     0.71390   0.94614   0.48012   0.00000  Uiso   1.00
C508   C     0.71946   0.55327   0.47074   0.00000  Uiso   1.00
Cu509  Cu    0.75000   0.79821   0.50000   0.00000  Uiso   1.00
Cu510  Cu    0.75000   0.70178   0.50000   0.00000  Uiso   1.00
H511   H     0.53228   0.82268   0.52970   0.00000  Uiso   1.00
H512   H     0.68449   0.96377   0.46500   0.00000  Uiso   1.00
H513   H     0.69599   0.53525   0.44576   0.00000  Uiso   1.00
H514   H     0.81547   0.96390   0.53501   0.00000  Uiso   1.00
H515   H     0.88357   0.61667   0.58171   0.00000  Uiso   1.00
H516   H     0.61099   0.86894   0.43894   0.00000  Uiso   1.00
H517   H     0.61663   0.61590   0.41769   0.00000  Uiso   1.00
H518   H     0.88900   0.86998   0.56191   0.00000  Uiso   1.00
H519   H     0.97128   0.67887   0.52533   0.00000  Uiso   1.00
H520   H     0.96790   0.82386   0.47293   0.00000  Uiso   1.00
H521   H     0.52858   0.68022   0.47021   0.00000  Uiso   1.00
H522   H     0.61293   0.82185   0.53043   0.00000  Uiso   1.00
H523   H     0.89111   0.67788   0.52281   0.00000  Uiso   1.00
H524   H     0.88729   0.82300   0.47235   0.00000  Uiso   1.00
H525   H     0.60877   0.67925   0.47284   0.00000  Uiso   1.00
H526   H     0.80407   0.53538   0.55424   0.00000  Uiso   1.00
N527   N     0.75000   0.62934   0.50000   0.00000  Uiso   1.00
N528   N     0.75000   0.87065   0.50000   0.00000  Uiso   1.00
O529   O     0.68573   0.79071   0.50000   0.00000  Uiso   1.00
O530   O     0.86084   0.60229   0.55714   0.00000  Uiso   1.00
O531   O     0.68340   0.84707   0.41572   0.00000  Uiso   1.00
O532   O     0.63422   0.88564   0.46113   0.00000  Uiso   1.00
O533   O     0.68524   0.65756   0.41455   0.00000  Uiso   1.00
O534   O     0.63925   0.60188   0.44260   0.00000  Uiso   1.00
O535   O     0.81659   0.84681   0.58400   0.00000  Uiso   1.00
O536   O     0.86578   0.88659   0.53966   0.00000  Uiso   1.00
O537   O     0.81427   0.70928   0.50000   0.00000  Uiso   1.00
O538   O     0.81427   0.79071   0.50000   0.00000  Uiso   1.00
O539   O     0.68573   0.70928   0.50000   0.00000  Uiso   1.00
O540   O     0.75000   0.79071   0.42946   0.00000  Uiso   1.00
O541   O     0.75000   0.70929   0.57054   0.00000  Uiso   1.00
O542   O     0.75000   0.79071   0.57054   0.00000  Uiso   1.00
O543   O     0.75000   0.70929   0.42946   0.00000  Uiso   1.00
O544   O     0.81475   0.65766   0.58549   0.00000  Uiso   1.00
C545   C     0.16511   0.25008   0.83373   0.00000  Uiso   1.00
C546   C     0.28608   0.44620   0.85320   0.00000  Uiso   1.00
C547   C     0.24993   0.25000   0.74034   0.00000  Uiso   1.00
C548   C     0.25007   0.25001   0.92633   0.00000  Uiso   1.00
C549   C     0.25001   0.02687   0.83335   0.00000  Uiso   1.00
C550   C     0.24999   0.47263   0.83333   0.00000  Uiso   1.00
C551   C     0.24997   0.25001   0.68855   0.00000  Uiso   1.00
C552   C     0.25002   0.25001   0.97812   0.00000  Uiso   1.00
C553   C     0.04869   0.29144   0.84976   0.00000  Uiso   1.00
C554   C     0.45335   0.21046   0.84661   0.00000  Uiso   1.00
C555   C     0.45142   0.29207   0.81810   0.00000  Uiso   1.00
C556   C     0.33489   0.25009   0.83284   0.00000  Uiso   1.00
C557   C     0.04658   0.21121   0.81727   0.00000  Uiso   1.00
C558   C     0.09469   0.29093   0.85027   0.00000  Uiso   1.00
C559   C     0.40749   0.20991   0.84566   0.00000  Uiso   1.00
C560   C     0.40543   0.29155   0.81773   0.00000  Uiso   1.00
C561   C     0.09244   0.21063   0.81838   0.00000  Uiso   1.00
C562   C     0.11683   0.25051   0.83430   0.00000  Uiso   1.00
C563   C     0.38319   0.25051   0.83196   0.00000  Uiso   1.00
C564   C     0.02429   0.25156   0.83309   0.00000  Uiso   1.00
C565   C     0.47573   0.25152   0.83277   0.00000  Uiso   1.00
C566   C     0.31955   0.12458   0.89084   0.00000  Uiso   1.00
C567   C     0.28161   0.10351   0.86136   0.00000  Uiso   1.00
C568   C     0.17731   0.37350   0.78356   0.00000  Uiso   1.00
C569   C     0.18047   0.12440   0.77577   0.00000  Uiso   1.00
C570   C     0.32270   0.37369   0.88321   0.00000  Uiso   1.00
C571   C     0.21505   0.39609   0.81130   0.00000  Uiso   1.00
C572   C     0.21840   0.10344   0.80531   0.00000  Uiso   1.00
C573   C     0.28495   0.39616   0.85537   0.00000  Uiso   1.00
C574   C     0.28056   0.05333   0.86261   0.00000  Uiso   1.00
C575   C     0.21390   0.44614   0.81346   0.00000  Uiso   1.00
C576   C     0.21946   0.05327   0.80407   0.00000  Uiso   1.00
Cu577  Cu    0.25000   0.29821   0.83333   0.00000  Uiso   1.00
Cu578  Cu    0.25000   0.20178   0.83333   0.00000  Uiso   1.00
H579   H     0.03228   0.32268   0.86303   0.00000  Uiso   1.00
H580   H     0.18449   0.46377   0.79833   0.00000  Uiso   1.00
H581   H     0.19599   0.03525   0.77910   0.00000  Uiso   1.00
H582   H     0.31547   0.46390   0.86834   0.00000  Uiso   1.00
H583   H     0.38357   0.11667   0.91505   0.00000  Uiso   1.00
H584   H     0.11099   0.36894   0.77227   0.00000  Uiso   1.00
H585   H     0.11663   0.11590   0.75102   0.00000  Uiso   1.00
H586   H     0.38900   0.36998   0.89524   0.00000  Uiso   1.00
H587   H     0.47128   0.17887   0.85866   0.00000  Uiso   1.00
H588   H     0.46790   0.32386   0.80626   0.00000  Uiso   1.00
H589   H     0.02858   0.18022   0.80354   0.00000  Uiso   1.00
H590   H     0.11293   0.32185   0.86376   0.00000  Uiso   1.00
H591   H     0.39111   0.17788   0.85614   0.00000  Uiso   1.00
H592   H     0.38729   0.32300   0.80569   0.00000  Uiso   1.00
H593   H     0.10877   0.17925   0.80617   0.00000  Uiso   1.00
H594   H     0.30407   0.03538   0.88758   0.00000  Uiso   1.00
N595   N     0.25000   0.12934   0.83333   0.00000  Uiso   1.00
N596   N     0.25000   0.37065   0.83333   0.00000  Uiso   1.00
O597   O     0.18573   0.29071   0.83334   0.00000  Uiso   1.00
O598   O     0.36084   0.10229   0.89047   0.00000  Uiso   1.00
O599   O     0.18340   0.34707   0.74905   0.00000  Uiso   1.00
O600   O     0.13422   0.38564   0.79446   0.00000  Uiso   1.00
O601   O     0.18524   0.15756   0.74788   0.00000  Uiso   1.00
O602   O     0.13925   0.10188   0.77594   0.00000  Uiso   1.00
O603   O     0.31659   0.34681   0.91734   0.00000  Uiso   1.00
O604   O     0.36578   0.38659   0.87299   0.00000  Uiso   1.00
O605   O     0.31427   0.20928   0.83333   0.00000  Uiso   1.00
O606   O     0.31427   0.29071   0.83333   0.00000  Uiso   1.00
O607   O     0.18573   0.20928   0.83334   0.00000  Uiso   1.00
O608   O     0.25000   0.29071   0.76280   0.00000  Uiso   1.00
O609   O     0.25000   0.20929   0.90387   0.00000  Uiso   1.00
O610   O     0.25000   0.29071   0.90387   0.00000  Uiso   1.00
O611   O     0.25000   0.20929   0.76280   0.00000  Uiso   1.00
O612   O     0.31475   0.15766   0.91883   0.00000  Uiso   1.00
C613   C     0.66511   0.25008   0.83373   0.00000  Uiso   1.00
C614   C     0.78608   0.44620   0.85320   0.00000  Uiso   1.00
C615   C     0.74993   0.25000   0.74034   0.00000  Uiso   1.00
C616   C     0.75007   0.25001   0.92633   0.00000  Uiso   1.00
C617   C     0.75001   0.02687   0.83335   0.00000  Uiso   1.00
C618   C     0.74999   0.47263   0.83333   0.00000  Uiso   1.00
C619   C     0.74997   0.25001   0.68855   0.00000  Uiso   1.00
C620   C     0.75002   0.25001   0.97812   0.00000  Uiso   1.00
C621   C     0.54869   0.29144   0.84976   0.00000  Uiso   1.00
C622   C     0.95335   0.21046   0.84661   0.00000  Uiso   1.00
C623   C     0.95142   0.29207   0.81810   0.00000  Uiso   1.00
C624   C     0.83489   0.25009   0.83284   0.00000  Uiso   1.00
C625   C     0.54658   0.21121   0.81727   0.00000  Uiso   1.00
C626   C     0.59469   0.29093   0.85027   0.00000  Uiso   1.00
C627   C     0.90749   0.20991   0.84566   0.00000  Uiso   1.00
C628   C     0.90543   0.29155   0.81773   0.00000  Uiso   1.00
C629   C     0.59244   0.21063   0.81838   0.00000  Uiso   1.00
C630   C     0.61683   0.25051   0.83430   0.00000  Uiso   1.00
C631   C     0.88319   0.25051   0.83196   0.00000  Uiso   1.00
C632   C     0.52429   0.25156   0.83309   0.00000  Uiso   1.00
C633   C     0.97573   0.25152   0.83277   0.00000  Uiso   1.00
C634   C     0.81955   0.12458   0.89084   0.00000  Uiso   1.00
C635   C     0.78161   0.10351   0.86136   0.00000  Uiso   1.00
C636   C     0.67731   0.37350   0.78356   0.00000  Uiso   1.00
C637   C     0.68047   0.12440   0.77577   0.00000  Uiso   1.00
C638   C     0.82270   0.37369   0.88321   0.00000  Uiso   1.00
C639   C     0.71505   0.39609   0.81130   0.00000  Uiso   1.00
C640   C     0.71840   0.10344   0.80531   0.00000  Uiso   1.00
C641   C     0.78495   0.39616   0.85537   0.00000  Uiso   1.00
C642   C     0.78056   0.05333   0.86261   0.00000  Uiso   1.00
C643   C     0.71390   0.44614   0.81346   0.00000  Uiso   1.00
C644   C     0.71946   0.05327   0.80407   0.00000  Uiso   1.00
Cu645  Cu    0.75000   0.29821   0.83333   0.00000  Uiso   1.00
Cu646  Cu    0.75000   0.20178   0.83333   0.00000  Uiso   1.00
H647   H     0.53228   0.32268   0.86303   0.00000  Uiso   1.00
H648   H     0.68449   0.46377   0.79833   0.00000  Uiso   1.00
H649   H     0.69599   0.03525   0.77910   0.00000  Uiso   1.00
H650   H     0.81547   0.46390   0.86834   0.00000  Uiso   1.00
H651   H     0.88357   0.11667   0.91505   0.00000  Uiso   1.00
H652   H     0.61099   0.36894   0.77227   0.00000  Uiso   1.00
H653   H     0.61663   0.11590   0.75102   0.00000  Uiso   1.00
H654   H     0.88900   0.36998   0.89524   0.00000  Uiso   1.00
H655   H     0.97128   0.17887   0.85866   0.00000  Uiso   1.00
H656   H     0.96790   0.32386   0.80626   0.00000  Uiso   1.00
H657   H     0.52858   0.18022   0.80354   0.00000  Uiso   1.00
H658   H     0.61293   0.32185   0.86376   0.00000  Uiso   1.00
H659   H     0.89111   0.17788   0.85614   0.00000  Uiso   1.00
H660   H     0.88729   0.32300   0.80569   0.00000  Uiso   1.00
H661   H     0.60877   0.17925   0.80617   0.00000  Uiso   1.00
H662   H     0.80407   0.03538   0.88758   0.00000  Uiso   1.00
N663   N     0.75000   0.12934   0.83333   0.00000  Uiso   1.00
N664   N     0.75000   0.37065   0.83333   0.00000  Uiso   1.00
O665   O     0.68573   0.29071   0.83334   0.00000  Uiso   1.00
O666   O     0.86084   0.10229   0.89047   0.00000  Uiso   1.00
O667   O     0.68340   0.34707   0.74905   0.00000  Uiso   1.00
O668   O     0.63422   0.38564   0.79446   0.00000  Uiso   1.00
O669   O     0.68524   0.15756   0.74788   0.00000  Uiso   1.00
O670   O     0.63925   0.10188   0.77594   0.00000  Uiso   1.00
O671   O     0.81659   0.34681   0.91734   0.00000  Uiso   1.00
O672   O     0.86578   0.38659   0.87299   0.00000  Uiso   1.00
O673   O     0.81427   0.20928   0.83333   0.00000  Uiso   1.00
O674   O     0.81427   0.29071   0.83333   0.00000  Uiso   1.00
O675   O     0.68573   0.20928   0.83334   0.00000  Uiso   1.00
O676   O     0.75000   0.29071   0.76280   0.00000  Uiso   1.00
O677   O     0.75000   0.20929   0.90387   0.00000  Uiso   1.00
O678   O     0.75000   0.29071   0.90387   0.00000  Uiso   1.00
O679   O     0.75000   0.20929   0.76280   0.00000  Uiso   1.00
O680   O     0.81475   0.15766   0.91883   0.00000  Uiso   1.00
C681   C     0.16511   0.75008   0.83373   0.00000  Uiso   1.00
C682   C     0.28608   0.94620   0.85320   0.00000  Uiso   1.00
C683   C     0.24993   0.75000   0.74034   0.00000  Uiso   1.00
C684   C     0.25007   0.75001   0.92633   0.00000  Uiso   1.00
C685   C     0.25001   0.52687   0.83335   0.00000  Uiso   1.00
C686   C     0.24999   0.97263   0.83333   0.00000  Uiso   1.00
C687   C     0.24997   0.75001   0.68855   0.00000  Uiso   1.00
C688   C     0.25002   0.75001   0.97812   0.00000  Uiso   1.00
C689   C     0.04869   0.79144   0.84976   0.00000  Uiso   1.00
C690   C     0.45335   0.71046   0.84661   0.00000  Uiso   1.00
C691   C     0.45142   0.79207   0.81810   0.00000  Uiso   1.00
C692   C     0.33489   0.75009   0.83284   0.00000  Uiso   1.00
C693   C     0.04658   0.71121   0.81727   0.00000  Uiso   1.00
C694   C     0.09469   0.79093   0.85027   0.00000  Uiso   1.00
C695   C     0.40749   0.70991   0.84566   0.00000  Uiso   1.00
C696   C     0.40543   0.79155   0.81773   0.00000  Uiso   1.00
C697   C     0.09244   0.71063   0.81838   0.00000  Uiso   1.00
C698   C     0.11683   0.75051   0.83430   0.00000  Uiso   1.00
C699   C     0.38319   0.75051   0.83196   0.00000  Uiso   1.00
C700   C     0.02429   0.75156   0.83309   0.00000  Uiso   1.00
C701   C     0.47573   0.75152   0.83277   0.00000  Uiso   1.00
C702   C     0.31955   0.62458   0.89084   0.00000  Uiso   1.00
C703   C     0.28161   0.60351   0.86136   0.00000  Uiso   1.00
C704   C     0.17731   0.87350   0.78356   0.00000  Uiso   1.00
C705   C     0.18047   0.62440   0.77577   0.00000  Uiso   1.00
C706   C     0.32270   0.87369   0.88321   0.00000  Uiso   1.00
C707   C     0.21505   0.89609   0.81130   0.00000  Uiso   1.00
C708   C     0.21840   0.60344   0.80531   0.00000  Uiso   1.00
C709   C     0.28495   0.89616   0.85537   0.00000  Uiso   1.00
C710   C     0.28056   0.55333   0.86261   0.00000  Uiso   1.00
C711   C     0.21390   0.94614   0.81346   0.00000  Uiso   1.00
C712   C     0.21946   0.55327   0.80407   0.00000  Uiso   1.00
Cu713  Cu    0.25000   0.79821   0.83333   0.00000  Uiso   1.00
Cu714  Cu    0.25000   0.70178   0.83333   0.00000  Uiso   1.00
H715   H     0.03228   0.82268   0.86303   0.00000  Uiso   1.00
H716   H     0.18449   0.96377   0.79833   0.00000  Uiso   1.00
H717   H     0.19599   0.53525   0.77910   0.00000  Uiso   1.00
H718   H     0.31547   0.96390   0.86834   0.00000  Uiso   1.00
H719   H     0.38357   0.61667   0.91505   0.00000  Uiso   1.00
H720   H     0.11099   0.86894   0.77227   0.00000  Uiso   1.00
H721   H     0.11663   0.61590   0.75102   0.00000  Uiso   1.00
H722   H     0.38900   0.86998   0.89524   0.00000  Uiso   1.00
H723   H     0.47128   0.67887   0.85866   0.00000  Uiso   1.00
H724   H     0.46790   0.82386   0.80626   0.00000  Uiso   1.00
H725   H     0.02858   0.68022   0.80354   0.00000  Uiso   1.00
H726   H     0.11293   0.82185   0.86376   0.00000  Uiso   1.00
H727   H     0.39111   0.67788   0.85614   0.00000  Uiso   1.00
H728   H     0.38729   0.82300   0.80569   0.00000  Uiso   1.00
H729   H     0.10877   0.67925   0.80617   0.00000  Uiso   1.00
H730   H     0.30407   0.53538   0.88758   0.00000  Uiso   1.00
N731   N     0.25000   0.62934   0.83333   0.00000  Uiso   1.00
N732   N     0.25000   0.87065   0.83333   0.00000  Uiso   1.00
O733   O     0.18573   0.79071   0.83334   0.00000  Uiso   1.00
O734   O     0.36084   0.60229   0.89047   0.00000  Uiso   1.00
O735   O     0.18340   0.84707   0.74905   0.00000  Uiso   1.00
O736   O     0.13422   0.88564   0.79446   0.00000  Uiso   1.00
O737   O     0.18524   0.65756   0.74788   0.00000  Uiso   1.00
O738   O     0.13925   0.60188   0.77594   0.00000  Uiso   1.00
O739   O     0.31659   0.84681   0.91734   0.00000  Uiso   1.00
O740   O     0.36578   0.88659   0.87299   0.00000  Uiso   1.00
O741   O     0.31427   0.70928   0.83333   0.00000  Uiso   1.00
O742   O     0.31427   0.79071   0.83333   0.00000  Uiso   1.00
O743   O     0.18573   0.70928   0.83334   0.00000  Uiso   1.00
O744   O     0.25000   0.79071   0.76280   0.00000  Uiso   1.00
O745   O     0.25000   0.70929   0.90387   0.00000  Uiso   1.00
O746   O     0.25000   0.79071   0.90387   0.00000  Uiso   1.00
O747   O     0.25000   0.70929   0.76280   0.00000  Uiso   1.00
O748   O     0.31475   0.65766   0.91883   0.00000  Uiso   1.00
C749   C     0.66511   0.75008   0.83373   0.00000  Uiso   1.00
C750   C     0.78608   0.94620   0.85320   0.00000  Uiso   1.00
C751   C     0.74993   0.75000   0.74034   0.00000  Uiso   1.00
C752   C     0.75007   0.75001   0.92633   0.00000  Uiso   1.00
C753   C     0.75001   0.52687   0.83335   0.00000  Uiso   1.00
C754   C     0.74999   0.97263   0.83333   0.00000  Uiso   1.00
C755   C     0.74997   0.75001   0.68855   0.00000  Uiso   1.00
C756   C     0.75002   0.75001   0.97812   0.00000  Uiso   1.00
C757   C     0.54869   0.79144   0.84976   0.00000  Uiso   1.00
C758   C     0.95335   0.71046   0.84661   0.00000  Uiso   1.00
C759   C     0.95142   0.79207   0.81810   0.00000  Uiso   1.00
C760   C     0.83489   0.75009   0.83284   0.00000  Uiso   1.00
C761   C     0.54658   0.71121   0.81727   0.00000  Uiso   1.00
C762   C     0.59469   0.79093   0.85027   0.00000  Uiso   1.00
C763   C     0.90749   0.70991   0.84566   0.00000  Uiso   1.00
C764   C     0.90543   0.79155   0.81773   0.00000  Uiso   1.00
C765   C     0.59244   0.71063   0.81838   0.00000  Uiso   1.00
C766   C     0.61683   0.75051   0.83430   0.00000  Uiso   1.00
C767   C     0.88319   0.75051   0.83196   0.00000  Uiso   1.00
C768   C     0.52429   0.75156   0.83309   0.00000  Uiso   1.00
C769   C     0.97573   0.75152   0.83277   0.00000  Uiso   1.00
C770   C     0.81955   0.62458   0.89084   0.00000  Uiso   1.00
C771   C     0.78161   0.60351   0.86136   0.00000  Uiso   1.00
C772   C     0.67731   0.87350   0.78356   0.00000  Uiso   1.00
C773   C     0.68047   0.62440   0.77577   0.00000  Uiso   1.00
C774   C     0.82270   0.87369   0.88321   0.00000  Uiso   1.00
C775   C     0.71505   0.89609   0.81130   0.00000  Uiso   1.00
C776   C     0.71840   0.60344   0.80531   0.00000  Uiso   1.00
C777   C     0.78495   0.89616   0.85537   0.00000  Uiso   1.00
C778   C     0.78056   0.55333   0.86261   0.00000  Uiso   1.00
C779   C     0.71390   0.94614   0.81346   0.00000  Uiso   1.00
C780   C     0.71946   0.55327   0.80407   0.00000  Uiso   1.00
Cu781  Cu    0.75000   0.79821   0.83333   0.00000  Uiso   1.00
Cu782  Cu    0.75000   0.70178   0.83333   0.00000  Uiso   1.00
H783   H     0.53228   0.82268   0.86303   0.00000  Uiso   1.00
H784   H     0.68449   0.96377   0.79833   0.00000  Uiso   1.00
H785   H     0.69599   0.53525   0.77910   0.00000  Uiso   1.00
H786   H     0.81547   0.96390   0.86834   0.00000  Uiso   1.00
H787   H     0.88357   0.61667   0.91505   0.00000  Uiso   1.00
H788   H     0.61099   0.86894   0.77227   0.00000  Uiso   1.00
H789   H     0.61663   0.61590   0.75102   0.00000  Uiso   1.00
H790   H     0.88900   0.86998   0.89524   0.00000  Uiso   1.00
H791   H     0.97128   0.67887   0.85866   0.00000  Uiso   1.00
H792   H     0.96790   0.82386   0.80626   0.00000  Uiso   1.00
H793   H     0.52858   0.68022   0.80354   0.00000  Uiso   1.00
H794   H     0.61293   0.82185   0.86376   0.00000  Uiso   1.00
H795   H     0.89111   0.67788   0.85614   0.00000  Uiso   1.00
H796   H     0.88729   0.82300   0.80569   0.00000  Uiso   1.00
H797   H     0.60877   0.67925   0.80617   0.00000  Uiso   1.00
H798   H     0.80407   0.53538   0.88758   0.00000  Uiso   1.00
N799   N     0.75000   0.62934   0.83333   0.00000  Uiso   1.00
N800   N     0.75000   0.87065   0.83333   0.00000  Uiso   1.00
O801   O     0.68573   0.79071   0.83334   0.00000  Uiso   1.00
O802   O     0.86084   0.60229   0.89047   0.00000  Uiso   1.00
O803   O     0.68340   0.84707   0.74905   0.00000  Uiso   1.00
O804   O     0.63422   0.88564   0.79446   0.00000  Uiso   1.00
O805   O     0.68524   0.65756   0.74788   0.00000  Uiso   1.00
O806   O     0.63925   0.60188   0.77594   0.00000  Uiso   1.00
O807   O     0.81659   0.84681   0.91734   0.00000  Uiso   1.00
O808   O     0.86578   0.88659   0.87299   0.00000  Uiso   1.00
O809   O     0.81427   0.70928   0.83333   0.00000  Uiso   1.00
O810   O     0.81427   0.79071   0.83333   0.00000  Uiso   1.00
O811   O     0.68573   0.70928   0.83334   0.00000  Uiso   1.00
O812   O     0.75000   0.79071   0.76280   0.00000  Uiso   1.00
O813   O     0.75000   0.70929   0.90387   0.00000  Uiso   1.00
O814   O     0.75000   0.79071   0.90387   0.00000  Uiso   1.00
O815   O     0.75000   0.70929   0.76280   0.00000  Uiso   1.00
O816   O     0.81475   0.65766   0.91883   0.00000  Uiso   1.00
loop_
_geom_bond_atom_site_label_1
_geom_bond_atom_site_label_2
_geom_bond_distance
_geom_bond_site_symmetry_2
_ccdc_geom_bond_type
C1     C18     1.463   .     S
C1     O63     1.308   .     A
C1     O53     1.303   .     A
C2     H38     1.079   .     S
C2     C6      1.404   .     A
C2     C29     1.411   .     A
C3     O64     1.298   .     A
C3     C7      1.408   .     S
C3     O67     1.299   .     A
C4     C8      1.408   .     S
C4     O65     1.299   .     A
C4     O66     1.298   .     A
C5     C32     1.398   .     A
C5     C30     1.398   .     A
C5     C142    1.527   1_545 S
C6     C31     1.404   .     A
C6     C141    1.527   .     S
C7     C552    1.190   1_554 S
C8     C279    1.190   .     S
C9     C14     1.393   .     A
C9     C20     1.404   .     A
C9     H35     1.083   .     S
C10    C15     1.388   .     A
C10    C21     1.403   .     A
C10    H43     1.083   .     S
C11    H44     1.083   .     S
C11    C16     1.392   .     A
C11    C21     1.404   .     A
C12    O62     1.304   .     A
C12    O61     1.308   .     A
C12    C19     1.464   .     S
C13    H45     1.083   .     S
C13    C17     1.388   .     A
C13    C20     1.403   .     A
C14    H46     1.083   .     S
C14    C18     1.403   .     A
C15    H47     1.076   .     S
C15    C19     1.398   .     A
C16    H48     1.082   .     S
C16    C19     1.403   .     A
C17    C18     1.398   .     A
C17    H49     1.075   .     S
C20    C89     1.470   1_455 S
C21    C88     1.470   .     S
C22    O54     1.400   .     S
C22    O68     1.217   .     D
C22    C23     1.484   .     S
C23    N51     1.393   .     A
C23    C30     1.414   .     A
C24    O56     1.398   .     S
C24    C27     1.475   .     S
C24    O55     1.220   .     D
C25    O57     1.217   .     D
C25    O58     1.400   .     S
C25    C28     1.484   .     S
C26    O59     1.220   .     D
C26    C29     1.475   .     S
C26    O60     1.398   .     S
C27    C31     1.411   .     A
C27    N52     1.384   .     A
C28    N51     1.393   .     A
C28    C32     1.413   .     A
C29    N52     1.385   .     A
C30    H50     1.079   .     S
C31    H36     1.079   .     S
C32    H37     1.079   .     S
Cu33   O66     1.929   .     S
Cu33   N52     2.039   .     S
Cu33   O64     1.929   .     S
Cu33   Cu34    2.715   .     S
Cu33   O53     1.958   .     S
Cu33   O62     1.958   .     S
Cu34   O67     1.929   .     S
Cu34   N51     2.039   .     S
Cu34   O63     1.958   .     S
Cu34   O61     1.958   .     S
Cu34   O65     1.929   .     S
H39    O54     1.014   .     S
H40    O56     1.014   .     S
H41    O58     1.014   .     S
H42    O60     1.014   .     S
C69    C86     1.463   .     S
C69    O131    1.308   .     A
C69    O121    1.303   .     A
C70    H106    1.079   .     S
C70    C74     1.404   .     A
C70    C97     1.411   .     A
C71    O132    1.298   .     A
C71    C75     1.408   .     S
C71    O135    1.299   .     A
C72    C76     1.408   .     S
C72    O133    1.299   .     A
C72    O134    1.298   .     A
C73    C100    1.398   .     A
C73    C98     1.398   .     A
C73    C210    1.527   1_545 S
C74    C99     1.404   .     A
C74    C209    1.527   .     S
C75    C620    1.190   1_554 S
C76    C347    1.190   .     S
C77    C82     1.393   .     A
C77    C88     1.404   .     A
C77    H103    1.083   .     S
C78    C83     1.388   .     A
C78    C89     1.403   .     A
C78    H111    1.083   .     S
C79    H112    1.083   .     S
C79    C84     1.392   .     A
C79    C89     1.404   .     A
C80    O130    1.304   .     A
C80    O129    1.308   .     A
C80    C87     1.464   .     S
C81    H113    1.083   .     S
C81    C85     1.388   .     A
C81    C88     1.403   .     A
C82    H114    1.083   .     S
C82    C86     1.403   .     A
C83    H115    1.076   .     S
C83    C87     1.398   .     A
C84    H116    1.082   .     S
C84    C87     1.403   .     A
C85    C86     1.398   .     A
C85    H117    1.075   .     S
C89    C20     1.470   1_655 S
C90    O122    1.400   .     S
C90    O136    1.217   .     D
C90    C91     1.484   .     S
C91    N119    1.393   .     A
C91    C98     1.414   .     A
C92    O124    1.398   .     S
C92    C95     1.475   .     S
C92    O123    1.220   .     D
C93    O125    1.217   .     D
C93    O126    1.400   .     S
C93    C96     1.484   .     S
C94    O127    1.220   .     D
C94    C97     1.475   .     S
C94    O128    1.398   .     S
C95    C99     1.411   .     A
C95    N120    1.384   .     A
C96    N119    1.393   .     A
C96    C100    1.413   .     A
C97    N120    1.385   .     A
C98    H118    1.079   .     S
C99    H104    1.079   .     S
C100   H105    1.079   .     S
Cu101  O134    1.929   .     S
Cu101  N120    2.039   .     S
Cu101  O132    1.929   .     S
Cu101  Cu102   2.715   .     S
Cu101  O121    1.958   .     S
Cu101  O130    1.958   .     S
Cu102  O135    1.929   .     S
Cu102  N119    2.039   .     S
Cu102  O131    1.958   .     S
Cu102  O129    1.958   .     S
Cu102  O133    1.929   .     S
H107   O122    1.014   .     S
H108   O124    1.014   .     S
H109   O126    1.014   .     S
H110   O128    1.014   .     S
C137   C154    1.463   .     S
C137   O199    1.308   .     A
C137   O189    1.303   .     A
C138   H174    1.079   .     S
C138   C142    1.404   .     A
C138   C165    1.411   .     A
C139   O200    1.298   .     A
C139   C143    1.408   .     S
C139   O203    1.299   .     A
C140   C144    1.408   .     S
C140   O201    1.299   .     A
C140   O202    1.298   .     A
C141   C168    1.398   .     A
C141   C166    1.398   .     A
C142   C167    1.404   .     A
C142   C5      1.527   1_565 S
C143   C688    1.190   1_554 S
C144   C415    1.190   .     S
C145   C150    1.393   .     A
C145   C156    1.404   .     A
C145   H171    1.083   .     S
C146   C151    1.388   .     A
C146   C157    1.403   .     A
C146   H179    1.083   .     S
C147   H180    1.083   .     S
C147   C152    1.392   .     A
C147   C157    1.404   .     A
C148   O198    1.304   .     A
C148   O197    1.308   .     A
C148   C155    1.464   .     S
C149   H181    1.083   .     S
C149   C153    1.388   .     A
C149   C156    1.403   .     A
C150   H182    1.083   .     S
C150   C154    1.403   .     A
C151   H183    1.076   .     S
C151   C155    1.398   .     A
C152   H184    1.082   .     S
C152   C155    1.403   .     A
C153   C154    1.398   .     A
C153   H185    1.075   .     S
C156   C225    1.470   1_455 S
C157   C224    1.470   .     S
C158   O190    1.400   .     S
C158   O204    1.217   .     D
C158   C159    1.484   .     S
C159   N187    1.393   .     A
C159   C166    1.414   .     A
C160   O192    1.398   .     S
C160   C163    1.475   .     S
C160   O191    1.220   .     D
C161   O193    1.217   .     D
C161   O194    1.400   .     S
C161   C164    1.484   .     S
C162   O195    1.220   .     D
C162   C165    1.475   .     S
C162   O196    1.398   .     S
C163   C167    1.411   .     A
C163   N188    1.384   .     A
C164   N187    1.393   .     A
C164   C168    1.413   .     A
C165   N188    1.385   .     A
C166   H186    1.079   .     S
C167   H172    1.079   .     S
C168   H173    1.079   .     S
Cu169  O202    1.929   .     S
Cu169  N188    2.039   .     S
Cu169  O200    1.929   .     S
Cu169  Cu170   2.715   .     S
Cu169  O189    1.958   .     S
Cu169  O198    1.958   .     S
Cu170  O203    1.929   .     S
Cu170  N187    2.039   .     S
Cu170  O199    1.958   .     S
Cu170  O197    1.958   .     S
Cu170  O201    1.929   .     S
H175   O190    1.014   .     S
H176   O192    1.014   .     S
H177   O194    1.014   .     S
H178   O196    1.014   .     S
C205   C222    1.463   .     S
C205   O267    1.308   .     A
C205   O257    1.303   .     A
C206   H242    1.079   .     S
C206   C210    1.404   .     A
C206   C233    1.411   .     A
C207   O268    1.298   .     A
C207   C211    1.408   .     S
C207   O271    1.299   .     A
C208   C212    1.408   .     S
C208   O269    1.299   .     A
C208   O270    1.298   .     A
C209   C236    1.398   .     A
C209   C234    1.398   .     A
C210   C235    1.404   .     A
C210   C73     1.527   1_565 S
C211   C756    1.190   1_554 S
C212   C483    1.190   .     S
C213   C218    1.393   .     A
C213   C224    1.404   .     A
C213   H239    1.083   .     S
C214   C219    1.388   .     A
C214   C225    1.403   .     A
C214   H247    1.083   .     S
C215   H248    1.083   .     S
C215   C220    1.392   .     A
C215   C225    1.404   .     A
C216   O266    1.304   .     A
C216   O265    1.308   .     A
C216   C223    1.464   .     S
C217   H249    1.083   .     S
C217   C221    1.388   .     A
C217   C224    1.403   .     A
C218   H250    1.083   .     S
C218   C222    1.403   .     A
C219   H251    1.076   .     S
C219   C223    1.398   .     A
C220   H252    1.082   .     S
C220   C223    1.403   .     A
C221   C222    1.398   .     A
C221   H253    1.075   .     S
C225   C156    1.470   1_655 S
C226   O258    1.400   .     S
C226   O272    1.217   .     D
C226   C227    1.484   .     S
C227   N255    1.393   .     A
C227   C234    1.414   .     A
C228   O260    1.398   .     S
C228   C231    1.475   .     S
C228   O259    1.220   .     D
C229   O261    1.217   .     D
C229   O262    1.400   .     S
C229   C232    1.484   .     S
C230   O263    1.220   .     D
C230   C233    1.475   .     S
C230   O264    1.398   .     S
C231   C235    1.411   .     A
C231   N256    1.384   .     A
C232   N255    1.393   .     A
C232   C236    1.413   .     A
C233   N256    1.385   .     A
C234   H254    1.079   .     S
C235   H240    1.079   .     S
C236   H241    1.079   .     S
Cu237  O270    1.929   .     S
Cu237  N256    2.039   .     S
Cu237  O268    1.929   .     S
Cu237  Cu238   2.715   .     S
Cu237  O257    1.958   .     S
Cu237  O266    1.958   .     S
Cu238  O271    1.929   .     S
Cu238  N255    2.039   .     S
Cu238  O267    1.958   .     S
Cu238  O265    1.958   .     S
Cu238  O269    1.929   .     S
H243   O258    1.014   .     S
H244   O260    1.014   .     S
H245   O262    1.014   .     S
H246   O264    1.014   .     S
C273   C290    1.463   .     S
C273   O335    1.308   .     A
C273   O325    1.303   .     A
C274   H310    1.079   .     S
C274   C278    1.404   .     A
C274   C301    1.411   .     A
C275   O336    1.298   .     A
C275   C279    1.408   .     S
C275   O339    1.299   .     A
C276   C280    1.408   .     S
C276   O337    1.299   .     A
C276   O338    1.298   .     A
C277   C304    1.398   .     A
C277   C302    1.398   .     A
C277   C414    1.527   1_545 S
C278   C303    1.404   .     A
C278   C413    1.527   .     S
C280   C551    1.190   .     S
C281   C286    1.393   .     A
C281   C292    1.404   .     A
C281   H307    1.083   .     S
C282   C287    1.388   .     A
C282   C293    1.403   .     A
C282   H315    1.083   .     S
C283   H316    1.083   .     S
C283   C288    1.392   .     A
C283   C293    1.404   .     A
C284   O334    1.304   .     A
C284   O333    1.308   .     A
C284   C291    1.464   .     S
C285   H317    1.083   .     S
C285   C289    1.388   .     A
C285   C292    1.403   .     A
C286   H318    1.083   .     S
C286   C290    1.403   .     A
C287   H319    1.076   .     S
C287   C291    1.398   .     A
C288   H320    1.082   .     S
C288   C291    1.403   .     A
C289   C290    1.398   .     A
C289   H321    1.075   .     S
C292   C361    1.470   1_455 S
C293   C360    1.470   .     S
C294   O326    1.400   .     S
C294   O340    1.217   .     D
C294   C295    1.484   .     S
C295   N323    1.393   .     A
C295   C302    1.414   .     A
C296   O328    1.398   .     S
C296   C299    1.475   .     S
C296   O327    1.220   .     D
C297   O329    1.217   .     D
C297   O330    1.400   .     S
C297   C300    1.484   .     S
C298   O331    1.220   .     D
C298   C301    1.475   .     S
C298   O332    1.398   .     S
C299   C303    1.411   .     A
C299   N324    1.384   .     A
C300   N323    1.393   .     A
C300   C304    1.413   .     A
C301   N324    1.385   .     A
C302   H322    1.079   .     S
C303   H308    1.079   .     S
C304   H309    1.079   .     S
Cu305  O338    1.929   .     S
Cu305  N324    2.039   .     S
Cu305  O336    1.929   .     S
Cu305  Cu306   2.715   .     S
Cu305  O325    1.958   .     S
Cu305  O334    1.958   .     S
Cu306  O339    1.929   .     S
Cu306  N323    2.039   .     S
Cu306  O335    1.958   .     S
Cu306  O333    1.958   .     S
Cu306  O337    1.929   .     S
H311   O326    1.014   .     S
H312   O328    1.014   .     S
H313   O330    1.014   .     S
H314   O332    1.014   .     S
C341   C358    1.463   .     S
C341   O403    1.308   .     A
C341   O393    1.303   .     A
C342   H378    1.079   .     S
C342   C346    1.404   .     A
C342   C369    1.411   .     A
C343   O404    1.298   .     A
C343   C347    1.408   .     S
C343   O407    1.299   .     A
C344   C348    1.408   .     S
C344   O405    1.299   .     A
C344   O406    1.298   .     A
C345   C372    1.398   .     A
C345   C370    1.398   .     A
C345   C482    1.527   1_545 S
C346   C371    1.404   .     A
C346   C481    1.527   .     S
C348   C619    1.190   .     S
C349   C354    1.393   .     A
C349   C360    1.404   .     A
C349   H375    1.083   .     S
C350   C355    1.388   .     A
C350   C361    1.403   .     A
C350   H383    1.083   .     S
C351   H384    1.083   .     S
C351   C356    1.392   .     A
C351   C361    1.404   .     A
C352   O402    1.304   .     A
C352   O401    1.308   .     A
C352   C359    1.464   .     S
C353   H385    1.083   .     S
C353   C357    1.388   .     A
C353   C360    1.403   .     A
C354   H386    1.083   .     S
C354   C358    1.403   .     A
C355   H387    1.076   .     S
C355   C359    1.398   .     A
C356   H388    1.082   .     S
C356   C359    1.403   .     A
C357   C358    1.398   .     A
C357   H389    1.075   .     S
C361   C292    1.470   1_655 S
C362   O394    1.400   .     S
C362   O408    1.217   .     D
C362   C363    1.484   .     S
C363   N391    1.393   .     A
C363   C370    1.414   .     A
C364   O396    1.398   .     S
C364   C367    1.475   .     S
C364   O395    1.220   .     D
C365   O397    1.217   .     D
C365   O398    1.400   .     S
C365   C368    1.484   .     S
C366   O399    1.220   .     D
C366   C369    1.475   .     S
C366   O400    1.398   .     S
C367   C371    1.411   .     A
C367   N392    1.384   .     A
C368   N391    1.393   .     A
C368   C372    1.413   .     A
C369   N392    1.385   .     A
C370   H390    1.079   .     S
C371   H376    1.079   .     S
C372   H377    1.079   .     S
Cu373  O406    1.929   .     S
Cu373  N392    2.039   .     S
Cu373  O404    1.929   .     S
Cu373  Cu374   2.715   .     S
Cu373  O393    1.958   .     S
Cu373  O402    1.958   .     S
Cu374  O407    1.929   .     S
Cu374  N391    2.039   .     S
Cu374  O403    1.958   .     S
Cu374  O401    1.958   .     S
Cu374  O405    1.929   .     S
H379   O394    1.014   .     S
H380   O396    1.014   .     S
H381   O398    1.014   .     S
H382   O400    1.014   .     S
C409   C426    1.463   .     S
C409   O471    1.308   .     A
C409   O461    1.303   .     A
C410   H446    1.079   .     S
C410   C414    1.404   .     A
C410   C437    1.411   .     A
C411   O472    1.298   .     A
C411   C415    1.408   .     S
C411   O475    1.299   .     A
C412   C416    1.408   .     S
C412   O473    1.299   .     A
C412   O474    1.298   .     A
C413   C440    1.398   .     A
C413   C438    1.398   .     A
C414   C439    1.404   .     A
C414   C277    1.527   1_565 S
C416   C687    1.190   .     S
C417   C422    1.393   .     A
C417   C428    1.404   .     A
C417   H443    1.083   .     S
C418   C423    1.388   .     A
C418   C429    1.403   .     A
C418   H451    1.083   .     S
C419   H452    1.083   .     S
C419   C424    1.392   .     A
C419   C429    1.404   .     A
C420   O470    1.304   .     A
C420   O469    1.308   .     A
C420   C427    1.464   .     S
C421   H453    1.083   .     S
C421   C425    1.388   .     A
C421   C428    1.403   .     A
C422   H454    1.083   .     S
C422   C426    1.403   .     A
C423   H455    1.076   .     S
C423   C427    1.398   .     A
C424   H456    1.082   .     S
C424   C427    1.403   .     A
C425   C426    1.398   .     A
C425   H457    1.075   .     S
C428   C497    1.470   1_455 S
C429   C496    1.470   .     S
C430   O462    1.400   .     S
C430   O476    1.217   .     D
C430   C431    1.484   .     S
C431   N459    1.393   .     A
C431   C438    1.414   .     A
C432   O464    1.398   .     S
C432   C435    1.475   .     S
C432   O463    1.220   .     D
C433   O465    1.217   .     D
C433   O466    1.400   .     S
C433   C436    1.484   .     S
C434   O467    1.220   .     D
C434   C437    1.475   .     S
C434   O468    1.398   .     S
C435   C439    1.411   .     A
C435   N460    1.384   .     A
C436   N459    1.393   .     A
C436   C440    1.413   .     A
C437   N460    1.385   .     A
C438   H458    1.079   .     S
C439   H444    1.079   .     S
C440   H445    1.079   .     S
Cu441  O474    1.929   .     S
Cu441  N460    2.039   .     S
Cu441  O472    1.929   .     S
Cu441  Cu442   2.715   .     S
Cu441  O461    1.958   .     S
Cu441  O470    1.958   .     S
Cu442  O475    1.929   .     S
Cu442  N459    2.039   .     S
Cu442  O471    1.958   .     S
Cu442  O469    1.958   .     S
Cu442  O473    1.929   .     S
H447   O462    1.014   .     S
H448   O464    1.014   .     S
H449   O466    1.014   .     S
H450   O468    1.014   .     S
C477   C494    1.463   .     S
C477   O539    1.308   .     A
C477   O529    1.303   .     A
C478   H514    1.079   .     S
C478   C482    1.404   .     A
C478   C505    1.411   .     A
C479   O540    1.298   .     A
C479   C483    1.408   .     S
C479   O543    1.299   .     A
C480   C484    1.408   .     S
C480   O541    1.299   .     A
C480   O542    1.298   .     A
C481   C508    1.398   .     A
C481   C506    1.398   .     A
C482   C507    1.404   .     A
C482   C345    1.527   1_565 S
C484   C755    1.190   .     S
C485   C490    1.393   .     A
C485   C496    1.404   .     A
C485   H511    1.083   .     S
C486   C491    1.388   .     A
C486   C497    1.403   .     A
C486   H519    1.083   .     S
C487   H520    1.083   .     S
C487   C492    1.392   .     A
C487   C497    1.404   .     A
C488   O538    1.304   .     A
C488   O537    1.308   .     A
C488   C495    1.464   .     S
C489   H521    1.083   .     S
C489   C493    1.388   .     A
C489   C496    1.403   .     A
C490   H522    1.083   .     S
C490   C494    1.403   .     A
C491   H523    1.076   .     S
C491   C495    1.398   .     A
C492   H524    1.082   .     S
C492   C495    1.403   .     A
C493   C494    1.398   .     A
C493   H525    1.075   .     S
C497   C428    1.470   1_655 S
C498   O530    1.400   .     S
C498   O544    1.217   .     D
C498   C499    1.484   .     S
C499   N527    1.393   .     A
C499   C506    1.414   .     A
C500   O532    1.398   .     S
C500   C503    1.475   .     S
C500   O531    1.220   .     D
C501   O533    1.217   .     D
C501   O534    1.400   .     S
C501   C504    1.484   .     S
C502   O535    1.220   .     D
C502   C505    1.475   .     S
C502   O536    1.398   .     S
C503   C507    1.411   .     A
C503   N528    1.384   .     A
C504   N527    1.393   .     A
C504   C508    1.413   .     A
C505   N528    1.385   .     A
C506   H526    1.079   .     S
C507   H512    1.079   .     S
C508   H513    1.079   .     S
Cu509  O542    1.929   .     S
Cu509  N528    2.039   .     S
Cu509  O540    1.929   .     S
Cu509  Cu510   2.715   .     S
Cu509  O529    1.958   .     S
Cu509  O538    1.958   .     S
Cu510  O543    1.929   .     S
Cu510  N527    2.039   .     S
Cu510  O539    1.958   .     S
Cu510  O537    1.958   .     S
Cu510  O541    1.929   .     S
H515   O530    1.014   .     S
H516   O532    1.014   .     S
H517   O534    1.014   .     S
H518   O536    1.014   .     S
C545   C562    1.463   .     S
C545   O607    1.308   .     A
C545   O597    1.303   .     A
C546   H582    1.079   .     S
C546   C550    1.404   .     A
C546   C573    1.411   .     A
C547   O608    1.298   .     A
C547   C551    1.408   .     S
C547   O611    1.299   .     A
C548   C552    1.408   .     S
C548   O609    1.299   .     A
C548   O610    1.298   .     A
C549   C576    1.398   .     A
C549   C574    1.398   .     A
C549   C686    1.527   1_545 S
C550   C575    1.404   .     A
C550   C685    1.527   .     S
C552   C7      1.190   1_556 S
C553   C558    1.393   .     A
C553   C564    1.404   .     A
C553   H579    1.083   .     S
C554   C559    1.388   .     A
C554   C565    1.403   .     A
C554   H587    1.083   .     S
C555   H588    1.083   .     S
C555   C560    1.392   .     A
C555   C565    1.404   .     A
C556   O606    1.304   .     A
C556   O605    1.308   .     A
C556   C563    1.464   .     S
C557   H589    1.083   .     S
C557   C561    1.388   .     A
C557   C564    1.403   .     A
C558   H590    1.083   .     S
C558   C562    1.403   .     A
C559   H591    1.076   .     S
C559   C563    1.398   .     A
C560   H592    1.082   .     S
C560   C563    1.403   .     A
C561   C562    1.398   .     A
C561   H593    1.075   .     S
C564   C633    1.470   1_455 S
C565   C632    1.470   .     S
C566   O598    1.400   .     S
C566   O612    1.217   .     D
C566   C567    1.484   .     S
C567   N595    1.393   .     A
C567   C574    1.414   .     A
C568   O600    1.398   .     S
C568   C571    1.475   .     S
C568   O599    1.220   .     D
C569   O601    1.217   .     D
C569   O602    1.400   .     S
C569   C572    1.484   .     S
C570   O603    1.220   .     D
C570   C573    1.475   .     S
C570   O604    1.398   .     S
C571   C575    1.411   .     A
C571   N596    1.384   .     A
C572   N595    1.393   .     A
C572   C576    1.413   .     A
C573   N596    1.385   .     A
C574   H594    1.079   .     S
C575   H580    1.079   .     S
C576   H581    1.079   .     S
Cu577  O610    1.929   .     S
Cu577  N596    2.039   .     S
Cu577  O608    1.929   .     S
Cu577  Cu578   2.715   .     S
Cu577  O597    1.958   .     S
Cu577  O606    1.958   .     S
Cu578  O611    1.929   .     S
Cu578  N595    2.039   .     S
Cu578  O607    1.958   .     S
Cu578  O605    1.958   .     S
Cu578  O609    1.929   .     S
H583   O598    1.014   .     S
H584   O600    1.014   .     S
H585   O602    1.014   .     S
H586   O604    1.014   .     S
C613   C630    1.463   .     S
C613   O675    1.308   .     A
C613   O665    1.303   .     A
C614   H650    1.079   .     S
C614   C618    1.404   .     A
C614   C641    1.411   .     A
C615   O676    1.298   .     A
C615   C619    1.408   .     S
C615   O679    1.299   .     A
C616   C620    1.408   .     S
C616   O677    1.299   .     A
C616   O678    1.298   .     A
C617   C644    1.398   .     A
C617   C642    1.398   .     A
C617   C754    1.527   1_545 S
C618   C643    1.404   .     A
C618   C753    1.527   .     S
C620   C75     1.190   1_556 S
C621   C626    1.393   .     A
C621   C632    1.404   .     A
C621   H647    1.083   .     S
C622   C627    1.388   .     A
C622   C633    1.403   .     A
C622   H655    1.083   .     S
C623   H656    1.083   .     S
C623   C628    1.392   .     A
C623   C633    1.404   .     A
C624   O674    1.304   .     A
C624   O673    1.308   .     A
C624   C631    1.464   .     S
C625   H657    1.083   .     S
C625   C629    1.388   .     A
C625   C632    1.403   .     A
C626   H658    1.083   .     S
C626   C630    1.403   .     A
C627   H659    1.076   .     S
C627   C631    1.398   .     A
C628   H660    1.082   .     S
C628   C631    1.403   .     A
C629   C630    1.398   .     A
C629   H661    1.075   .     S
C633   C564    1.470   1_655 S
C634   O666    1.400   .     S
C634   O680    1.217   .     D
C634   C635    1.484   .     S
C635   N663    1.393   .     A
C635   C642    1.414   .     A
C636   O668    1.398   .     S
C636   C639    1.475   .     S
C636   O667    1.220   .     D
C637   O669    1.217   .     D
C637   O670    1.400   .     S
C637   C640    1.484   .     S
C638   O671    1.220   .     D
C638   C641    1.475   .     S
C638   O672    1.398   .     S
C639   C643    1.411   .     A
C639   N664    1.384   .     A
C640   N663    1.393   .     A
C640   C644    1.413   .     A
C641   N664    1.385   .     A
C642   H662    1.079   .     S
C643   H648    1.079   .     S
C644   H649    1.079   .     S
Cu645  O678    1.929   .     S
Cu645  N664    2.039   .     S
Cu645  O676    1.929   .     S
Cu645  Cu646   2.715   .     S
Cu645  O665    1.958   .     S
Cu645  O674    1.958   .     S
Cu646  O679    1.929   .     S
Cu646  N663    2.039   .     S
Cu646  O675    1.958   .     S
Cu646  O673    1.958   .     S
Cu646  O677    1.929   .     S
H651   O666    1.014   .     S
H652   O668    1.014   .     S
H653   O670    1.014   .     S
H654   O672    1.014   .     S
C681   C698    1.463   .     S
C681   O743    1.308   .     A
C681   O733    1.303   .     A
C682   H718    1.079   .     S
C682   C686    1.404   .     A
C682   C709    1.411   .     A
C683   O744    1.298   .     A
C683   C687    1.408   .     S
C683   O747    1.299   .     A
C684   C688    1.408   .     S
C684   O745    1.299   .     A
C684   O746    1.298   .     A
C685   C712    1.398   .     A
C685   C710    1.398   .     A
C686   C711    1.404   .     A
C686   C549    1.527   1_565 S
C688   C143    1.190   1_556 S
C689   C694    1.393   .     A
C689   C700    1.404   .     A
C689   H715    1.083   .     S
C690   C695    1.388   .     A
C690   C701    1.403   .     A
C690   H723    1.083   .     S
C691   H724    1.083   .     S
C691   C696    1.392   .     A
C691   C701    1.404   .     A
C692   O742    1.304   .     A
C692   O741    1.308   .     A
C692   C699    1.464   .     S
C693   H725    1.083   .     S
C693   C697    1.388   .     A
C693   C700    1.403   .     A
C694   H726    1.083   .     S
C694   C698    1.403   .     A
C695   H727    1.076   .     S
C695   C699    1.398   .     A
C696   H728    1.082   .     S
C696   C699    1.403   .     A
C697   C698    1.398   .     A
C697   H729    1.075   .     S
C700   C769    1.470   1_455 S
C701   C768    1.470   .     S
C702   O734    1.400   .     S
C702   O748    1.217   .     D
C702   C703    1.484   .     S
C703   N731    1.393   .     A
C703   C710    1.414   .     A
C704   O736    1.398   .     S
C704   C707    1.475   .     S
C704   O735    1.220   .     D
C705   O737    1.217   .     D
C705   O738    1.400   .     S
C705   C708    1.484   .     S
C706   O739    1.220   .     D
C706   C709    1.475   .     S
C706   O740    1.398   .     S
C707   C711    1.411   .     A
C707   N732    1.384   .     A
C708   N731    1.393   .     A
C708   C712    1.413   .     A
C709   N732    1.385   .     A
C710   H730    1.079   .     S
C711   H716    1.079   .     S
C712   H717    1.079   .     S
Cu713  O746    1.929   .     S
Cu713  N732    2.039   .     S
Cu713  O744    1.929   .     S
Cu713  Cu714   2.715   .     S
Cu713  O733    1.958   .     S
Cu713  O742    1.958   .     S
Cu714  O747    1.929   .     S
Cu714  N731    2.039   .     S
Cu714  O743    1.958   .     S
Cu714  O741    1.958   .     S
Cu714  O745    1.929   .     S
H719   O734    1.014   .     S
H720   O736    1.014   .     S
H721   O738    1.014   .     S
H722   O740    1.014   .     S
C749   C766    1.463   .     S
C749   O811    1.308   .     A
C749   O801    1.303   .     A
C750   H786    1.079   .     S
C750   C754    1.404   .     A
C750   C777    1.411   .     A
C751   O812    1.298   .     A
C751   C755    1.408   .     S
C751   O815    1.299   .     A
C752   C756    1.408   .     S
C752   O813    1.299   .     A
C752   O814    1.298   .     A
C753   C780    1.398   .     A
C753   C778    1.398   .     A
C754   C779    1.404   .     A
C754   C617    1.527   1_565 S
C756   C211    1.190   1_556 S
C757   C762    1.393   .     A
C757   C768    1.404   .     A
C757   H783    1.083   .     S
C758   C763    1.388   .     A
C758   C769    1.403   .     A
C758   H791    1.083   .     S
C759   H792    1.083   .     S
C759   C764    1.392   .     A
C759   C769    1.404   .     A
C760   O810    1.304   .     A
C760   O809    1.308   .     A
C760   C767    1.464   .     S
C761   H793    1.083   .     S
C761   C765    1.388   .     A
C761   C768    1.403   .     A
C762   H794    1.083   .     S
C762   C766    1.403   .     A
C763   H795    1.076   .     S
C763   C767    1.398   .     A
C764   H796    1.082   .     S
C764   C767    1.403   .     A
C765   C766    1.398   .     A
C765   H797    1.075   .     S
C769   C700    1.470   1_655 S
C770   O802    1.400   .     S
C770   O816    1.217   .     D
C770   C771    1.484   .     S
C771   N799    1.393   .     A
C771   C778    1.414   .     A
C772   O804    1.398   .     S
C772   C775    1.475   .     S
C772   O803    1.220   .     D
C773   O805    1.217   .     D
C773   O806    1.400   .     S
C773   C776    1.484   .     S
C774   O807    1.220   .     D
C774   C777    1.475   .     S
C774   O808    1.398   .     S
C775   C779    1.411   .     A
C775   N800    1.384   .     A
C776   N799    1.393   .     A
C776   C780    1.413   .     A
C777   N800    1.385   .     A
C778   H798    1.079   .     S
C779   H784    1.079   .     S
C780   H785    1.079   .     S
Cu781  O814    1.929   .     S
Cu781  N800    2.039   .     S
Cu781  O812    1.929   .     S
Cu781  Cu782   2.715   .     S
Cu781  O801    1.958   .     S
Cu781  O810    1.958   .     S
Cu782  O815    1.929   .     S
Cu782  N799    2.039   .     S
Cu782  O811    1.958   .     S
Cu782  O809    1.958   .     S
Cu782  O813    1.929   .     S
H787   O802    1.014   .     S
H788   O804    1.014   .     S
H789   O806    1.014   .     S
H790   O808    1.014   .     S
