data_str_m2_o1_o1_pcu_sym.50
_audit_creation_date              2020-01-03
_audit_creation_method            'Materials Studio'
_symmetry_space_group_name_H-M    'P1'
_symmetry_Int_Tables_number       1
_symmetry_cell_setting            triclinic
loop_
_symmetry_equiv_pos_as_xyz
  x,y,z
_cell_length_a                    31.1859
_cell_length_b                    30.0849
_cell_length_c                    28.8919
_cell_angle_alpha                 90.0000
_cell_angle_beta                  90.0000
_cell_angle_gamma                 90.0035
loop_
_atom_site_label
_atom_site_type_symbol
_atom_site_fract_x
_atom_site_fract_y
_atom_site_fract_z
_atom_site_U_iso_or_equiv
_atom_site_adp_type
_atom_site_occupancy
C1     C     0.05957   0.19079   0.16667   0.00000  Uiso   1.00
C2     C     0.01123   0.28735   0.30866   0.00000  Uiso   1.00
C3     C     0.01123   0.28735   0.02467   0.00000  Uiso   1.00
C4     C     0.48877   0.21265   0.30866   0.00000  Uiso   1.00
C5     C     0.23877   0.46265   0.02467   0.00000  Uiso   1.00
C6     C     0.26123   0.03735   0.30866   0.00000  Uiso   1.00
C7     C     0.26123   0.03735   0.02467   0.00000  Uiso   1.00
C8     C     0.23877   0.46265   0.30866   0.00000  Uiso   1.00
C9     C     0.39088   0.14104   0.12465   0.00000  Uiso   1.00
C10    C     0.10912   0.35896   0.20868   0.00000  Uiso   1.00
C11    C     0.10912   0.35896   0.12465   0.00000  Uiso   1.00
C12    C     0.44043   0.30921   0.16667   0.00000  Uiso   1.00
C13    C     0.39088   0.14104   0.20868   0.00000  Uiso   1.00
C14    C     0.10932   0.14125   0.20866   0.00000  Uiso   1.00
C15    C     0.39068   0.35875   0.12467   0.00000  Uiso   1.00
C16    C     0.39068   0.35875   0.20866   0.00000  Uiso   1.00
C17    C     0.10932   0.14125   0.12467   0.00000  Uiso   1.00
C18    C     0.14088   0.39104   0.12465   0.00000  Uiso   1.00
C19    C     0.35912   0.10896   0.20868   0.00000  Uiso   1.00
C20    C     0.35912   0.10896   0.12465   0.00000  Uiso   1.00
C21    C     0.14088   0.39104   0.20868   0.00000  Uiso   1.00
C22    C     0.35932   0.39125   0.20866   0.00000  Uiso   1.00
C23    C     0.44060   0.19060   0.16667   0.00000  Uiso   1.00
C24    C     0.14068   0.10875   0.12467   0.00000  Uiso   1.00
C25    C     0.14068   0.10875   0.20866   0.00000  Uiso   1.00
C26    C     0.35932   0.39125   0.12467   0.00000  Uiso   1.00
C27    C     0.09297   0.34284   0.16667   0.00000  Uiso   1.00
C28    C     0.40703   0.15716   0.16667   0.00000  Uiso   1.00
C29    C     0.40677   0.34256   0.16667   0.00000  Uiso   1.00
C30    C     0.09323   0.15743   0.16667   0.00000  Uiso   1.00
C31    C     0.34297   0.09284   0.16667   0.00000  Uiso   1.00
C32    C     0.15703   0.40716   0.16667   0.00000  Uiso   1.00
C33    C     0.15677   0.09256   0.16667   0.00000  Uiso   1.00
C34    C     0.05940   0.30940   0.16667   0.00000  Uiso   1.00
C35    C     0.34323   0.40743   0.16667   0.00000  Uiso   1.00
C36    C     0.00565   0.14448   0.05571   0.00000  Uiso   1.00
C37    C     0.49435   0.35552   0.27763   0.00000  Uiso   1.00
C38    C     0.49436   0.35552   0.05571   0.00000  Uiso   1.00
C39    C     0.00564   0.14448   0.27763   0.00000  Uiso   1.00
C40    C     0.25565   0.39448   0.05571   0.00000  Uiso   1.00
C41    C     0.24435   0.10552   0.27763   0.00000  Uiso   1.00
C42    C     0.24436   0.10552   0.05571   0.00000  Uiso   1.00
C43    C     0.25564   0.39448   0.27763   0.00000  Uiso   1.00
C44    C     0.30957   0.44079   0.16667   0.00000  Uiso   1.00
C45    C     0.19043   0.05921   0.16667   0.00000  Uiso   1.00
C46    C     0.19060   0.44060   0.16667   0.00000  Uiso   1.00
C47    C     0.30940   0.05940   0.16667   0.00000  Uiso   1.00
C48    C     0.48877   0.21265   0.02467   0.00000  Uiso   1.00
Cu49   Cu    0.00000   0.25000   0.21355   0.00000  Uiso   1.00
Cu50   Cu    0.00000   0.25000   0.11978   0.00000  Uiso   1.00
Cu51   Cu    0.25000  -0.00000   0.21355   0.00000  Uiso   1.00
Cu52   Cu    0.25000  -0.00000   0.11978   0.00000  Uiso   1.00
H53    H     0.40261   0.15314   0.09175   0.00000  Uiso   1.00
H54    H     0.34739   0.09686   0.24158   0.00000  Uiso   1.00
H55    H     0.34739   0.09686   0.09175   0.00000  Uiso   1.00
H56    H     0.15261   0.40314   0.24158   0.00000  Uiso   1.00
H57    H     0.34788   0.40365   0.24153   0.00000  Uiso   1.00
H58    H     0.15212   0.09635   0.09180   0.00000  Uiso   1.00
H59    H     0.15212   0.09635   0.24153   0.00000  Uiso   1.00
H60    H     0.34788   0.40365   0.09180   0.00000  Uiso   1.00
H61    H     0.00788   0.13823   0.09343   0.00000  Uiso   1.00
H62    H     0.03795   0.15405   0.04250   0.00000  Uiso   1.00
H63    H     0.49644   0.11235   0.03985   0.00000  Uiso   1.00
H64    H     0.09739   0.34686   0.24158   0.00000  Uiso   1.00
H65    H     0.46205   0.34595   0.29083   0.00000  Uiso   1.00
H66    H     0.49212   0.36177   0.23991   0.00000  Uiso   1.00
H67    H     0.00357   0.38765   0.29349   0.00000  Uiso   1.00
H68    H     0.49212   0.36177   0.09343   0.00000  Uiso   1.00
H69    H     0.46205   0.34595   0.04250   0.00000  Uiso   1.00
H70    H     0.00357   0.38765   0.03985   0.00000  Uiso   1.00
H71    H     0.00788   0.13823   0.23991   0.00000  Uiso   1.00
H72    H     0.49643   0.11235   0.29349   0.00000  Uiso   1.00
H73    H     0.03795   0.15405   0.29084   0.00000  Uiso   1.00
H74    H     0.25788   0.38823   0.09343   0.00000  Uiso   1.00
H75    H     0.09739   0.34686   0.09175   0.00000  Uiso   1.00
H76    H     0.28795   0.40405   0.04250   0.00000  Uiso   1.00
H77    H     0.24644   0.36235   0.03985   0.00000  Uiso   1.00
H78    H     0.21205   0.09595   0.29083   0.00000  Uiso   1.00
H79    H     0.24212   0.11177   0.23991   0.00000  Uiso   1.00
H80    H     0.25357   0.13765   0.29349   0.00000  Uiso   1.00
H81    H     0.24212   0.11177   0.09343   0.00000  Uiso   1.00
H82    H     0.21205   0.09595   0.04250   0.00000  Uiso   1.00
H83    H     0.25357   0.13765   0.03985   0.00000  Uiso   1.00
H84    H     0.25788   0.38823   0.23991   0.00000  Uiso   1.00
H85    H     0.24643   0.36235   0.29349   0.00000  Uiso   1.00
H86    H     0.40261   0.15314   0.24158   0.00000  Uiso   1.00
H87    H     0.28795   0.40405   0.29084   0.00000  Uiso   1.00
H88    H     0.09788   0.15365   0.24153   0.00000  Uiso   1.00
H89    H     0.40212   0.34635   0.09180   0.00000  Uiso   1.00
H90    H     0.40212   0.34635   0.24153   0.00000  Uiso   1.00
H91    H     0.09788   0.15365   0.09180   0.00000  Uiso   1.00
H92    H     0.15261   0.40314   0.09175   0.00000  Uiso   1.00
N93    N     0.00000   0.25000   0.28402   0.00000  Uiso   1.00
N94    N     0.00000   0.25000   0.04931   0.00000  Uiso   1.00
N95    N     0.25000  -0.00000   0.28402   0.00000  Uiso   1.00
N96    N     0.25000  -0.00000   0.04931   0.00000  Uiso   1.00
O97    O     0.04509   0.20491   0.20625   0.00000  Uiso   1.00
O98    O     0.20492   0.04509   0.12709   0.00000  Uiso   1.00
O99    O     0.20492   0.04509   0.20625   0.00000  Uiso   1.00
O100   O     0.29509   0.45491   0.12709   0.00000  Uiso   1.00
O101   O     0.20492   0.45491   0.12709   0.00000  Uiso   1.00
O102   O     0.29509   0.04509   0.20625   0.00000  Uiso   1.00
O103   O     0.29509   0.04509   0.12709   0.00000  Uiso   1.00
O104   O     0.20492   0.45491   0.20625   0.00000  Uiso   1.00
O105   O     0.47280   0.17583   0.04738   0.00000  Uiso   1.00
O106   O     0.02720   0.32417   0.28596   0.00000  Uiso   1.00
O107   O     0.02720   0.32417   0.04738   0.00000  Uiso   1.00
O108   O     0.45492   0.29509   0.12709   0.00000  Uiso   1.00
O109   O     0.47280   0.17583   0.28596   0.00000  Uiso   1.00
O110   O     0.22280   0.42583   0.04738   0.00000  Uiso   1.00
O111   O     0.27720   0.07417   0.28596   0.00000  Uiso   1.00
O112   O     0.27720   0.07417   0.04738   0.00000  Uiso   1.00
O113   O     0.22280   0.42583   0.28596   0.00000  Uiso   1.00
O114   O     0.45492   0.29509   0.20625   0.00000  Uiso   1.00
O115   O     0.04509   0.20491   0.12709   0.00000  Uiso   1.00
O116   O     0.45492   0.20491   0.12709   0.00000  Uiso   1.00
O117   O     0.04509   0.29509   0.20625   0.00000  Uiso   1.00
O118   O     0.04509   0.29509   0.12709   0.00000  Uiso   1.00
O119   O     0.45492   0.20491   0.20625   0.00000  Uiso   1.00
O120   O     0.29509   0.45491   0.20625   0.00000  Uiso   1.00
C121   C     0.55957   0.19079   0.16667   0.00000  Uiso   1.00
C122   C     0.51123   0.28735   0.30866   0.00000  Uiso   1.00
C123   C     0.51123   0.28735   0.02467   0.00000  Uiso   1.00
C124   C     0.98877   0.21265   0.30866   0.00000  Uiso   1.00
C125   C     0.73877   0.46265   0.02467   0.00000  Uiso   1.00
C126   C     0.76123   0.03735   0.30866   0.00000  Uiso   1.00
C127   C     0.76123   0.03735   0.02467   0.00000  Uiso   1.00
C128   C     0.73877   0.46265   0.30866   0.00000  Uiso   1.00
C129   C     0.89088   0.14104   0.12465   0.00000  Uiso   1.00
C130   C     0.60912   0.35896   0.20868   0.00000  Uiso   1.00
C131   C     0.60912   0.35896   0.12465   0.00000  Uiso   1.00
C132   C     0.94043   0.30921   0.16667   0.00000  Uiso   1.00
C133   C     0.89088   0.14104   0.20868   0.00000  Uiso   1.00
C134   C     0.60932   0.14125   0.20866   0.00000  Uiso   1.00
C135   C     0.89068   0.35875   0.12467   0.00000  Uiso   1.00
C136   C     0.89068   0.35875   0.20866   0.00000  Uiso   1.00
C137   C     0.60932   0.14125   0.12467   0.00000  Uiso   1.00
C138   C     0.64088   0.39104   0.12465   0.00000  Uiso   1.00
C139   C     0.85912   0.10896   0.20868   0.00000  Uiso   1.00
C140   C     0.85912   0.10896   0.12465   0.00000  Uiso   1.00
C141   C     0.64088   0.39104   0.20868   0.00000  Uiso   1.00
C142   C     0.85932   0.39125   0.20866   0.00000  Uiso   1.00
C143   C     0.94060   0.19060   0.16667   0.00000  Uiso   1.00
C144   C     0.64068   0.10875   0.12467   0.00000  Uiso   1.00
C145   C     0.64068   0.10875   0.20866   0.00000  Uiso   1.00
C146   C     0.85932   0.39125   0.12467   0.00000  Uiso   1.00
C147   C     0.59297   0.34284   0.16667   0.00000  Uiso   1.00
C148   C     0.90703   0.15716   0.16667   0.00000  Uiso   1.00
C149   C     0.90677   0.34256   0.16667   0.00000  Uiso   1.00
C150   C     0.59323   0.15743   0.16667   0.00000  Uiso   1.00
C151   C     0.84297   0.09284   0.16667   0.00000  Uiso   1.00
C152   C     0.65703   0.40716   0.16667   0.00000  Uiso   1.00
C153   C     0.65677   0.09256   0.16667   0.00000  Uiso   1.00
C154   C     0.55940   0.30940   0.16667   0.00000  Uiso   1.00
C155   C     0.84323   0.40743   0.16667   0.00000  Uiso   1.00
C156   C     0.50565   0.14448   0.05571   0.00000  Uiso   1.00
C157   C     0.99435   0.35552   0.27763   0.00000  Uiso   1.00
C158   C     0.99436   0.35552   0.05571   0.00000  Uiso   1.00
C159   C     0.50564   0.14448   0.27763   0.00000  Uiso   1.00
C160   C     0.75565   0.39448   0.05571   0.00000  Uiso   1.00
C161   C     0.74435   0.10552   0.27763   0.00000  Uiso   1.00
C162   C     0.74436   0.10552   0.05571   0.00000  Uiso   1.00
C163   C     0.75564   0.39448   0.27763   0.00000  Uiso   1.00
C164   C     0.80957   0.44079   0.16667   0.00000  Uiso   1.00
C165   C     0.69043   0.05921   0.16667   0.00000  Uiso   1.00
C166   C     0.69060   0.44060   0.16667   0.00000  Uiso   1.00
C167   C     0.80940   0.05940   0.16667   0.00000  Uiso   1.00
C168   C     0.98877   0.21265   0.02467   0.00000  Uiso   1.00
Cu169  Cu    0.50000   0.25000   0.21355   0.00000  Uiso   1.00
Cu170  Cu    0.50000   0.25000   0.11978   0.00000  Uiso   1.00
Cu171  Cu    0.75000  -0.00000   0.21355   0.00000  Uiso   1.00
Cu172  Cu    0.75000  -0.00000   0.11978   0.00000  Uiso   1.00
H173   H     0.90261   0.15314   0.09175   0.00000  Uiso   1.00
H174   H     0.84739   0.09686   0.24158   0.00000  Uiso   1.00
H175   H     0.84739   0.09686   0.09175   0.00000  Uiso   1.00
H176   H     0.65261   0.40314   0.24158   0.00000  Uiso   1.00
H177   H     0.84788   0.40365   0.24153   0.00000  Uiso   1.00
H178   H     0.65212   0.09635   0.09180   0.00000  Uiso   1.00
H179   H     0.65212   0.09635   0.24153   0.00000  Uiso   1.00
H180   H     0.84788   0.40365   0.09180   0.00000  Uiso   1.00
H181   H     0.50788   0.13823   0.09343   0.00000  Uiso   1.00
H182   H     0.53795   0.15405   0.04250   0.00000  Uiso   1.00
H183   H     0.99644   0.11235   0.03985   0.00000  Uiso   1.00
H184   H     0.59739   0.34686   0.24158   0.00000  Uiso   1.00
H185   H     0.96205   0.34595   0.29083   0.00000  Uiso   1.00
H186   H     0.99212   0.36177   0.23991   0.00000  Uiso   1.00
H187   H     0.50357   0.38765   0.29349   0.00000  Uiso   1.00
H188   H     0.99212   0.36177   0.09343   0.00000  Uiso   1.00
H189   H     0.96205   0.34595   0.04250   0.00000  Uiso   1.00
H190   H     0.50357   0.38765   0.03985   0.00000  Uiso   1.00
H191   H     0.50788   0.13823   0.23991   0.00000  Uiso   1.00
H192   H     0.99643   0.11235   0.29349   0.00000  Uiso   1.00
H193   H     0.53795   0.15405   0.29084   0.00000  Uiso   1.00
H194   H     0.75788   0.38823   0.09343   0.00000  Uiso   1.00
H195   H     0.59739   0.34686   0.09175   0.00000  Uiso   1.00
H196   H     0.78795   0.40405   0.04250   0.00000  Uiso   1.00
H197   H     0.74644   0.36235   0.03985   0.00000  Uiso   1.00
H198   H     0.71205   0.09595   0.29083   0.00000  Uiso   1.00
H199   H     0.74212   0.11177   0.23991   0.00000  Uiso   1.00
H200   H     0.75357   0.13765   0.29349   0.00000  Uiso   1.00
H201   H     0.74212   0.11177   0.09343   0.00000  Uiso   1.00
H202   H     0.71205   0.09595   0.04250   0.00000  Uiso   1.00
H203   H     0.75357   0.13765   0.03985   0.00000  Uiso   1.00
H204   H     0.75788   0.38823   0.23991   0.00000  Uiso   1.00
H205   H     0.74643   0.36235   0.29349   0.00000  Uiso   1.00
H206   H     0.90261   0.15314   0.24158   0.00000  Uiso   1.00
H207   H     0.78795   0.40405   0.29084   0.00000  Uiso   1.00
H208   H     0.59788   0.15365   0.24153   0.00000  Uiso   1.00
H209   H     0.90212   0.34635   0.09180   0.00000  Uiso   1.00
H210   H     0.90212   0.34635   0.24153   0.00000  Uiso   1.00
H211   H     0.59788   0.15365   0.09180   0.00000  Uiso   1.00
H212   H     0.65261   0.40314   0.09175   0.00000  Uiso   1.00
N213   N     0.50000   0.25000   0.28402   0.00000  Uiso   1.00
N214   N     0.50000   0.25000   0.04931   0.00000  Uiso   1.00
N215   N     0.75000  -0.00000   0.28402   0.00000  Uiso   1.00
N216   N     0.75000  -0.00000   0.04931   0.00000  Uiso   1.00
O217   O     0.54509   0.20491   0.20625   0.00000  Uiso   1.00
O218   O     0.70492   0.04509   0.12709   0.00000  Uiso   1.00
O219   O     0.70492   0.04509   0.20625   0.00000  Uiso   1.00
O220   O     0.79509   0.45491   0.12709   0.00000  Uiso   1.00
O221   O     0.70492   0.45491   0.12709   0.00000  Uiso   1.00
O222   O     0.79509   0.04509   0.20625   0.00000  Uiso   1.00
O223   O     0.79509   0.04509   0.12709   0.00000  Uiso   1.00
O224   O     0.70492   0.45491   0.20625   0.00000  Uiso   1.00
O225   O     0.97280   0.17583   0.04738   0.00000  Uiso   1.00
O226   O     0.52720   0.32417   0.28596   0.00000  Uiso   1.00
O227   O     0.52720   0.32417   0.04738   0.00000  Uiso   1.00
O228   O     0.95492   0.29509   0.12709   0.00000  Uiso   1.00
O229   O     0.97280   0.17583   0.28596   0.00000  Uiso   1.00
O230   O     0.72280   0.42583   0.04738   0.00000  Uiso   1.00
O231   O     0.77720   0.07417   0.28596   0.00000  Uiso   1.00
O232   O     0.77720   0.07417   0.04738   0.00000  Uiso   1.00
O233   O     0.72280   0.42583   0.28596   0.00000  Uiso   1.00
O234   O     0.95492   0.29509   0.20625   0.00000  Uiso   1.00
O235   O     0.54509   0.20491   0.12709   0.00000  Uiso   1.00
O236   O     0.95492   0.20491   0.12709   0.00000  Uiso   1.00
O237   O     0.54509   0.29509   0.20625   0.00000  Uiso   1.00
O238   O     0.54509   0.29509   0.12709   0.00000  Uiso   1.00
O239   O     0.95492   0.20491   0.20625   0.00000  Uiso   1.00
O240   O     0.79509   0.45491   0.20625   0.00000  Uiso   1.00
C241   C     0.05957   0.69079   0.16667   0.00000  Uiso   1.00
C242   C     0.01123   0.78735   0.30866   0.00000  Uiso   1.00
C243   C     0.01123   0.78735   0.02467   0.00000  Uiso   1.00
C244   C     0.48877   0.71265   0.30866   0.00000  Uiso   1.00
C245   C     0.23877   0.96265   0.02467   0.00000  Uiso   1.00
C246   C     0.26123   0.53735   0.30866   0.00000  Uiso   1.00
C247   C     0.26123   0.53735   0.02467   0.00000  Uiso   1.00
C248   C     0.23877   0.96265   0.30866   0.00000  Uiso   1.00
C249   C     0.39088   0.64104   0.12465   0.00000  Uiso   1.00
C250   C     0.10912   0.85896   0.20868   0.00000  Uiso   1.00
C251   C     0.10912   0.85896   0.12465   0.00000  Uiso   1.00
C252   C     0.44043   0.80921   0.16667   0.00000  Uiso   1.00
C253   C     0.39088   0.64104   0.20868   0.00000  Uiso   1.00
C254   C     0.10932   0.64125   0.20866   0.00000  Uiso   1.00
C255   C     0.39068   0.85875   0.12467   0.00000  Uiso   1.00
C256   C     0.39068   0.85875   0.20866   0.00000  Uiso   1.00
C257   C     0.10932   0.64125   0.12467   0.00000  Uiso   1.00
C258   C     0.14088   0.89104   0.12465   0.00000  Uiso   1.00
C259   C     0.35912   0.60896   0.20868   0.00000  Uiso   1.00
C260   C     0.35912   0.60896   0.12465   0.00000  Uiso   1.00
C261   C     0.14088   0.89104   0.20868   0.00000  Uiso   1.00
C262   C     0.35932   0.89125   0.20866   0.00000  Uiso   1.00
C263   C     0.44060   0.69060   0.16667   0.00000  Uiso   1.00
C264   C     0.14068   0.60875   0.12467   0.00000  Uiso   1.00
C265   C     0.14068   0.60875   0.20866   0.00000  Uiso   1.00
C266   C     0.35932   0.89125   0.12467   0.00000  Uiso   1.00
C267   C     0.09297   0.84284   0.16667   0.00000  Uiso   1.00
C268   C     0.40703   0.65716   0.16667   0.00000  Uiso   1.00
C269   C     0.40677   0.84256   0.16667   0.00000  Uiso   1.00
C270   C     0.09323   0.65743   0.16667   0.00000  Uiso   1.00
C271   C     0.34297   0.59284   0.16667   0.00000  Uiso   1.00
C272   C     0.15703   0.90716   0.16667   0.00000  Uiso   1.00
C273   C     0.15677   0.59256   0.16667   0.00000  Uiso   1.00
C274   C     0.05940   0.80940   0.16667   0.00000  Uiso   1.00
C275   C     0.34323   0.90743   0.16667   0.00000  Uiso   1.00
C276   C     0.00565   0.64448   0.05571   0.00000  Uiso   1.00
C277   C     0.49435   0.85552   0.27763   0.00000  Uiso   1.00
C278   C     0.49436   0.85552   0.05571   0.00000  Uiso   1.00
C279   C     0.00564   0.64448   0.27763   0.00000  Uiso   1.00
C280   C     0.25565   0.89448   0.05571   0.00000  Uiso   1.00
C281   C     0.24435   0.60552   0.27763   0.00000  Uiso   1.00
C282   C     0.24436   0.60552   0.05571   0.00000  Uiso   1.00
C283   C     0.25564   0.89448   0.27763   0.00000  Uiso   1.00
C284   C     0.30957   0.94079   0.16667   0.00000  Uiso   1.00
C285   C     0.19043   0.55921   0.16667   0.00000  Uiso   1.00
C286   C     0.19060   0.94060   0.16667   0.00000  Uiso   1.00
C287   C     0.30940   0.55940   0.16667   0.00000  Uiso   1.00
C288   C     0.48877   0.71265   0.02467   0.00000  Uiso   1.00
Cu289  Cu    0.00000   0.75000   0.21355   0.00000  Uiso   1.00
Cu290  Cu    0.00000   0.75000   0.11978   0.00000  Uiso   1.00
Cu291  Cu    0.25000   0.50000   0.21355   0.00000  Uiso   1.00
Cu292  Cu    0.25000   0.50000   0.11978   0.00000  Uiso   1.00
H293   H     0.40261   0.65314   0.09175   0.00000  Uiso   1.00
H294   H     0.34739   0.59686   0.24158   0.00000  Uiso   1.00
H295   H     0.34739   0.59686   0.09175   0.00000  Uiso   1.00
H296   H     0.15261   0.90314   0.24158   0.00000  Uiso   1.00
H297   H     0.34788   0.90365   0.24153   0.00000  Uiso   1.00
H298   H     0.15212   0.59635   0.09180   0.00000  Uiso   1.00
H299   H     0.15212   0.59635   0.24153   0.00000  Uiso   1.00
H300   H     0.34788   0.90365   0.09180   0.00000  Uiso   1.00
H301   H     0.00788   0.63823   0.09343   0.00000  Uiso   1.00
H302   H     0.03795   0.65405   0.04250   0.00000  Uiso   1.00
H303   H     0.49644   0.61235   0.03985   0.00000  Uiso   1.00
H304   H     0.09739   0.84686   0.24158   0.00000  Uiso   1.00
H305   H     0.46205   0.84595   0.29083   0.00000  Uiso   1.00
H306   H     0.49212   0.86177   0.23991   0.00000  Uiso   1.00
H307   H     0.00357   0.88765   0.29349   0.00000  Uiso   1.00
H308   H     0.49212   0.86177   0.09343   0.00000  Uiso   1.00
H309   H     0.46205   0.84595   0.04250   0.00000  Uiso   1.00
H310   H     0.00357   0.88765   0.03985   0.00000  Uiso   1.00
H311   H     0.00788   0.63823   0.23991   0.00000  Uiso   1.00
H312   H     0.49643   0.61235   0.29349   0.00000  Uiso   1.00
H313   H     0.03795   0.65405   0.29084   0.00000  Uiso   1.00
H314   H     0.25788   0.88823   0.09343   0.00000  Uiso   1.00
H315   H     0.09739   0.84686   0.09175   0.00000  Uiso   1.00
H316   H     0.28795   0.90405   0.04250   0.00000  Uiso   1.00
H317   H     0.24644   0.86235   0.03985   0.00000  Uiso   1.00
H318   H     0.21205   0.59595   0.29083   0.00000  Uiso   1.00
H319   H     0.24212   0.61177   0.23991   0.00000  Uiso   1.00
H320   H     0.25357   0.63765   0.29349   0.00000  Uiso   1.00
H321   H     0.24212   0.61177   0.09343   0.00000  Uiso   1.00
H322   H     0.21205   0.59595   0.04250   0.00000  Uiso   1.00
H323   H     0.25357   0.63765   0.03985   0.00000  Uiso   1.00
H324   H     0.25788   0.88823   0.23991   0.00000  Uiso   1.00
H325   H     0.24643   0.86235   0.29349   0.00000  Uiso   1.00
H326   H     0.40261   0.65314   0.24158   0.00000  Uiso   1.00
H327   H     0.28795   0.90405   0.29084   0.00000  Uiso   1.00
H328   H     0.09788   0.65365   0.24153   0.00000  Uiso   1.00
H329   H     0.40212   0.84635   0.09180   0.00000  Uiso   1.00
H330   H     0.40212   0.84635   0.24153   0.00000  Uiso   1.00
H331   H     0.09788   0.65365   0.09180   0.00000  Uiso   1.00
H332   H     0.15261   0.90314   0.09175   0.00000  Uiso   1.00
N333   N     0.00000   0.75000   0.28402   0.00000  Uiso   1.00
N334   N     0.00000   0.75000   0.04931   0.00000  Uiso   1.00
N335   N     0.25000   0.50000   0.28402   0.00000  Uiso   1.00
N336   N     0.25000   0.50000   0.04931   0.00000  Uiso   1.00
O337   O     0.04509   0.70491   0.20625   0.00000  Uiso   1.00
O338   O     0.20492   0.54509   0.12709   0.00000  Uiso   1.00
O339   O     0.20492   0.54509   0.20625   0.00000  Uiso   1.00
O340   O     0.29509   0.95491   0.12709   0.00000  Uiso   1.00
O341   O     0.20492   0.95491   0.12709   0.00000  Uiso   1.00
O342   O     0.29509   0.54509   0.20625   0.00000  Uiso   1.00
O343   O     0.29509   0.54509   0.12709   0.00000  Uiso   1.00
O344   O     0.20492   0.95491   0.20625   0.00000  Uiso   1.00
O345   O     0.47280   0.67583   0.04738   0.00000  Uiso   1.00
O346   O     0.02720   0.82417   0.28596   0.00000  Uiso   1.00
O347   O     0.02720   0.82417   0.04738   0.00000  Uiso   1.00
O348   O     0.45492   0.79509   0.12709   0.00000  Uiso   1.00
O349   O     0.47280   0.67583   0.28596   0.00000  Uiso   1.00
O350   O     0.22280   0.92583   0.04738   0.00000  Uiso   1.00
O351   O     0.27720   0.57417   0.28596   0.00000  Uiso   1.00
O352   O     0.27720   0.57417   0.04738   0.00000  Uiso   1.00
O353   O     0.22280   0.92583   0.28596   0.00000  Uiso   1.00
O354   O     0.45492   0.79509   0.20625   0.00000  Uiso   1.00
O355   O     0.04509   0.70491   0.12709   0.00000  Uiso   1.00
O356   O     0.45492   0.70491   0.12709   0.00000  Uiso   1.00
O357   O     0.04509   0.79509   0.20625   0.00000  Uiso   1.00
O358   O     0.04509   0.79509   0.12709   0.00000  Uiso   1.00
O359   O     0.45492   0.70491   0.20625   0.00000  Uiso   1.00
O360   O     0.29509   0.95491   0.20625   0.00000  Uiso   1.00
C361   C     0.55957   0.69079   0.16667   0.00000  Uiso   1.00
C362   C     0.51123   0.78735   0.30866   0.00000  Uiso   1.00
C363   C     0.51123   0.78735   0.02467   0.00000  Uiso   1.00
C364   C     0.98877   0.71265   0.30866   0.00000  Uiso   1.00
C365   C     0.73877   0.96265   0.02467   0.00000  Uiso   1.00
C366   C     0.76123   0.53735   0.30866   0.00000  Uiso   1.00
C367   C     0.76123   0.53735   0.02467   0.00000  Uiso   1.00
C368   C     0.73877   0.96265   0.30866   0.00000  Uiso   1.00
C369   C     0.89088   0.64104   0.12465   0.00000  Uiso   1.00
C370   C     0.60912   0.85896   0.20868   0.00000  Uiso   1.00
C371   C     0.60912   0.85896   0.12465   0.00000  Uiso   1.00
C372   C     0.94043   0.80921   0.16667   0.00000  Uiso   1.00
C373   C     0.89088   0.64104   0.20868   0.00000  Uiso   1.00
C374   C     0.60932   0.64125   0.20866   0.00000  Uiso   1.00
C375   C     0.89068   0.85875   0.12467   0.00000  Uiso   1.00
C376   C     0.89068   0.85875   0.20866   0.00000  Uiso   1.00
C377   C     0.60932   0.64125   0.12467   0.00000  Uiso   1.00
C378   C     0.64088   0.89104   0.12465   0.00000  Uiso   1.00
C379   C     0.85912   0.60896   0.20868   0.00000  Uiso   1.00
C380   C     0.85912   0.60896   0.12465   0.00000  Uiso   1.00
C381   C     0.64088   0.89104   0.20868   0.00000  Uiso   1.00
C382   C     0.85932   0.89125   0.20866   0.00000  Uiso   1.00
C383   C     0.94060   0.69060   0.16667   0.00000  Uiso   1.00
C384   C     0.64068   0.60875   0.12467   0.00000  Uiso   1.00
C385   C     0.64068   0.60875   0.20866   0.00000  Uiso   1.00
C386   C     0.85932   0.89125   0.12467   0.00000  Uiso   1.00
C387   C     0.59297   0.84284   0.16667   0.00000  Uiso   1.00
C388   C     0.90703   0.65716   0.16667   0.00000  Uiso   1.00
C389   C     0.90677   0.84256   0.16667   0.00000  Uiso   1.00
C390   C     0.59323   0.65743   0.16667   0.00000  Uiso   1.00
C391   C     0.84297   0.59284   0.16667   0.00000  Uiso   1.00
C392   C     0.65703   0.90716   0.16667   0.00000  Uiso   1.00
C393   C     0.65677   0.59256   0.16667   0.00000  Uiso   1.00
C394   C     0.55940   0.80940   0.16667   0.00000  Uiso   1.00
C395   C     0.84323   0.90743   0.16667   0.00000  Uiso   1.00
C396   C     0.50565   0.64448   0.05571   0.00000  Uiso   1.00
C397   C     0.99435   0.85552   0.27763   0.00000  Uiso   1.00
C398   C     0.99436   0.85552   0.05571   0.00000  Uiso   1.00
C399   C     0.50564   0.64448   0.27763   0.00000  Uiso   1.00
C400   C     0.75565   0.89448   0.05571   0.00000  Uiso   1.00
C401   C     0.74435   0.60552   0.27763   0.00000  Uiso   1.00
C402   C     0.74436   0.60552   0.05571   0.00000  Uiso   1.00
C403   C     0.75564   0.89448   0.27763   0.00000  Uiso   1.00
C404   C     0.80957   0.94079   0.16667   0.00000  Uiso   1.00
C405   C     0.69043   0.55921   0.16667   0.00000  Uiso   1.00
C406   C     0.69060   0.94060   0.16667   0.00000  Uiso   1.00
C407   C     0.80940   0.55940   0.16667   0.00000  Uiso   1.00
C408   C     0.98877   0.71265   0.02467   0.00000  Uiso   1.00
Cu409  Cu    0.50000   0.75000   0.21355   0.00000  Uiso   1.00
Cu410  Cu    0.50000   0.75000   0.11978   0.00000  Uiso   1.00
Cu411  Cu    0.75000   0.50000   0.21355   0.00000  Uiso   1.00
Cu412  Cu    0.75000   0.50000   0.11978   0.00000  Uiso   1.00
H413   H     0.90261   0.65314   0.09175   0.00000  Uiso   1.00
H414   H     0.84739   0.59686   0.24158   0.00000  Uiso   1.00
H415   H     0.84739   0.59686   0.09175   0.00000  Uiso   1.00
H416   H     0.65261   0.90314   0.24158   0.00000  Uiso   1.00
H417   H     0.84788   0.90365   0.24153   0.00000  Uiso   1.00
H418   H     0.65212   0.59635   0.09180   0.00000  Uiso   1.00
H419   H     0.65212   0.59635   0.24153   0.00000  Uiso   1.00
H420   H     0.84788   0.90365   0.09180   0.00000  Uiso   1.00
H421   H     0.50788   0.63823   0.09343   0.00000  Uiso   1.00
H422   H     0.53795   0.65405   0.04250   0.00000  Uiso   1.00
H423   H     0.99644   0.61235   0.03985   0.00000  Uiso   1.00
H424   H     0.59739   0.84686   0.24158   0.00000  Uiso   1.00
H425   H     0.96205   0.84595   0.29083   0.00000  Uiso   1.00
H426   H     0.99212   0.86177   0.23991   0.00000  Uiso   1.00
H427   H     0.50357   0.88765   0.29349   0.00000  Uiso   1.00
H428   H     0.99212   0.86177   0.09343   0.00000  Uiso   1.00
H429   H     0.96205   0.84595   0.04250   0.00000  Uiso   1.00
H430   H     0.50357   0.88765   0.03985   0.00000  Uiso   1.00
H431   H     0.50788   0.63823   0.23991   0.00000  Uiso   1.00
H432   H     0.99643   0.61235   0.29349   0.00000  Uiso   1.00
H433   H     0.53795   0.65405   0.29084   0.00000  Uiso   1.00
H434   H     0.75788   0.88823   0.09343   0.00000  Uiso   1.00
H435   H     0.59739   0.84686   0.09175   0.00000  Uiso   1.00
H436   H     0.78795   0.90405   0.04250   0.00000  Uiso   1.00
H437   H     0.74644   0.86235   0.03985   0.00000  Uiso   1.00
H438   H     0.71205   0.59595   0.29083   0.00000  Uiso   1.00
H439   H     0.74212   0.61177   0.23991   0.00000  Uiso   1.00
H440   H     0.75357   0.63765   0.29349   0.00000  Uiso   1.00
H441   H     0.74212   0.61177   0.09343   0.00000  Uiso   1.00
H442   H     0.71205   0.59595   0.04250   0.00000  Uiso   1.00
H443   H     0.75357   0.63765   0.03985   0.00000  Uiso   1.00
H444   H     0.75788   0.88823   0.23991   0.00000  Uiso   1.00
H445   H     0.74643   0.86235   0.29349   0.00000  Uiso   1.00
H446   H     0.90261   0.65314   0.24158   0.00000  Uiso   1.00
H447   H     0.78795   0.90405   0.29084   0.00000  Uiso   1.00
H448   H     0.59788   0.65365   0.24153   0.00000  Uiso   1.00
H449   H     0.90212   0.84635   0.09180   0.00000  Uiso   1.00
H450   H     0.90212   0.84635   0.24153   0.00000  Uiso   1.00
H451   H     0.59788   0.65365   0.09180   0.00000  Uiso   1.00
H452   H     0.65261   0.90314   0.09175   0.00000  Uiso   1.00
N453   N     0.50000   0.75000   0.28402   0.00000  Uiso   1.00
N454   N     0.50000   0.75000   0.04931   0.00000  Uiso   1.00
N455   N     0.75000   0.50000   0.28402   0.00000  Uiso   1.00
N456   N     0.75000   0.50000   0.04931   0.00000  Uiso   1.00
O457   O     0.54509   0.70491   0.20625   0.00000  Uiso   1.00
O458   O     0.70492   0.54509   0.12709   0.00000  Uiso   1.00
O459   O     0.70492   0.54509   0.20625   0.00000  Uiso   1.00
O460   O     0.79509   0.95491   0.12709   0.00000  Uiso   1.00
O461   O     0.70492   0.95491   0.12709   0.00000  Uiso   1.00
O462   O     0.79509   0.54509   0.20625   0.00000  Uiso   1.00
O463   O     0.79509   0.54509   0.12709   0.00000  Uiso   1.00
O464   O     0.70492   0.95491   0.20625   0.00000  Uiso   1.00
O465   O     0.97280   0.67583   0.04738   0.00000  Uiso   1.00
O466   O     0.52720   0.82417   0.28596   0.00000  Uiso   1.00
O467   O     0.52720   0.82417   0.04738   0.00000  Uiso   1.00
O468   O     0.95492   0.79509   0.12709   0.00000  Uiso   1.00
O469   O     0.97280   0.67583   0.28596   0.00000  Uiso   1.00
O470   O     0.72280   0.92583   0.04738   0.00000  Uiso   1.00
O471   O     0.77720   0.57417   0.28596   0.00000  Uiso   1.00
O472   O     0.77720   0.57417   0.04738   0.00000  Uiso   1.00
O473   O     0.72280   0.92583   0.28596   0.00000  Uiso   1.00
O474   O     0.95492   0.79509   0.20625   0.00000  Uiso   1.00
O475   O     0.54509   0.70491   0.12709   0.00000  Uiso   1.00
O476   O     0.95492   0.70491   0.12709   0.00000  Uiso   1.00
O477   O     0.54509   0.79509   0.20625   0.00000  Uiso   1.00
O478   O     0.54509   0.79509   0.12709   0.00000  Uiso   1.00
O479   O     0.95492   0.70491   0.20625   0.00000  Uiso   1.00
O480   O     0.79509   0.95491   0.20625   0.00000  Uiso   1.00
C481   C     0.05957   0.19079   0.50000   0.00000  Uiso   1.00
C482   C     0.01123   0.28735   0.64199   0.00000  Uiso   1.00
C483   C     0.01123   0.28735   0.35801   0.00000  Uiso   1.00
C484   C     0.48877   0.21265   0.64199   0.00000  Uiso   1.00
C485   C     0.23877   0.46265   0.35801   0.00000  Uiso   1.00
C486   C     0.26123   0.03735   0.64199   0.00000  Uiso   1.00
C487   C     0.26123   0.03735   0.35801   0.00000  Uiso   1.00
C488   C     0.23877   0.46265   0.64199   0.00000  Uiso   1.00
C489   C     0.39088   0.14104   0.45798   0.00000  Uiso   1.00
C490   C     0.10912   0.35896   0.54202   0.00000  Uiso   1.00
C491   C     0.10912   0.35896   0.45798   0.00000  Uiso   1.00
C492   C     0.44043   0.30921   0.50000   0.00000  Uiso   1.00
C493   C     0.39088   0.14104   0.54202   0.00000  Uiso   1.00
C494   C     0.10932   0.14125   0.54200   0.00000  Uiso   1.00
C495   C     0.39068   0.35875   0.45800   0.00000  Uiso   1.00
C496   C     0.39068   0.35875   0.54200   0.00000  Uiso   1.00
C497   C     0.10932   0.14125   0.45800   0.00000  Uiso   1.00
C498   C     0.14088   0.39104   0.45798   0.00000  Uiso   1.00
C499   C     0.35912   0.10896   0.54202   0.00000  Uiso   1.00
C500   C     0.35912   0.10896   0.45798   0.00000  Uiso   1.00
C501   C     0.14088   0.39104   0.54202   0.00000  Uiso   1.00
C502   C     0.35932   0.39125   0.54200   0.00000  Uiso   1.00
C503   C     0.44060   0.19060   0.50000   0.00000  Uiso   1.00
C504   C     0.14068   0.10875   0.45800   0.00000  Uiso   1.00
C505   C     0.14068   0.10875   0.54200   0.00000  Uiso   1.00
C506   C     0.35932   0.39125   0.45800   0.00000  Uiso   1.00
C507   C     0.09297   0.34284   0.50000   0.00000  Uiso   1.00
C508   C     0.40703   0.15716   0.50000   0.00000  Uiso   1.00
C509   C     0.40677   0.34256   0.50000   0.00000  Uiso   1.00
C510   C     0.09323   0.15743   0.50000   0.00000  Uiso   1.00
C511   C     0.34297   0.09284   0.50000   0.00000  Uiso   1.00
C512   C     0.15703   0.40716   0.50000   0.00000  Uiso   1.00
C513   C     0.15677   0.09256   0.50000   0.00000  Uiso   1.00
C514   C     0.05940   0.30940   0.50000   0.00000  Uiso   1.00
C515   C     0.34323   0.40743   0.50000   0.00000  Uiso   1.00
C516   C     0.00565   0.14448   0.38904   0.00000  Uiso   1.00
C517   C     0.49435   0.35552   0.61096   0.00000  Uiso   1.00
C518   C     0.49436   0.35552   0.38904   0.00000  Uiso   1.00
C519   C     0.00564   0.14448   0.61096   0.00000  Uiso   1.00
C520   C     0.25565   0.39448   0.38904   0.00000  Uiso   1.00
C521   C     0.24435   0.10552   0.61096   0.00000  Uiso   1.00
C522   C     0.24436   0.10552   0.38904   0.00000  Uiso   1.00
C523   C     0.25564   0.39448   0.61096   0.00000  Uiso   1.00
C524   C     0.30957   0.44079   0.50000   0.00000  Uiso   1.00
C525   C     0.19043   0.05921   0.50000   0.00000  Uiso   1.00
C526   C     0.19060   0.44060   0.50000   0.00000  Uiso   1.00
C527   C     0.30940   0.05940   0.50000   0.00000  Uiso   1.00
C528   C     0.48877   0.21265   0.35801   0.00000  Uiso   1.00
Cu529  Cu    0.00000   0.25000   0.54689   0.00000  Uiso   1.00
Cu530  Cu    0.00000   0.25000   0.45311   0.00000  Uiso   1.00
Cu531  Cu    0.25000  -0.00000   0.54689   0.00000  Uiso   1.00
Cu532  Cu    0.25000  -0.00000   0.45311   0.00000  Uiso   1.00
H533   H     0.40261   0.15314   0.42508   0.00000  Uiso   1.00
H534   H     0.34739   0.09686   0.57492   0.00000  Uiso   1.00
H535   H     0.34739   0.09686   0.42508   0.00000  Uiso   1.00
H536   H     0.15261   0.40314   0.57492   0.00000  Uiso   1.00
H537   H     0.34788   0.40365   0.57487   0.00000  Uiso   1.00
H538   H     0.15212   0.09635   0.42513   0.00000  Uiso   1.00
H539   H     0.15212   0.09635   0.57487   0.00000  Uiso   1.00
H540   H     0.34788   0.40365   0.42513   0.00000  Uiso   1.00
H541   H     0.00788   0.13823   0.42676   0.00000  Uiso   1.00
H542   H     0.03795   0.15405   0.37583   0.00000  Uiso   1.00
H543   H     0.49644   0.11235   0.37318   0.00000  Uiso   1.00
H544   H     0.09739   0.34686   0.57492   0.00000  Uiso   1.00
H545   H     0.46205   0.34595   0.62417   0.00000  Uiso   1.00
H546   H     0.49212   0.36177   0.57324   0.00000  Uiso   1.00
H547   H     0.00357   0.38765   0.62682   0.00000  Uiso   1.00
H548   H     0.49212   0.36177   0.42676   0.00000  Uiso   1.00
H549   H     0.46205   0.34595   0.37583   0.00000  Uiso   1.00
H550   H     0.00357   0.38765   0.37318   0.00000  Uiso   1.00
H551   H     0.00788   0.13823   0.57324   0.00000  Uiso   1.00
H552   H     0.49643   0.11235   0.62682   0.00000  Uiso   1.00
H553   H     0.03795   0.15405   0.62417   0.00000  Uiso   1.00
H554   H     0.25788   0.38823   0.42676   0.00000  Uiso   1.00
H555   H     0.09739   0.34686   0.42508   0.00000  Uiso   1.00
H556   H     0.28795   0.40405   0.37583   0.00000  Uiso   1.00
H557   H     0.24644   0.36235   0.37318   0.00000  Uiso   1.00
H558   H     0.21205   0.09595   0.62417   0.00000  Uiso   1.00
H559   H     0.24212   0.11177   0.57324   0.00000  Uiso   1.00
H560   H     0.25357   0.13765   0.62682   0.00000  Uiso   1.00
H561   H     0.24212   0.11177   0.42676   0.00000  Uiso   1.00
H562   H     0.21205   0.09595   0.37583   0.00000  Uiso   1.00
H563   H     0.25357   0.13765   0.37318   0.00000  Uiso   1.00
H564   H     0.25788   0.38823   0.57324   0.00000  Uiso   1.00
H565   H     0.24643   0.36235   0.62682   0.00000  Uiso   1.00
H566   H     0.40261   0.15314   0.57492   0.00000  Uiso   1.00
H567   H     0.28795   0.40405   0.62417   0.00000  Uiso   1.00
H568   H     0.09788   0.15365   0.57487   0.00000  Uiso   1.00
H569   H     0.40212   0.34635   0.42513   0.00000  Uiso   1.00
H570   H     0.40212   0.34635   0.57487   0.00000  Uiso   1.00
H571   H     0.09788   0.15365   0.42513   0.00000  Uiso   1.00
H572   H     0.15261   0.40314   0.42508   0.00000  Uiso   1.00
N573   N     0.00000   0.25000   0.61736   0.00000  Uiso   1.00
N574   N     0.00000   0.25000   0.38264   0.00000  Uiso   1.00
N575   N     0.25000  -0.00000   0.61736   0.00000  Uiso   1.00
N576   N     0.25000  -0.00000   0.38264   0.00000  Uiso   1.00
O577   O     0.04509   0.20491   0.53958   0.00000  Uiso   1.00
O578   O     0.20492   0.04509   0.46042   0.00000  Uiso   1.00
O579   O     0.20492   0.04509   0.53958   0.00000  Uiso   1.00
O580   O     0.29509   0.45491   0.46042   0.00000  Uiso   1.00
O581   O     0.20492   0.45491   0.46042   0.00000  Uiso   1.00
O582   O     0.29509   0.04509   0.53958   0.00000  Uiso   1.00
O583   O     0.29509   0.04509   0.46042   0.00000  Uiso   1.00
O584   O     0.20492   0.45491   0.53958   0.00000  Uiso   1.00
O585   O     0.47280   0.17583   0.38071   0.00000  Uiso   1.00
O586   O     0.02720   0.32417   0.61929   0.00000  Uiso   1.00
O587   O     0.02720   0.32417   0.38071   0.00000  Uiso   1.00
O588   O     0.45492   0.29509   0.46042   0.00000  Uiso   1.00
O589   O     0.47280   0.17583   0.61929   0.00000  Uiso   1.00
O590   O     0.22280   0.42583   0.38071   0.00000  Uiso   1.00
O591   O     0.27720   0.07417   0.61929   0.00000  Uiso   1.00
O592   O     0.27720   0.07417   0.38071   0.00000  Uiso   1.00
O593   O     0.22280   0.42583   0.61929   0.00000  Uiso   1.00
O594   O     0.45492   0.29509   0.53958   0.00000  Uiso   1.00
O595   O     0.04509   0.20491   0.46042   0.00000  Uiso   1.00
O596   O     0.45492   0.20491   0.46042   0.00000  Uiso   1.00
O597   O     0.04509   0.29509   0.53958   0.00000  Uiso   1.00
O598   O     0.04509   0.29509   0.46042   0.00000  Uiso   1.00
O599   O     0.45492   0.20491   0.53958   0.00000  Uiso   1.00
O600   O     0.29509   0.45491   0.53958   0.00000  Uiso   1.00
C601   C     0.55957   0.19079   0.50000   0.00000  Uiso   1.00
C602   C     0.51123   0.28735   0.64199   0.00000  Uiso   1.00
C603   C     0.51123   0.28735   0.35801   0.00000  Uiso   1.00
C604   C     0.98877   0.21265   0.64199   0.00000  Uiso   1.00
C605   C     0.73877   0.46265   0.35801   0.00000  Uiso   1.00
C606   C     0.76123   0.03735   0.64199   0.00000  Uiso   1.00
C607   C     0.76123   0.03735   0.35801   0.00000  Uiso   1.00
C608   C     0.73877   0.46265   0.64199   0.00000  Uiso   1.00
C609   C     0.89088   0.14104   0.45798   0.00000  Uiso   1.00
C610   C     0.60912   0.35896   0.54202   0.00000  Uiso   1.00
C611   C     0.60912   0.35896   0.45798   0.00000  Uiso   1.00
C612   C     0.94043   0.30921   0.50000   0.00000  Uiso   1.00
C613   C     0.89088   0.14104   0.54202   0.00000  Uiso   1.00
C614   C     0.60932   0.14125   0.54200   0.00000  Uiso   1.00
C615   C     0.89068   0.35875   0.45800   0.00000  Uiso   1.00
C616   C     0.89068   0.35875   0.54200   0.00000  Uiso   1.00
C617   C     0.60932   0.14125   0.45800   0.00000  Uiso   1.00
C618   C     0.64088   0.39104   0.45798   0.00000  Uiso   1.00
C619   C     0.85912   0.10896   0.54202   0.00000  Uiso   1.00
C620   C     0.85912   0.10896   0.45798   0.00000  Uiso   1.00
C621   C     0.64088   0.39104   0.54202   0.00000  Uiso   1.00
C622   C     0.85932   0.39125   0.54200   0.00000  Uiso   1.00
C623   C     0.94060   0.19060   0.50000   0.00000  Uiso   1.00
C624   C     0.64068   0.10875   0.45800   0.00000  Uiso   1.00
C625   C     0.64068   0.10875   0.54200   0.00000  Uiso   1.00
C626   C     0.85932   0.39125   0.45800   0.00000  Uiso   1.00
C627   C     0.59297   0.34284   0.50000   0.00000  Uiso   1.00
C628   C     0.90703   0.15716   0.50000   0.00000  Uiso   1.00
C629   C     0.90677   0.34256   0.50000   0.00000  Uiso   1.00
C630   C     0.59323   0.15743   0.50000   0.00000  Uiso   1.00
C631   C     0.84297   0.09284   0.50000   0.00000  Uiso   1.00
C632   C     0.65703   0.40716   0.50000   0.00000  Uiso   1.00
C633   C     0.65677   0.09256   0.50000   0.00000  Uiso   1.00
C634   C     0.55940   0.30940   0.50000   0.00000  Uiso   1.00
C635   C     0.84323   0.40743   0.50000   0.00000  Uiso   1.00
C636   C     0.50565   0.14448   0.38904   0.00000  Uiso   1.00
C637   C     0.99435   0.35552   0.61096   0.00000  Uiso   1.00
C638   C     0.99436   0.35552   0.38904   0.00000  Uiso   1.00
C639   C     0.50564   0.14448   0.61096   0.00000  Uiso   1.00
C640   C     0.75565   0.39448   0.38904   0.00000  Uiso   1.00
C641   C     0.74435   0.10552   0.61096   0.00000  Uiso   1.00
C642   C     0.74436   0.10552   0.38904   0.00000  Uiso   1.00
C643   C     0.75564   0.39448   0.61096   0.00000  Uiso   1.00
C644   C     0.80957   0.44079   0.50000   0.00000  Uiso   1.00
C645   C     0.69043   0.05921   0.50000   0.00000  Uiso   1.00
C646   C     0.69060   0.44060   0.50000   0.00000  Uiso   1.00
C647   C     0.80940   0.05940   0.50000   0.00000  Uiso   1.00
C648   C     0.98877   0.21265   0.35801   0.00000  Uiso   1.00
Cu649  Cu    0.50000   0.25000   0.54689   0.00000  Uiso   1.00
Cu650  Cu    0.50000   0.25000   0.45311   0.00000  Uiso   1.00
Cu651  Cu    0.75000  -0.00000   0.54689   0.00000  Uiso   1.00
Cu652  Cu    0.75000  -0.00000   0.45311   0.00000  Uiso   1.00
H653   H     0.90261   0.15314   0.42508   0.00000  Uiso   1.00
H654   H     0.84739   0.09686   0.57492   0.00000  Uiso   1.00
H655   H     0.84739   0.09686   0.42508   0.00000  Uiso   1.00
H656   H     0.65261   0.40314   0.57492   0.00000  Uiso   1.00
H657   H     0.84788   0.40365   0.57487   0.00000  Uiso   1.00
H658   H     0.65212   0.09635   0.42513   0.00000  Uiso   1.00
H659   H     0.65212   0.09635   0.57487   0.00000  Uiso   1.00
H660   H     0.84788   0.40365   0.42513   0.00000  Uiso   1.00
H661   H     0.50788   0.13823   0.42676   0.00000  Uiso   1.00
H662   H     0.53795   0.15405   0.37583   0.00000  Uiso   1.00
H663   H     0.99644   0.11235   0.37318   0.00000  Uiso   1.00
H664   H     0.59739   0.34686   0.57492   0.00000  Uiso   1.00
H665   H     0.96205   0.34595   0.62417   0.00000  Uiso   1.00
H666   H     0.99212   0.36177   0.57324   0.00000  Uiso   1.00
H667   H     0.50357   0.38765   0.62682   0.00000  Uiso   1.00
H668   H     0.99212   0.36177   0.42676   0.00000  Uiso   1.00
H669   H     0.96205   0.34595   0.37583   0.00000  Uiso   1.00
H670   H     0.50357   0.38765   0.37318   0.00000  Uiso   1.00
H671   H     0.50788   0.13823   0.57324   0.00000  Uiso   1.00
H672   H     0.99643   0.11235   0.62682   0.00000  Uiso   1.00
H673   H     0.53795   0.15405   0.62417   0.00000  Uiso   1.00
H674   H     0.75788   0.38823   0.42676   0.00000  Uiso   1.00
H675   H     0.59739   0.34686   0.42508   0.00000  Uiso   1.00
H676   H     0.78795   0.40405   0.37583   0.00000  Uiso   1.00
H677   H     0.74644   0.36235   0.37318   0.00000  Uiso   1.00
H678   H     0.71205   0.09595   0.62417   0.00000  Uiso   1.00
H679   H     0.74212   0.11177   0.57324   0.00000  Uiso   1.00
H680   H     0.75357   0.13765   0.62682   0.00000  Uiso   1.00
H681   H     0.74212   0.11177   0.42676   0.00000  Uiso   1.00
H682   H     0.71205   0.09595   0.37583   0.00000  Uiso   1.00
H683   H     0.75357   0.13765   0.37318   0.00000  Uiso   1.00
H684   H     0.75788   0.38823   0.57324   0.00000  Uiso   1.00
H685   H     0.74643   0.36235   0.62682   0.00000  Uiso   1.00
H686   H     0.90261   0.15314   0.57492   0.00000  Uiso   1.00
H687   H     0.78795   0.40405   0.62417   0.00000  Uiso   1.00
H688   H     0.59788   0.15365   0.57487   0.00000  Uiso   1.00
H689   H     0.90212   0.34635   0.42513   0.00000  Uiso   1.00
H690   H     0.90212   0.34635   0.57487   0.00000  Uiso   1.00
H691   H     0.59788   0.15365   0.42513   0.00000  Uiso   1.00
H692   H     0.65261   0.40314   0.42508   0.00000  Uiso   1.00
N693   N     0.50000   0.25000   0.61736   0.00000  Uiso   1.00
N694   N     0.50000   0.25000   0.38264   0.00000  Uiso   1.00
N695   N     0.75000  -0.00000   0.61736   0.00000  Uiso   1.00
N696   N     0.75000  -0.00000   0.38264   0.00000  Uiso   1.00
O697   O     0.54509   0.20491   0.53958   0.00000  Uiso   1.00
O698   O     0.70492   0.04509   0.46042   0.00000  Uiso   1.00
O699   O     0.70492   0.04509   0.53958   0.00000  Uiso   1.00
O700   O     0.79509   0.45491   0.46042   0.00000  Uiso   1.00
O701   O     0.70492   0.45491   0.46042   0.00000  Uiso   1.00
O702   O     0.79509   0.04509   0.53958   0.00000  Uiso   1.00
O703   O     0.79509   0.04509   0.46042   0.00000  Uiso   1.00
O704   O     0.70492   0.45491   0.53958   0.00000  Uiso   1.00
O705   O     0.97280   0.17583   0.38071   0.00000  Uiso   1.00
O706   O     0.52720   0.32417   0.61929   0.00000  Uiso   1.00
O707   O     0.52720   0.32417   0.38071   0.00000  Uiso   1.00
O708   O     0.95492   0.29509   0.46042   0.00000  Uiso   1.00
O709   O     0.97280   0.17583   0.61929   0.00000  Uiso   1.00
O710   O     0.72280   0.42583   0.38071   0.00000  Uiso   1.00
O711   O     0.77720   0.07417   0.61929   0.00000  Uiso   1.00
O712   O     0.77720   0.07417   0.38071   0.00000  Uiso   1.00
O713   O     0.72280   0.42583   0.61929   0.00000  Uiso   1.00
O714   O     0.95492   0.29509   0.53958   0.00000  Uiso   1.00
O715   O     0.54509   0.20491   0.46042   0.00000  Uiso   1.00
O716   O     0.95492   0.20491   0.46042   0.00000  Uiso   1.00
O717   O     0.54509   0.29509   0.53958   0.00000  Uiso   1.00
O718   O     0.54509   0.29509   0.46042   0.00000  Uiso   1.00
O719   O     0.95492   0.20491   0.53958   0.00000  Uiso   1.00
O720   O     0.79509   0.45491   0.53958   0.00000  Uiso   1.00
C721   C     0.05957   0.69079   0.50000   0.00000  Uiso   1.00
C722   C     0.01123   0.78735   0.64199   0.00000  Uiso   1.00
C723   C     0.01123   0.78735   0.35801   0.00000  Uiso   1.00
C724   C     0.48877   0.71265   0.64199   0.00000  Uiso   1.00
C725   C     0.23877   0.96265   0.35801   0.00000  Uiso   1.00
C726   C     0.26123   0.53735   0.64199   0.00000  Uiso   1.00
C727   C     0.26123   0.53735   0.35801   0.00000  Uiso   1.00
C728   C     0.23877   0.96265   0.64199   0.00000  Uiso   1.00
C729   C     0.39088   0.64104   0.45798   0.00000  Uiso   1.00
C730   C     0.10912   0.85896   0.54202   0.00000  Uiso   1.00
C731   C     0.10912   0.85896   0.45798   0.00000  Uiso   1.00
C732   C     0.44043   0.80921   0.50000   0.00000  Uiso   1.00
C733   C     0.39088   0.64104   0.54202   0.00000  Uiso   1.00
C734   C     0.10932   0.64125   0.54200   0.00000  Uiso   1.00
C735   C     0.39068   0.85875   0.45800   0.00000  Uiso   1.00
C736   C     0.39068   0.85875   0.54200   0.00000  Uiso   1.00
C737   C     0.10932   0.64125   0.45800   0.00000  Uiso   1.00
C738   C     0.14088   0.89104   0.45798   0.00000  Uiso   1.00
C739   C     0.35912   0.60896   0.54202   0.00000  Uiso   1.00
C740   C     0.35912   0.60896   0.45798   0.00000  Uiso   1.00
C741   C     0.14088   0.89104   0.54202   0.00000  Uiso   1.00
C742   C     0.35932   0.89125   0.54200   0.00000  Uiso   1.00
C743   C     0.44060   0.69060   0.50000   0.00000  Uiso   1.00
C744   C     0.14068   0.60875   0.45800   0.00000  Uiso   1.00
C745   C     0.14068   0.60875   0.54200   0.00000  Uiso   1.00
C746   C     0.35932   0.89125   0.45800   0.00000  Uiso   1.00
C747   C     0.09297   0.84284   0.50000   0.00000  Uiso   1.00
C748   C     0.40703   0.65716   0.50000   0.00000  Uiso   1.00
C749   C     0.40677   0.84256   0.50000   0.00000  Uiso   1.00
C750   C     0.09323   0.65743   0.50000   0.00000  Uiso   1.00
C751   C     0.34297   0.59284   0.50000   0.00000  Uiso   1.00
C752   C     0.15703   0.90716   0.50000   0.00000  Uiso   1.00
C753   C     0.15677   0.59256   0.50000   0.00000  Uiso   1.00
C754   C     0.05940   0.80940   0.50000   0.00000  Uiso   1.00
C755   C     0.34323   0.90743   0.50000   0.00000  Uiso   1.00
C756   C     0.00565   0.64448   0.38904   0.00000  Uiso   1.00
C757   C     0.49435   0.85552   0.61096   0.00000  Uiso   1.00
C758   C     0.49436   0.85552   0.38904   0.00000  Uiso   1.00
C759   C     0.00564   0.64448   0.61096   0.00000  Uiso   1.00
C760   C     0.25565   0.89448   0.38904   0.00000  Uiso   1.00
C761   C     0.24435   0.60552   0.61096   0.00000  Uiso   1.00
C762   C     0.24436   0.60552   0.38904   0.00000  Uiso   1.00
C763   C     0.25564   0.89448   0.61096   0.00000  Uiso   1.00
C764   C     0.30957   0.94079   0.50000   0.00000  Uiso   1.00
C765   C     0.19043   0.55921   0.50000   0.00000  Uiso   1.00
C766   C     0.19060   0.94060   0.50000   0.00000  Uiso   1.00
C767   C     0.30940   0.55940   0.50000   0.00000  Uiso   1.00
C768   C     0.48877   0.71265   0.35801   0.00000  Uiso   1.00
Cu769  Cu    0.00000   0.75000   0.54689   0.00000  Uiso   1.00
Cu770  Cu    0.00000   0.75000   0.45311   0.00000  Uiso   1.00
Cu771  Cu    0.25000   0.50000   0.54689   0.00000  Uiso   1.00
Cu772  Cu    0.25000   0.50000   0.45311   0.00000  Uiso   1.00
H773   H     0.40261   0.65314   0.42508   0.00000  Uiso   1.00
H774   H     0.34739   0.59686   0.57492   0.00000  Uiso   1.00
H775   H     0.34739   0.59686   0.42508   0.00000  Uiso   1.00
H776   H     0.15261   0.90314   0.57492   0.00000  Uiso   1.00
H777   H     0.34788   0.90365   0.57487   0.00000  Uiso   1.00
H778   H     0.15212   0.59635   0.42513   0.00000  Uiso   1.00
H779   H     0.15212   0.59635   0.57487   0.00000  Uiso   1.00
H780   H     0.34788   0.90365   0.42513   0.00000  Uiso   1.00
H781   H     0.00788   0.63823   0.42676   0.00000  Uiso   1.00
H782   H     0.03795   0.65405   0.37583   0.00000  Uiso   1.00
H783   H     0.49644   0.61235   0.37318   0.00000  Uiso   1.00
H784   H     0.09739   0.84686   0.57492   0.00000  Uiso   1.00
H785   H     0.46205   0.84595   0.62417   0.00000  Uiso   1.00
H786   H     0.49212   0.86177   0.57324   0.00000  Uiso   1.00
H787   H     0.00357   0.88765   0.62682   0.00000  Uiso   1.00
H788   H     0.49212   0.86177   0.42676   0.00000  Uiso   1.00
H789   H     0.46205   0.84595   0.37583   0.00000  Uiso   1.00
H790   H     0.00357   0.88765   0.37318   0.00000  Uiso   1.00
H791   H     0.00788   0.63823   0.57324   0.00000  Uiso   1.00
H792   H     0.49643   0.61235   0.62682   0.00000  Uiso   1.00
H793   H     0.03795   0.65405   0.62417   0.00000  Uiso   1.00
H794   H     0.25788   0.88823   0.42676   0.00000  Uiso   1.00
H795   H     0.09739   0.84686   0.42508   0.00000  Uiso   1.00
H796   H     0.28795   0.90405   0.37583   0.00000  Uiso   1.00
H797   H     0.24644   0.86235   0.37318   0.00000  Uiso   1.00
H798   H     0.21205   0.59595   0.62417   0.00000  Uiso   1.00
H799   H     0.24212   0.61177   0.57324   0.00000  Uiso   1.00
H800   H     0.25357   0.63765   0.62682   0.00000  Uiso   1.00
H801   H     0.24212   0.61177   0.42676   0.00000  Uiso   1.00
H802   H     0.21205   0.59595   0.37583   0.00000  Uiso   1.00
H803   H     0.25357   0.63765   0.37318   0.00000  Uiso   1.00
H804   H     0.25788   0.88823   0.57324   0.00000  Uiso   1.00
H805   H     0.24643   0.86235   0.62682   0.00000  Uiso   1.00
H806   H     0.40261   0.65314   0.57492   0.00000  Uiso   1.00
H807   H     0.28795   0.90405   0.62417   0.00000  Uiso   1.00
H808   H     0.09788   0.65365   0.57487   0.00000  Uiso   1.00
H809   H     0.40212   0.84635   0.42513   0.00000  Uiso   1.00
H810   H     0.40212   0.84635   0.57487   0.00000  Uiso   1.00
H811   H     0.09788   0.65365   0.42513   0.00000  Uiso   1.00
H812   H     0.15261   0.90314   0.42508   0.00000  Uiso   1.00
N813   N     0.00000   0.75000   0.61736   0.00000  Uiso   1.00
N814   N     0.00000   0.75000   0.38264   0.00000  Uiso   1.00
N815   N     0.25000   0.50000   0.61736   0.00000  Uiso   1.00
N816   N     0.25000   0.50000   0.38264   0.00000  Uiso   1.00
O817   O     0.04509   0.70491   0.53958   0.00000  Uiso   1.00
O818   O     0.20492   0.54509   0.46042   0.00000  Uiso   1.00
O819   O     0.20492   0.54509   0.53958   0.00000  Uiso   1.00
O820   O     0.29509   0.95491   0.46042   0.00000  Uiso   1.00
O821   O     0.20492   0.95491   0.46042   0.00000  Uiso   1.00
O822   O     0.29509   0.54509   0.53958   0.00000  Uiso   1.00
O823   O     0.29509   0.54509   0.46042   0.00000  Uiso   1.00
O824   O     0.20492   0.95491   0.53958   0.00000  Uiso   1.00
O825   O     0.47280   0.67583   0.38071   0.00000  Uiso   1.00
O826   O     0.02720   0.82417   0.61929   0.00000  Uiso   1.00
O827   O     0.02720   0.82417   0.38071   0.00000  Uiso   1.00
O828   O     0.45492   0.79509   0.46042   0.00000  Uiso   1.00
O829   O     0.47280   0.67583   0.61929   0.00000  Uiso   1.00
O830   O     0.22280   0.92583   0.38071   0.00000  Uiso   1.00
O831   O     0.27720   0.57417   0.61929   0.00000  Uiso   1.00
O832   O     0.27720   0.57417   0.38071   0.00000  Uiso   1.00
O833   O     0.22280   0.92583   0.61929   0.00000  Uiso   1.00
O834   O     0.45492   0.79509   0.53958   0.00000  Uiso   1.00
O835   O     0.04509   0.70491   0.46042   0.00000  Uiso   1.00
O836   O     0.45492   0.70491   0.46042   0.00000  Uiso   1.00
O837   O     0.04509   0.79509   0.53958   0.00000  Uiso   1.00
O838   O     0.04509   0.79509   0.46042   0.00000  Uiso   1.00
O839   O     0.45492   0.70491   0.53958   0.00000  Uiso   1.00
O840   O     0.29509   0.95491   0.53958   0.00000  Uiso   1.00
C841   C     0.55957   0.69079   0.50000   0.00000  Uiso   1.00
C842   C     0.51123   0.78735   0.64199   0.00000  Uiso   1.00
C843   C     0.51123   0.78735   0.35801   0.00000  Uiso   1.00
C844   C     0.98877   0.71265   0.64199   0.00000  Uiso   1.00
C845   C     0.73877   0.96265   0.35801   0.00000  Uiso   1.00
C846   C     0.76123   0.53735   0.64199   0.00000  Uiso   1.00
C847   C     0.76123   0.53735   0.35801   0.00000  Uiso   1.00
C848   C     0.73877   0.96265   0.64199   0.00000  Uiso   1.00
C849   C     0.89088   0.64104   0.45798   0.00000  Uiso   1.00
C850   C     0.60912   0.85896   0.54202   0.00000  Uiso   1.00
C851   C     0.60912   0.85896   0.45798   0.00000  Uiso   1.00
C852   C     0.94043   0.80921   0.50000   0.00000  Uiso   1.00
C853   C     0.89088   0.64104   0.54202   0.00000  Uiso   1.00
C854   C     0.60932   0.64125   0.54200   0.00000  Uiso   1.00
C855   C     0.89068   0.85875   0.45800   0.00000  Uiso   1.00
C856   C     0.89068   0.85875   0.54200   0.00000  Uiso   1.00
C857   C     0.60932   0.64125   0.45800   0.00000  Uiso   1.00
C858   C     0.64088   0.89104   0.45798   0.00000  Uiso   1.00
C859   C     0.85912   0.60896   0.54202   0.00000  Uiso   1.00
C860   C     0.85912   0.60896   0.45798   0.00000  Uiso   1.00
C861   C     0.64088   0.89104   0.54202   0.00000  Uiso   1.00
C862   C     0.85932   0.89125   0.54200   0.00000  Uiso   1.00
C863   C     0.94060   0.69060   0.50000   0.00000  Uiso   1.00
C864   C     0.64068   0.60875   0.45800   0.00000  Uiso   1.00
C865   C     0.64068   0.60875   0.54200   0.00000  Uiso   1.00
C866   C     0.85932   0.89125   0.45800   0.00000  Uiso   1.00
C867   C     0.59297   0.84284   0.50000   0.00000  Uiso   1.00
C868   C     0.90703   0.65716   0.50000   0.00000  Uiso   1.00
C869   C     0.90677   0.84256   0.50000   0.00000  Uiso   1.00
C870   C     0.59323   0.65743   0.50000   0.00000  Uiso   1.00
C871   C     0.84297   0.59284   0.50000   0.00000  Uiso   1.00
C872   C     0.65703   0.90716   0.50000   0.00000  Uiso   1.00
C873   C     0.65677   0.59256   0.50000   0.00000  Uiso   1.00
C874   C     0.55940   0.80940   0.50000   0.00000  Uiso   1.00
C875   C     0.84323   0.90743   0.50000   0.00000  Uiso   1.00
C876   C     0.50565   0.64448   0.38904   0.00000  Uiso   1.00
C877   C     0.99435   0.85552   0.61096   0.00000  Uiso   1.00
C878   C     0.99436   0.85552   0.38904   0.00000  Uiso   1.00
C879   C     0.50564   0.64448   0.61096   0.00000  Uiso   1.00
C880   C     0.75565   0.89448   0.38904   0.00000  Uiso   1.00
C881   C     0.74435   0.60552   0.61096   0.00000  Uiso   1.00
C882   C     0.74436   0.60552   0.38904   0.00000  Uiso   1.00
C883   C     0.75564   0.89448   0.61096   0.00000  Uiso   1.00
C884   C     0.80957   0.94079   0.50000   0.00000  Uiso   1.00
C885   C     0.69043   0.55921   0.50000   0.00000  Uiso   1.00
C886   C     0.69060   0.94060   0.50000   0.00000  Uiso   1.00
C887   C     0.80940   0.55940   0.50000   0.00000  Uiso   1.00
C888   C     0.98877   0.71265   0.35801   0.00000  Uiso   1.00
Cu889  Cu    0.50000   0.75000   0.54689   0.00000  Uiso   1.00
Cu890  Cu    0.50000   0.75000   0.45311   0.00000  Uiso   1.00
Cu891  Cu    0.75000   0.50000   0.54689   0.00000  Uiso   1.00
Cu892  Cu    0.75000   0.50000   0.45311   0.00000  Uiso   1.00
H893   H     0.90261   0.65314   0.42508   0.00000  Uiso   1.00
H894   H     0.84739   0.59686   0.57492   0.00000  Uiso   1.00
H895   H     0.84739   0.59686   0.42508   0.00000  Uiso   1.00
H896   H     0.65261   0.90314   0.57492   0.00000  Uiso   1.00
H897   H     0.84788   0.90365   0.57487   0.00000  Uiso   1.00
H898   H     0.65212   0.59635   0.42513   0.00000  Uiso   1.00
H899   H     0.65212   0.59635   0.57487   0.00000  Uiso   1.00
H900   H     0.84788   0.90365   0.42513   0.00000  Uiso   1.00
H901   H     0.50788   0.63823   0.42676   0.00000  Uiso   1.00
H902   H     0.53795   0.65405   0.37583   0.00000  Uiso   1.00
H903   H     0.99644   0.61235   0.37318   0.00000  Uiso   1.00
H904   H     0.59739   0.84686   0.57492   0.00000  Uiso   1.00
H905   H     0.96205   0.84595   0.62417   0.00000  Uiso   1.00
H906   H     0.99212   0.86177   0.57324   0.00000  Uiso   1.00
H907   H     0.50357   0.88765   0.62682   0.00000  Uiso   1.00
H908   H     0.99212   0.86177   0.42676   0.00000  Uiso   1.00
H909   H     0.96205   0.84595   0.37583   0.00000  Uiso   1.00
H910   H     0.50357   0.88765   0.37318   0.00000  Uiso   1.00
H911   H     0.50788   0.63823   0.57324   0.00000  Uiso   1.00
H912   H     0.99643   0.61235   0.62682   0.00000  Uiso   1.00
H913   H     0.53795   0.65405   0.62417   0.00000  Uiso   1.00
H914   H     0.75788   0.88823   0.42676   0.00000  Uiso   1.00
H915   H     0.59739   0.84686   0.42508   0.00000  Uiso   1.00
H916   H     0.78795   0.90405   0.37583   0.00000  Uiso   1.00
H917   H     0.74644   0.86235   0.37318   0.00000  Uiso   1.00
H918   H     0.71205   0.59595   0.62417   0.00000  Uiso   1.00
H919   H     0.74212   0.61177   0.57324   0.00000  Uiso   1.00
H920   H     0.75357   0.63765   0.62682   0.00000  Uiso   1.00
H921   H     0.74212   0.61177   0.42676   0.00000  Uiso   1.00
H922   H     0.71205   0.59595   0.37583   0.00000  Uiso   1.00
H923   H     0.75357   0.63765   0.37318   0.00000  Uiso   1.00
H924   H     0.75788   0.88823   0.57324   0.00000  Uiso   1.00
H925   H     0.74643   0.86235   0.62682   0.00000  Uiso   1.00
H926   H     0.90261   0.65314   0.57492   0.00000  Uiso   1.00
H927   H     0.78795   0.90405   0.62417   0.00000  Uiso   1.00
H928   H     0.59788   0.65365   0.57487   0.00000  Uiso   1.00
H929   H     0.90212   0.84635   0.42513   0.00000  Uiso   1.00
H930   H     0.90212   0.84635   0.57487   0.00000  Uiso   1.00
H931   H     0.59788   0.65365   0.42513   0.00000  Uiso   1.00
H932   H     0.65261   0.90314   0.42508   0.00000  Uiso   1.00
N933   N     0.50000   0.75000   0.61736   0.00000  Uiso   1.00
N934   N     0.50000   0.75000   0.38264   0.00000  Uiso   1.00
N935   N     0.75000   0.50000   0.61736   0.00000  Uiso   1.00
N936   N     0.75000   0.50000   0.38264   0.00000  Uiso   1.00
O937   O     0.54509   0.70491   0.53958   0.00000  Uiso   1.00
O938   O     0.70492   0.54509   0.46042   0.00000  Uiso   1.00
O939   O     0.70492   0.54509   0.53958   0.00000  Uiso   1.00
O940   O     0.79509   0.95491   0.46042   0.00000  Uiso   1.00
O941   O     0.70492   0.95491   0.46042   0.00000  Uiso   1.00
O942   O     0.79509   0.54509   0.53958   0.00000  Uiso   1.00
O943   O     0.79509   0.54509   0.46042   0.00000  Uiso   1.00
O944   O     0.70492   0.95491   0.53958   0.00000  Uiso   1.00
O945   O     0.97280   0.67583   0.38071   0.00000  Uiso   1.00
O946   O     0.52720   0.82417   0.61929   0.00000  Uiso   1.00
O947   O     0.52720   0.82417   0.38071   0.00000  Uiso   1.00
O948   O     0.95492   0.79509   0.46042   0.00000  Uiso   1.00
O949   O     0.97280   0.67583   0.61929   0.00000  Uiso   1.00
O950   O     0.72280   0.92583   0.38071   0.00000  Uiso   1.00
O951   O     0.77720   0.57417   0.61929   0.00000  Uiso   1.00
O952   O     0.77720   0.57417   0.38071   0.00000  Uiso   1.00
O953   O     0.72280   0.92583   0.61929   0.00000  Uiso   1.00
O954   O     0.95492   0.79509   0.53958   0.00000  Uiso   1.00
O955   O     0.54509   0.70491   0.46042   0.00000  Uiso   1.00
O956   O     0.95492   0.70491   0.46042   0.00000  Uiso   1.00
O957   O     0.54509   0.79509   0.53958   0.00000  Uiso   1.00
O958   O     0.54509   0.79509   0.46042   0.00000  Uiso   1.00
O959   O     0.95492   0.70491   0.53958   0.00000  Uiso   1.00
O960   O     0.79509   0.95491   0.53958   0.00000  Uiso   1.00
C961   C     0.05957   0.19079   0.83333   0.00000  Uiso   1.00
C962   C     0.01123   0.28735   0.97533   0.00000  Uiso   1.00
C963   C     0.01123   0.28735   0.69134   0.00000  Uiso   1.00
C964   C     0.48877   0.21265   0.97533   0.00000  Uiso   1.00
C965   C     0.23877   0.46265   0.69134   0.00000  Uiso   1.00
C966   C     0.26123   0.03735   0.97533   0.00000  Uiso   1.00
C967   C     0.26123   0.03735   0.69134   0.00000  Uiso   1.00
C968   C     0.23877   0.46265   0.97533   0.00000  Uiso   1.00
C969   C     0.39088   0.14104   0.79132   0.00000  Uiso   1.00
C970   C     0.10912   0.35896   0.87535   0.00000  Uiso   1.00
C971   C     0.10912   0.35896   0.79132   0.00000  Uiso   1.00
C972   C     0.44043   0.30921   0.83333   0.00000  Uiso   1.00
C973   C     0.39088   0.14104   0.87535   0.00000  Uiso   1.00
C974   C     0.10932   0.14125   0.87533   0.00000  Uiso   1.00
C975   C     0.39068   0.35875   0.79134   0.00000  Uiso   1.00
C976   C     0.39068   0.35875   0.87533   0.00000  Uiso   1.00
C977   C     0.10932   0.14125   0.79134   0.00000  Uiso   1.00
C978   C     0.14088   0.39104   0.79132   0.00000  Uiso   1.00
C979   C     0.35912   0.10896   0.87535   0.00000  Uiso   1.00
C980   C     0.35912   0.10896   0.79132   0.00000  Uiso   1.00
C981   C     0.14088   0.39104   0.87535   0.00000  Uiso   1.00
C982   C     0.35932   0.39125   0.87533   0.00000  Uiso   1.00
C983   C     0.44060   0.19060   0.83333   0.00000  Uiso   1.00
C984   C     0.14068   0.10875   0.79134   0.00000  Uiso   1.00
C985   C     0.14068   0.10875   0.87533   0.00000  Uiso   1.00
C986   C     0.35932   0.39125   0.79134   0.00000  Uiso   1.00
C987   C     0.09297   0.34284   0.83333   0.00000  Uiso   1.00
C988   C     0.40703   0.15716   0.83333   0.00000  Uiso   1.00
C989   C     0.40677   0.34256   0.83333   0.00000  Uiso   1.00
C990   C     0.09323   0.15743   0.83333   0.00000  Uiso   1.00
C991   C     0.34297   0.09284   0.83333   0.00000  Uiso   1.00
C992   C     0.15703   0.40716   0.83333   0.00000  Uiso   1.00
C993   C     0.15677   0.09256   0.83333   0.00000  Uiso   1.00
C994   C     0.05940   0.30940   0.83333   0.00000  Uiso   1.00
C995   C     0.34323   0.40743   0.83333   0.00000  Uiso   1.00
C996   C     0.00565   0.14448   0.72237   0.00000  Uiso   1.00
C997   C     0.49435   0.35552   0.94429   0.00000  Uiso   1.00
C998   C     0.49436   0.35552   0.72237   0.00000  Uiso   1.00
C999   C     0.00564   0.14448   0.94429   0.00000  Uiso   1.00
C1000  C     0.25565   0.39448   0.72237   0.00000  Uiso   1.00
C1001  C     0.24435   0.10552   0.94429   0.00000  Uiso   1.00
C1002  C     0.24436   0.10552   0.72237   0.00000  Uiso   1.00
C1003  C     0.25564   0.39448   0.94429   0.00000  Uiso   1.00
C1004  C     0.30957   0.44079   0.83333   0.00000  Uiso   1.00
C1005  C     0.19043   0.05921   0.83333   0.00000  Uiso   1.00
C1006  C     0.19060   0.44060   0.83333   0.00000  Uiso   1.00
C1007  C     0.30940   0.05940   0.83333   0.00000  Uiso   1.00
C1008  C     0.48877   0.21265   0.69134   0.00000  Uiso   1.00
Cu1009 Cu    0.00000   0.25000   0.88022   0.00000  Uiso   1.00
Cu1010 Cu    0.00000   0.25000   0.78645   0.00000  Uiso   1.00
Cu1011 Cu    0.25000  -0.00000   0.88022   0.00000  Uiso   1.00
Cu1012 Cu    0.25000  -0.00000   0.78645   0.00000  Uiso   1.00
H1013  H     0.40261   0.15314   0.75842   0.00000  Uiso   1.00
H1014  H     0.34739   0.09686   0.90825   0.00000  Uiso   1.00
H1015  H     0.34739   0.09686   0.75842   0.00000  Uiso   1.00
H1016  H     0.15261   0.40314   0.90825   0.00000  Uiso   1.00
H1017  H     0.34788   0.40365   0.90820   0.00000  Uiso   1.00
H1018  H     0.15212   0.09635   0.75847   0.00000  Uiso   1.00
H1019  H     0.15212   0.09635   0.90820   0.00000  Uiso   1.00
H1020  H     0.34788   0.40365   0.75847   0.00000  Uiso   1.00
H1021  H     0.00788   0.13823   0.76009   0.00000  Uiso   1.00
H1022  H     0.03795   0.15405   0.70917   0.00000  Uiso   1.00
H1023  H     0.49644   0.11235   0.70651   0.00000  Uiso   1.00
H1024  H     0.09739   0.34686   0.90825   0.00000  Uiso   1.00
H1025  H     0.46205   0.34595   0.95750   0.00000  Uiso   1.00
H1026  H     0.49212   0.36177   0.90657   0.00000  Uiso   1.00
H1027  H     0.00357   0.38765   0.96015   0.00000  Uiso   1.00
H1028  H     0.49212   0.36177   0.76009   0.00000  Uiso   1.00
H1029  H     0.46205   0.34595   0.70916   0.00000  Uiso   1.00
H1030  H     0.00357   0.38765   0.70651   0.00000  Uiso   1.00
H1031  H     0.00788   0.13823   0.90657   0.00000  Uiso   1.00
H1032  H     0.49643   0.11235   0.96015   0.00000  Uiso   1.00
H1033  H     0.03795   0.15405   0.95750   0.00000  Uiso   1.00
H1034  H     0.25788   0.38823   0.76009   0.00000  Uiso   1.00
H1035  H     0.09739   0.34686   0.75842   0.00000  Uiso   1.00
H1036  H     0.28795   0.40405   0.70917   0.00000  Uiso   1.00
H1037  H     0.24644   0.36235   0.70651   0.00000  Uiso   1.00
H1038  H     0.21205   0.09595   0.95750   0.00000  Uiso   1.00
H1039  H     0.24212   0.11177   0.90657   0.00000  Uiso   1.00
H1040  H     0.25357   0.13765   0.96015   0.00000  Uiso   1.00
H1041  H     0.24212   0.11177   0.76009   0.00000  Uiso   1.00
H1042  H     0.21205   0.09595   0.70916   0.00000  Uiso   1.00
H1043  H     0.25357   0.13765   0.70651   0.00000  Uiso   1.00
H1044  H     0.25788   0.38823   0.90657   0.00000  Uiso   1.00
H1045  H     0.24643   0.36235   0.96015   0.00000  Uiso   1.00
H1046  H     0.40261   0.15314   0.90825   0.00000  Uiso   1.00
H1047  H     0.28795   0.40405   0.95750   0.00000  Uiso   1.00
H1048  H     0.09788   0.15365   0.90820   0.00000  Uiso   1.00
H1049  H     0.40212   0.34635   0.75847   0.00000  Uiso   1.00
H1050  H     0.40212   0.34635   0.90820   0.00000  Uiso   1.00
H1051  H     0.09788   0.15365   0.75847   0.00000  Uiso   1.00
H1052  H     0.15261   0.40314   0.75842   0.00000  Uiso   1.00
N1053  N     0.00000   0.25000   0.95069   0.00000  Uiso   1.00
N1054  N     0.00000   0.25000   0.71598   0.00000  Uiso   1.00
N1055  N     0.25000  -0.00000   0.95069   0.00000  Uiso   1.00
N1056  N     0.25000  -0.00000   0.71598   0.00000  Uiso   1.00
O1057  O     0.04509   0.20491   0.87291   0.00000  Uiso   1.00
O1058  O     0.20492   0.04509   0.79375   0.00000  Uiso   1.00
O1059  O     0.20492   0.04509   0.87291   0.00000  Uiso   1.00
O1060  O     0.29509   0.45491   0.79375   0.00000  Uiso   1.00
O1061  O     0.20492   0.45491   0.79375   0.00000  Uiso   1.00
O1062  O     0.29509   0.04509   0.87291   0.00000  Uiso   1.00
O1063  O     0.29509   0.04509   0.79375   0.00000  Uiso   1.00
O1064  O     0.20492   0.45491   0.87291   0.00000  Uiso   1.00
O1065  O     0.47280   0.17583   0.71404   0.00000  Uiso   1.00
O1066  O     0.02720   0.32417   0.95262   0.00000  Uiso   1.00
O1067  O     0.02720   0.32417   0.71404   0.00000  Uiso   1.00
O1068  O     0.45492   0.29509   0.79375   0.00000  Uiso   1.00
O1069  O     0.47280   0.17583   0.95262   0.00000  Uiso   1.00
O1070  O     0.22280   0.42583   0.71404   0.00000  Uiso   1.00
O1071  O     0.27720   0.07417   0.95262   0.00000  Uiso   1.00
O1072  O     0.27720   0.07417   0.71404   0.00000  Uiso   1.00
O1073  O     0.22280   0.42583   0.95262   0.00000  Uiso   1.00
O1074  O     0.45492   0.29509   0.87291   0.00000  Uiso   1.00
O1075  O     0.04509   0.20491   0.79375   0.00000  Uiso   1.00
O1076  O     0.45492   0.20491   0.79375   0.00000  Uiso   1.00
O1077  O     0.04509   0.29509   0.87291   0.00000  Uiso   1.00
O1078  O     0.04509   0.29509   0.79375   0.00000  Uiso   1.00
O1079  O     0.45492   0.20491   0.87291   0.00000  Uiso   1.00
O1080  O     0.29509   0.45491   0.87291   0.00000  Uiso   1.00
C1081  C     0.55957   0.19079   0.83333   0.00000  Uiso   1.00
C1082  C     0.51123   0.28735   0.97533   0.00000  Uiso   1.00
C1083  C     0.51123   0.28735   0.69134   0.00000  Uiso   1.00
C1084  C     0.98877   0.21265   0.97533   0.00000  Uiso   1.00
C1085  C     0.73877   0.46265   0.69134   0.00000  Uiso   1.00
C1086  C     0.76123   0.03735   0.97533   0.00000  Uiso   1.00
C1087  C     0.76123   0.03735   0.69134   0.00000  Uiso   1.00
C1088  C     0.73877   0.46265   0.97533   0.00000  Uiso   1.00
C1089  C     0.89088   0.14104   0.79132   0.00000  Uiso   1.00
C1090  C     0.60912   0.35896   0.87535   0.00000  Uiso   1.00
C1091  C     0.60912   0.35896   0.79132   0.00000  Uiso   1.00
C1092  C     0.94043   0.30921   0.83333   0.00000  Uiso   1.00
C1093  C     0.89088   0.14104   0.87535   0.00000  Uiso   1.00
C1094  C     0.60932   0.14125   0.87533   0.00000  Uiso   1.00
C1095  C     0.89068   0.35875   0.79134   0.00000  Uiso   1.00
C1096  C     0.89068   0.35875   0.87533   0.00000  Uiso   1.00
C1097  C     0.60932   0.14125   0.79134   0.00000  Uiso   1.00
C1098  C     0.64088   0.39104   0.79132   0.00000  Uiso   1.00
C1099  C     0.85912   0.10896   0.87535   0.00000  Uiso   1.00
C1100  C     0.85912   0.10896   0.79132   0.00000  Uiso   1.00
C1101  C     0.64088   0.39104   0.87535   0.00000  Uiso   1.00
C1102  C     0.85932   0.39125   0.87533   0.00000  Uiso   1.00
C1103  C     0.94060   0.19060   0.83333   0.00000  Uiso   1.00
C1104  C     0.64068   0.10875   0.79134   0.00000  Uiso   1.00
C1105  C     0.64068   0.10875   0.87533   0.00000  Uiso   1.00
C1106  C     0.85932   0.39125   0.79134   0.00000  Uiso   1.00
C1107  C     0.59297   0.34284   0.83333   0.00000  Uiso   1.00
C1108  C     0.90703   0.15716   0.83333   0.00000  Uiso   1.00
C1109  C     0.90677   0.34256   0.83333   0.00000  Uiso   1.00
C1110  C     0.59323   0.15743   0.83333   0.00000  Uiso   1.00
C1111  C     0.84297   0.09284   0.83333   0.00000  Uiso   1.00
C1112  C     0.65703   0.40716   0.83333   0.00000  Uiso   1.00
C1113  C     0.65677   0.09256   0.83333   0.00000  Uiso   1.00
C1114  C     0.55940   0.30940   0.83333   0.00000  Uiso   1.00
C1115  C     0.84323   0.40743   0.83333   0.00000  Uiso   1.00
C1116  C     0.50565   0.14448   0.72237   0.00000  Uiso   1.00
C1117  C     0.99435   0.35552   0.94429   0.00000  Uiso   1.00
C1118  C     0.99436   0.35552   0.72237   0.00000  Uiso   1.00
C1119  C     0.50564   0.14448   0.94429   0.00000  Uiso   1.00
C1120  C     0.75565   0.39448   0.72237   0.00000  Uiso   1.00
C1121  C     0.74435   0.10552   0.94429   0.00000  Uiso   1.00
C1122  C     0.74436   0.10552   0.72237   0.00000  Uiso   1.00
C1123  C     0.75564   0.39448   0.94429   0.00000  Uiso   1.00
C1124  C     0.80957   0.44079   0.83333   0.00000  Uiso   1.00
C1125  C     0.69043   0.05921   0.83333   0.00000  Uiso   1.00
C1126  C     0.69060   0.44060   0.83333   0.00000  Uiso   1.00
C1127  C     0.80940   0.05940   0.83333   0.00000  Uiso   1.00
C1128  C     0.98877   0.21265   0.69134   0.00000  Uiso   1.00
Cu1129 Cu    0.50000   0.25000   0.88022   0.00000  Uiso   1.00
Cu1130 Cu    0.50000   0.25000   0.78645   0.00000  Uiso   1.00
Cu1131 Cu    0.75000  -0.00000   0.88022   0.00000  Uiso   1.00
Cu1132 Cu    0.75000  -0.00000   0.78645   0.00000  Uiso   1.00
H1133  H     0.90261   0.15314   0.75842   0.00000  Uiso   1.00
H1134  H     0.84739   0.09686   0.90825   0.00000  Uiso   1.00
H1135  H     0.84739   0.09686   0.75842   0.00000  Uiso   1.00
H1136  H     0.65261   0.40314   0.90825   0.00000  Uiso   1.00
H1137  H     0.84788   0.40365   0.90820   0.00000  Uiso   1.00
H1138  H     0.65212   0.09635   0.75847   0.00000  Uiso   1.00
H1139  H     0.65212   0.09635   0.90820   0.00000  Uiso   1.00
H1140  H     0.84788   0.40365   0.75847   0.00000  Uiso   1.00
H1141  H     0.50788   0.13823   0.76009   0.00000  Uiso   1.00
H1142  H     0.53795   0.15405   0.70917   0.00000  Uiso   1.00
H1143  H     0.99644   0.11235   0.70651   0.00000  Uiso   1.00
H1144  H     0.59739   0.34686   0.90825   0.00000  Uiso   1.00
H1145  H     0.96205   0.34595   0.95750   0.00000  Uiso   1.00
H1146  H     0.99212   0.36177   0.90657   0.00000  Uiso   1.00
H1147  H     0.50357   0.38765   0.96015   0.00000  Uiso   1.00
H1148  H     0.99212   0.36177   0.76009   0.00000  Uiso   1.00
H1149  H     0.96205   0.34595   0.70916   0.00000  Uiso   1.00
H1150  H     0.50357   0.38765   0.70651   0.00000  Uiso   1.00
H1151  H     0.50788   0.13823   0.90657   0.00000  Uiso   1.00
H1152  H     0.99643   0.11235   0.96015   0.00000  Uiso   1.00
H1153  H     0.53795   0.15405   0.95750   0.00000  Uiso   1.00
H1154  H     0.75788   0.38823   0.76009   0.00000  Uiso   1.00
H1155  H     0.59739   0.34686   0.75842   0.00000  Uiso   1.00
H1156  H     0.78795   0.40405   0.70917   0.00000  Uiso   1.00
H1157  H     0.74644   0.36235   0.70651   0.00000  Uiso   1.00
H1158  H     0.71205   0.09595   0.95750   0.00000  Uiso   1.00
H1159  H     0.74212   0.11177   0.90657   0.00000  Uiso   1.00
H1160  H     0.75357   0.13765   0.96015   0.00000  Uiso   1.00
H1161  H     0.74212   0.11177   0.76009   0.00000  Uiso   1.00
H1162  H     0.71205   0.09595   0.70916   0.00000  Uiso   1.00
H1163  H     0.75357   0.13765   0.70651   0.00000  Uiso   1.00
H1164  H     0.75788   0.38823   0.90657   0.00000  Uiso   1.00
H1165  H     0.74643   0.36235   0.96015   0.00000  Uiso   1.00
H1166  H     0.90261   0.15314   0.90825   0.00000  Uiso   1.00
H1167  H     0.78795   0.40405   0.95750   0.00000  Uiso   1.00
H1168  H     0.59788   0.15365   0.90820   0.00000  Uiso   1.00
H1169  H     0.90212   0.34635   0.75847   0.00000  Uiso   1.00
H1170  H     0.90212   0.34635   0.90820   0.00000  Uiso   1.00
H1171  H     0.59788   0.15365   0.75847   0.00000  Uiso   1.00
H1172  H     0.65261   0.40314   0.75842   0.00000  Uiso   1.00
N1173  N     0.50000   0.25000   0.95069   0.00000  Uiso   1.00
N1174  N     0.50000   0.25000   0.71598   0.00000  Uiso   1.00
N1175  N     0.75000  -0.00000   0.95069   0.00000  Uiso   1.00
N1176  N     0.75000  -0.00000   0.71598   0.00000  Uiso   1.00
O1177  O     0.54509   0.20491   0.87291   0.00000  Uiso   1.00
O1178  O     0.70492   0.04509   0.79375   0.00000  Uiso   1.00
O1179  O     0.70492   0.04509   0.87291   0.00000  Uiso   1.00
O1180  O     0.79509   0.45491   0.79375   0.00000  Uiso   1.00
O1181  O     0.70492   0.45491   0.79375   0.00000  Uiso   1.00
O1182  O     0.79509   0.04509   0.87291   0.00000  Uiso   1.00
O1183  O     0.79509   0.04509   0.79375   0.00000  Uiso   1.00
O1184  O     0.70492   0.45491   0.87291   0.00000  Uiso   1.00
O1185  O     0.97280   0.17583   0.71404   0.00000  Uiso   1.00
O1186  O     0.52720   0.32417   0.95262   0.00000  Uiso   1.00
O1187  O     0.52720   0.32417   0.71404   0.00000  Uiso   1.00
O1188  O     0.95492   0.29509   0.79375   0.00000  Uiso   1.00
O1189  O     0.97280   0.17583   0.95262   0.00000  Uiso   1.00
O1190  O     0.72280   0.42583   0.71404   0.00000  Uiso   1.00
O1191  O     0.77720   0.07417   0.95262   0.00000  Uiso   1.00
O1192  O     0.77720   0.07417   0.71404   0.00000  Uiso   1.00
O1193  O     0.72280   0.42583   0.95262   0.00000  Uiso   1.00
O1194  O     0.95492   0.29509   0.87291   0.00000  Uiso   1.00
O1195  O     0.54509   0.20491   0.79375   0.00000  Uiso   1.00
O1196  O     0.95492   0.20491   0.79375   0.00000  Uiso   1.00
O1197  O     0.54509   0.29509   0.87291   0.00000  Uiso   1.00
O1198  O     0.54509   0.29509   0.79375   0.00000  Uiso   1.00
O1199  O     0.95492   0.20491   0.87291   0.00000  Uiso   1.00
O1200  O     0.79509   0.45491   0.87291   0.00000  Uiso   1.00
C1201  C     0.05957   0.69079   0.83333   0.00000  Uiso   1.00
C1202  C     0.01123   0.78735   0.97533   0.00000  Uiso   1.00
C1203  C     0.01123   0.78735   0.69134   0.00000  Uiso   1.00
C1204  C     0.48877   0.71265   0.97533   0.00000  Uiso   1.00
C1205  C     0.23877   0.96265   0.69134   0.00000  Uiso   1.00
C1206  C     0.26123   0.53735   0.97533   0.00000  Uiso   1.00
C1207  C     0.26123   0.53735   0.69134   0.00000  Uiso   1.00
C1208  C     0.23877   0.96265   0.97533   0.00000  Uiso   1.00
C1209  C     0.39088   0.64104   0.79132   0.00000  Uiso   1.00
C1210  C     0.10912   0.85896   0.87535   0.00000  Uiso   1.00
C1211  C     0.10912   0.85896   0.79132   0.00000  Uiso   1.00
C1212  C     0.44043   0.80921   0.83333   0.00000  Uiso   1.00
C1213  C     0.39088   0.64104   0.87535   0.00000  Uiso   1.00
C1214  C     0.10932   0.64125   0.87533   0.00000  Uiso   1.00
C1215  C     0.39068   0.85875   0.79134   0.00000  Uiso   1.00
C1216  C     0.39068   0.85875   0.87533   0.00000  Uiso   1.00
C1217  C     0.10932   0.64125   0.79134   0.00000  Uiso   1.00
C1218  C     0.14088   0.89104   0.79132   0.00000  Uiso   1.00
C1219  C     0.35912   0.60896   0.87535   0.00000  Uiso   1.00
C1220  C     0.35912   0.60896   0.79132   0.00000  Uiso   1.00
C1221  C     0.14088   0.89104   0.87535   0.00000  Uiso   1.00
C1222  C     0.35932   0.89125   0.87533   0.00000  Uiso   1.00
C1223  C     0.44060   0.69060   0.83333   0.00000  Uiso   1.00
C1224  C     0.14068   0.60875   0.79134   0.00000  Uiso   1.00
C1225  C     0.14068   0.60875   0.87533   0.00000  Uiso   1.00
C1226  C     0.35932   0.89125   0.79134   0.00000  Uiso   1.00
C1227  C     0.09297   0.84284   0.83333   0.00000  Uiso   1.00
C1228  C     0.40703   0.65716   0.83333   0.00000  Uiso   1.00
C1229  C     0.40677   0.84256   0.83333   0.00000  Uiso   1.00
C1230  C     0.09323   0.65743   0.83333   0.00000  Uiso   1.00
C1231  C     0.34297   0.59284   0.83333   0.00000  Uiso   1.00
C1232  C     0.15703   0.90716   0.83333   0.00000  Uiso   1.00
C1233  C     0.15677   0.59256   0.83333   0.00000  Uiso   1.00
C1234  C     0.05940   0.80940   0.83333   0.00000  Uiso   1.00
C1235  C     0.34323   0.90743   0.83333   0.00000  Uiso   1.00
C1236  C     0.00565   0.64448   0.72237   0.00000  Uiso   1.00
C1237  C     0.49435   0.85552   0.94429   0.00000  Uiso   1.00
C1238  C     0.49436   0.85552   0.72237   0.00000  Uiso   1.00
C1239  C     0.00564   0.64448   0.94429   0.00000  Uiso   1.00
C1240  C     0.25565   0.89448   0.72237   0.00000  Uiso   1.00
C1241  C     0.24435   0.60552   0.94429   0.00000  Uiso   1.00
C1242  C     0.24436   0.60552   0.72237   0.00000  Uiso   1.00
C1243  C     0.25564   0.89448   0.94429   0.00000  Uiso   1.00
C1244  C     0.30957   0.94079   0.83333   0.00000  Uiso   1.00
C1245  C     0.19043   0.55921   0.83333   0.00000  Uiso   1.00
C1246  C     0.19060   0.94060   0.83333   0.00000  Uiso   1.00
C1247  C     0.30940   0.55940   0.83333   0.00000  Uiso   1.00
C1248  C     0.48877   0.71265   0.69134   0.00000  Uiso   1.00
Cu1249 Cu    0.00000   0.75000   0.88022   0.00000  Uiso   1.00
Cu1250 Cu    0.00000   0.75000   0.78645   0.00000  Uiso   1.00
Cu1251 Cu    0.25000   0.50000   0.88022   0.00000  Uiso   1.00
Cu1252 Cu    0.25000   0.50000   0.78645   0.00000  Uiso   1.00
H1253  H     0.40261   0.65314   0.75842   0.00000  Uiso   1.00
H1254  H     0.34739   0.59686   0.90825   0.00000  Uiso   1.00
H1255  H     0.34739   0.59686   0.75842   0.00000  Uiso   1.00
H1256  H     0.15261   0.90314   0.90825   0.00000  Uiso   1.00
H1257  H     0.34788   0.90365   0.90820   0.00000  Uiso   1.00
H1258  H     0.15212   0.59635   0.75847   0.00000  Uiso   1.00
H1259  H     0.15212   0.59635   0.90820   0.00000  Uiso   1.00
H1260  H     0.34788   0.90365   0.75847   0.00000  Uiso   1.00
H1261  H     0.00788   0.63823   0.76009   0.00000  Uiso   1.00
H1262  H     0.03795   0.65405   0.70917   0.00000  Uiso   1.00
H1263  H     0.49644   0.61235   0.70651   0.00000  Uiso   1.00
H1264  H     0.09739   0.84686   0.90825   0.00000  Uiso   1.00
H1265  H     0.46205   0.84595   0.95750   0.00000  Uiso   1.00
H1266  H     0.49212   0.86177   0.90657   0.00000  Uiso   1.00
H1267  H     0.00357   0.88765   0.96015   0.00000  Uiso   1.00
H1268  H     0.49212   0.86177   0.76009   0.00000  Uiso   1.00
H1269  H     0.46205   0.84595   0.70916   0.00000  Uiso   1.00
H1270  H     0.00357   0.88765   0.70651   0.00000  Uiso   1.00
H1271  H     0.00788   0.63823   0.90657   0.00000  Uiso   1.00
H1272  H     0.49643   0.61235   0.96015   0.00000  Uiso   1.00
H1273  H     0.03795   0.65405   0.95750   0.00000  Uiso   1.00
H1274  H     0.25788   0.88823   0.76009   0.00000  Uiso   1.00
H1275  H     0.09739   0.84686   0.75842   0.00000  Uiso   1.00
H1276  H     0.28795   0.90405   0.70917   0.00000  Uiso   1.00
H1277  H     0.24644   0.86235   0.70651   0.00000  Uiso   1.00
H1278  H     0.21205   0.59595   0.95750   0.00000  Uiso   1.00
H1279  H     0.24212   0.61177   0.90657   0.00000  Uiso   1.00
H1280  H     0.25357   0.63765   0.96015   0.00000  Uiso   1.00
H1281  H     0.24212   0.61177   0.76009   0.00000  Uiso   1.00
H1282  H     0.21205   0.59595   0.70916   0.00000  Uiso   1.00
H1283  H     0.25357   0.63765   0.70651   0.00000  Uiso   1.00
H1284  H     0.25788   0.88823   0.90657   0.00000  Uiso   1.00
H1285  H     0.24643   0.86235   0.96015   0.00000  Uiso   1.00
H1286  H     0.40261   0.65314   0.90825   0.00000  Uiso   1.00
H1287  H     0.28795   0.90405   0.95750   0.00000  Uiso   1.00
H1288  H     0.09788   0.65365   0.90820   0.00000  Uiso   1.00
H1289  H     0.40212   0.84635   0.75847   0.00000  Uiso   1.00
H1290  H     0.40212   0.84635   0.90820   0.00000  Uiso   1.00
H1291  H     0.09788   0.65365   0.75847   0.00000  Uiso   1.00
H1292  H     0.15261   0.90314   0.75842   0.00000  Uiso   1.00
N1293  N     0.00000   0.75000   0.95069   0.00000  Uiso   1.00
N1294  N     0.00000   0.75000   0.71598   0.00000  Uiso   1.00
N1295  N     0.25000   0.50000   0.95069   0.00000  Uiso   1.00
N1296  N     0.25000   0.50000   0.71598   0.00000  Uiso   1.00
O1297  O     0.04509   0.70491   0.87291   0.00000  Uiso   1.00
O1298  O     0.20492   0.54509   0.79375   0.00000  Uiso   1.00
O1299  O     0.20492   0.54509   0.87291   0.00000  Uiso   1.00
O1300  O     0.29509   0.95491   0.79375   0.00000  Uiso   1.00
O1301  O     0.20492   0.95491   0.79375   0.00000  Uiso   1.00
O1302  O     0.29509   0.54509   0.87291   0.00000  Uiso   1.00
O1303  O     0.29509   0.54509   0.79375   0.00000  Uiso   1.00
O1304  O     0.20492   0.95491   0.87291   0.00000  Uiso   1.00
O1305  O     0.47280   0.67583   0.71404   0.00000  Uiso   1.00
O1306  O     0.02720   0.82417   0.95262   0.00000  Uiso   1.00
O1307  O     0.02720   0.82417   0.71404   0.00000  Uiso   1.00
O1308  O     0.45492   0.79509   0.79375   0.00000  Uiso   1.00
O1309  O     0.47280   0.67583   0.95262   0.00000  Uiso   1.00
O1310  O     0.22280   0.92583   0.71404   0.00000  Uiso   1.00
O1311  O     0.27720   0.57417   0.95262   0.00000  Uiso   1.00
O1312  O     0.27720   0.57417   0.71404   0.00000  Uiso   1.00
O1313  O     0.22280   0.92583   0.95262   0.00000  Uiso   1.00
O1314  O     0.45492   0.79509   0.87291   0.00000  Uiso   1.00
O1315  O     0.04509   0.70491   0.79375   0.00000  Uiso   1.00
O1316  O     0.45492   0.70491   0.79375   0.00000  Uiso   1.00
O1317  O     0.04509   0.79509   0.87291   0.00000  Uiso   1.00
O1318  O     0.04509   0.79509   0.79375   0.00000  Uiso   1.00
O1319  O     0.45492   0.70491   0.87291   0.00000  Uiso   1.00
O1320  O     0.29509   0.95491   0.87291   0.00000  Uiso   1.00
C1321  C     0.55957   0.69079   0.83333   0.00000  Uiso   1.00
C1322  C     0.51123   0.78735   0.97533   0.00000  Uiso   1.00
C1323  C     0.51123   0.78735   0.69134   0.00000  Uiso   1.00
C1324  C     0.98877   0.71265   0.97533   0.00000  Uiso   1.00
C1325  C     0.73877   0.96265   0.69134   0.00000  Uiso   1.00
C1326  C     0.76123   0.53735   0.97533   0.00000  Uiso   1.00
C1327  C     0.76123   0.53735   0.69134   0.00000  Uiso   1.00
C1328  C     0.73877   0.96265   0.97533   0.00000  Uiso   1.00
C1329  C     0.89088   0.64104   0.79132   0.00000  Uiso   1.00
C1330  C     0.60912   0.85896   0.87535   0.00000  Uiso   1.00
C1331  C     0.60912   0.85896   0.79132   0.00000  Uiso   1.00
C1332  C     0.94043   0.80921   0.83333   0.00000  Uiso   1.00
C1333  C     0.89088   0.64104   0.87535   0.00000  Uiso   1.00
C1334  C     0.60932   0.64125   0.87533   0.00000  Uiso   1.00
C1335  C     0.89068   0.85875   0.79134   0.00000  Uiso   1.00
C1336  C     0.89068   0.85875   0.87533   0.00000  Uiso   1.00
C1337  C     0.60932   0.64125   0.79134   0.00000  Uiso   1.00
C1338  C     0.64088   0.89104   0.79132   0.00000  Uiso   1.00
C1339  C     0.85912   0.60896   0.87535   0.00000  Uiso   1.00
C1340  C     0.85912   0.60896   0.79132   0.00000  Uiso   1.00
C1341  C     0.64088   0.89104   0.87535   0.00000  Uiso   1.00
C1342  C     0.85932   0.89125   0.87533   0.00000  Uiso   1.00
C1343  C     0.94060   0.69060   0.83333   0.00000  Uiso   1.00
C1344  C     0.64068   0.60875   0.79134   0.00000  Uiso   1.00
C1345  C     0.64068   0.60875   0.87533   0.00000  Uiso   1.00
C1346  C     0.85932   0.89125   0.79134   0.00000  Uiso   1.00
C1347  C     0.59297   0.84284   0.83333   0.00000  Uiso   1.00
C1348  C     0.90703   0.65716   0.83333   0.00000  Uiso   1.00
C1349  C     0.90677   0.84256   0.83333   0.00000  Uiso   1.00
C1350  C     0.59323   0.65743   0.83333   0.00000  Uiso   1.00
C1351  C     0.84297   0.59284   0.83333   0.00000  Uiso   1.00
C1352  C     0.65703   0.90716   0.83333   0.00000  Uiso   1.00
C1353  C     0.65677   0.59256   0.83333   0.00000  Uiso   1.00
C1354  C     0.55940   0.80940   0.83333   0.00000  Uiso   1.00
C1355  C     0.84323   0.90743   0.83333   0.00000  Uiso   1.00
C1356  C     0.50565   0.64448   0.72237   0.00000  Uiso   1.00
C1357  C     0.99435   0.85552   0.94429   0.00000  Uiso   1.00
C1358  C     0.99436   0.85552   0.72237   0.00000  Uiso   1.00
C1359  C     0.50564   0.64448   0.94429   0.00000  Uiso   1.00
C1360  C     0.75565   0.89448   0.72237   0.00000  Uiso   1.00
C1361  C     0.74435   0.60552   0.94429   0.00000  Uiso   1.00
C1362  C     0.74436   0.60552   0.72237   0.00000  Uiso   1.00
C1363  C     0.75564   0.89448   0.94429   0.00000  Uiso   1.00
C1364  C     0.80957   0.94079   0.83333   0.00000  Uiso   1.00
C1365  C     0.69043   0.55921   0.83333   0.00000  Uiso   1.00
C1366  C     0.69060   0.94060   0.83333   0.00000  Uiso   1.00
C1367  C     0.80940   0.55940   0.83333   0.00000  Uiso   1.00
C1368  C     0.98877   0.71265   0.69134   0.00000  Uiso   1.00
Cu1369 Cu    0.50000   0.75000   0.88022   0.00000  Uiso   1.00
Cu1370 Cu    0.50000   0.75000   0.78645   0.00000  Uiso   1.00
Cu1371 Cu    0.75000   0.50000   0.88022   0.00000  Uiso   1.00
Cu1372 Cu    0.75000   0.50000   0.78645   0.00000  Uiso   1.00
H1373  H     0.90261   0.65314   0.75842   0.00000  Uiso   1.00
H1374  H     0.84739   0.59686   0.90825   0.00000  Uiso   1.00
H1375  H     0.84739   0.59686   0.75842   0.00000  Uiso   1.00
H1376  H     0.65261   0.90314   0.90825   0.00000  Uiso   1.00
H1377  H     0.84788   0.90365   0.90820   0.00000  Uiso   1.00
H1378  H     0.65212   0.59635   0.75847   0.00000  Uiso   1.00
H1379  H     0.65212   0.59635   0.90820   0.00000  Uiso   1.00
H1380  H     0.84788   0.90365   0.75847   0.00000  Uiso   1.00
H1381  H     0.50788   0.63823   0.76009   0.00000  Uiso   1.00
H1382  H     0.53795   0.65405   0.70917   0.00000  Uiso   1.00
H1383  H     0.99644   0.61235   0.70651   0.00000  Uiso   1.00
H1384  H     0.59739   0.84686   0.90825   0.00000  Uiso   1.00
H1385  H     0.96205   0.84595   0.95750   0.00000  Uiso   1.00
H1386  H     0.99212   0.86177   0.90657   0.00000  Uiso   1.00
H1387  H     0.50357   0.88765   0.96015   0.00000  Uiso   1.00
H1388  H     0.99212   0.86177   0.76009   0.00000  Uiso   1.00
H1389  H     0.96205   0.84595   0.70916   0.00000  Uiso   1.00
H1390  H     0.50357   0.88765   0.70651   0.00000  Uiso   1.00
H1391  H     0.50788   0.63823   0.90657   0.00000  Uiso   1.00
H1392  H     0.99643   0.61235   0.96015   0.00000  Uiso   1.00
H1393  H     0.53795   0.65405   0.95750   0.00000  Uiso   1.00
H1394  H     0.75788   0.88823   0.76009   0.00000  Uiso   1.00
H1395  H     0.59739   0.84686   0.75842   0.00000  Uiso   1.00
H1396  H     0.78795   0.90405   0.70917   0.00000  Uiso   1.00
H1397  H     0.74644   0.86235   0.70651   0.00000  Uiso   1.00
H1398  H     0.71205   0.59595   0.95750   0.00000  Uiso   1.00
H1399  H     0.74212   0.61177   0.90657   0.00000  Uiso   1.00
H1400  H     0.75357   0.63765   0.96015   0.00000  Uiso   1.00
H1401  H     0.74212   0.61177   0.76009   0.00000  Uiso   1.00
H1402  H     0.71205   0.59595   0.70916   0.00000  Uiso   1.00
H1403  H     0.75357   0.63765   0.70651   0.00000  Uiso   1.00
H1404  H     0.75788   0.88823   0.90657   0.00000  Uiso   1.00
H1405  H     0.74643   0.86235   0.96015   0.00000  Uiso   1.00
H1406  H     0.90261   0.65314   0.90825   0.00000  Uiso   1.00
H1407  H     0.78795   0.90405   0.95750   0.00000  Uiso   1.00
H1408  H     0.59788   0.65365   0.90820   0.00000  Uiso   1.00
H1409  H     0.90212   0.84635   0.75847   0.00000  Uiso   1.00
H1410  H     0.90212   0.84635   0.90820   0.00000  Uiso   1.00
H1411  H     0.59788   0.65365   0.75847   0.00000  Uiso   1.00
H1412  H     0.65261   0.90314   0.75842   0.00000  Uiso   1.00
N1413  N     0.50000   0.75000   0.95069   0.00000  Uiso   1.00
N1414  N     0.50000   0.75000   0.71598   0.00000  Uiso   1.00
N1415  N     0.75000   0.50000   0.95069   0.00000  Uiso   1.00
N1416  N     0.75000   0.50000   0.71598   0.00000  Uiso   1.00
O1417  O     0.54509   0.70491   0.87291   0.00000  Uiso   1.00
O1418  O     0.70492   0.54509   0.79375   0.00000  Uiso   1.00
O1419  O     0.70492   0.54509   0.87291   0.00000  Uiso   1.00
O1420  O     0.79509   0.95491   0.79375   0.00000  Uiso   1.00
O1421  O     0.70492   0.95491   0.79375   0.00000  Uiso   1.00
O1422  O     0.79509   0.54509   0.87291   0.00000  Uiso   1.00
O1423  O     0.79509   0.54509   0.79375   0.00000  Uiso   1.00
O1424  O     0.70492   0.95491   0.87291   0.00000  Uiso   1.00
O1425  O     0.97280   0.67583   0.71404   0.00000  Uiso   1.00
O1426  O     0.52720   0.82417   0.95262   0.00000  Uiso   1.00
O1427  O     0.52720   0.82417   0.71404   0.00000  Uiso   1.00
O1428  O     0.95492   0.79509   0.79375   0.00000  Uiso   1.00
O1429  O     0.97280   0.67583   0.95262   0.00000  Uiso   1.00
O1430  O     0.72280   0.92583   0.71404   0.00000  Uiso   1.00
O1431  O     0.77720   0.57417   0.95262   0.00000  Uiso   1.00
O1432  O     0.77720   0.57417   0.71404   0.00000  Uiso   1.00
O1433  O     0.72280   0.92583   0.95262   0.00000  Uiso   1.00
O1434  O     0.95492   0.79509   0.87291   0.00000  Uiso   1.00
O1435  O     0.54509   0.70491   0.79375   0.00000  Uiso   1.00
O1436  O     0.95492   0.70491   0.79375   0.00000  Uiso   1.00
O1437  O     0.54509   0.79509   0.87291   0.00000  Uiso   1.00
O1438  O     0.54509   0.79509   0.79375   0.00000  Uiso   1.00
O1439  O     0.95492   0.70491   0.87291   0.00000  Uiso   1.00
O1440  O     0.79509   0.95491   0.87291   0.00000  Uiso   1.00
loop_
_geom_bond_atom_site_label_1
_geom_bond_atom_site_label_2
_geom_bond_distance
_geom_bond_site_symmetry_2
_ccdc_geom_bond_type
C1     O97     1.301   .     A
C1     C30     1.452   .     S
C1     O115    1.301   .     A
C2     O106    1.380   .     S
C2     C483    1.426   .     S
C2     N93     1.375   .     S
C3     O107    1.380   .     S
C3     C962    1.426   1_554 S
C3     N94     1.375   .     S
C4     O109    1.380   .     S
C4     N213    1.375   .     A
C4     C528    1.426   .     S
C5     O110    1.380   .     S
C5     C968    1.426   1_554 S
C5     N336    1.375   .     S
C6     O111    1.380   .     S
C6     N95     1.375   .     A
C6     C487    1.426   .     S
C7     O112    1.380   .     S
C7     N96     1.375   .     A
C7     C966    1.426   1_554 S
C8     O113    1.380   .     S
C8     C485    1.426   .     S
C8     N335    1.375   .     S
C9     C20     1.383   .     A
C9     H53     1.082   .     S
C9     C28     1.401   .     A
C10    C27     1.401   .     A
C10    C21     1.383   .     A
C10    H64     1.082   .     S
C11    C18     1.383   .     A
C11    C27     1.401   .     A
C11    H75     1.082   .     S
C12    C29     1.452   .     S
C12    O114    1.301   .     A
C12    O108    1.301   .     A
C13    H86     1.082   .     S
C13    C28     1.401   .     A
C13    C19     1.383   .     A
C14    C30     1.400   .     A
C14    C25     1.383   .     A
C14    H88     1.081   .     S
C15    C29     1.400   .     A
C15    C26     1.383   .     A
C15    H89     1.081   .     S
C16    H90     1.081   .     S
C16    C22     1.383   .     A
C16    C29     1.400   .     A
C17    H91     1.081   .     S
C17    C30     1.400   .     A
C17    C24     1.383   .     A
C18    H92     1.082   .     S
C18    C32     1.401   .     A
C19    C31     1.401   .     A
C19    H54     1.082   .     S
C20    H55     1.082   .     S
C20    C31     1.401   .     A
C21    C32     1.401   .     A
C21    H56     1.082   .     S
C22    C35     1.400   .     A
C22    H57     1.081   .     S
C23    O119    1.301   .     A
C23    O116    1.301   .     A
C23    C28     1.452   .     S
C24    C33     1.400   .     A
C24    H58     1.081   .     S
C25    H59     1.081   .     S
C25    C33     1.400   .     A
C26    C35     1.400   .     A
C26    H60     1.081   .     S
C27    C34     1.452   .     S
C31    C47     1.452   .     S
C32    C46     1.452   .     S
C33    C45     1.452   .     S
C34    O118    1.301   .     A
C34    O117    1.301   .     A
C35    C44     1.452   .     S
C36    H62     1.115   .     S
C36    H61     1.108   .     S
C36    H183    1.108   1_455 S
C36    O225    1.413   1_455 S
C37    H65     1.115   .     S
C37    H66     1.108   .     S
C37    H187    1.108   .     S
C37    O226    1.413   .     S
C38    H69     1.115   .     S
C38    H68     1.108   .     S
C38    H190    1.108   .     S
C38    O227    1.413   .     S
C39    H73     1.115   .     S
C39    H71     1.108   .     S
C39    H192    1.108   1_455 S
C39    O229    1.413   1_455 S
C40    H74     1.108   .     S
C40    O110    1.413   .     S
C40    H76     1.115   .     S
C40    H77     1.108   .     S
C41    H80     1.108   .     S
C41    H78     1.115   .     S
C41    H79     1.108   .     S
C41    O111    1.413   .     S
C42    H81     1.108   .     S
C42    O112    1.413   .     S
C42    H82     1.115   .     S
C42    H83     1.108   .     S
C43    H84     1.108   .     S
C43    H85     1.108   .     S
C43    H87     1.115   .     S
C43    O113    1.413   .     S
C44    O120    1.301   .     A
C44    O100    1.301   .     A
C45    O98     1.301   .     A
C45    O99     1.301   .     A
C46    O101    1.301   .     A
C46    O104    1.301   .     A
C47    O102    1.301   .     A
C47    O103    1.301   .     A
C48    N214    1.375   .     A
C48    O105    1.380   .     S
C48    C964    1.426   1_554 S
Cu49   O234    1.965   1_455 S
Cu49   Cu50    2.709   .     S
Cu49   O239    1.965   1_455 S
Cu49   N93     2.036   .     S
Cu49   O97     1.965   .     S
Cu49   O117    1.965   .     S
Cu50   O228    1.965   1_455 S
Cu50   N94     2.036   .     S
Cu50   O236    1.965   1_455 S
Cu50   O115    1.965   .     S
Cu50   O118    1.965   .     S
Cu51   O102    1.965   .     S
Cu51   O99     1.965   .     S
Cu51   Cu52    2.709   .     S
Cu51   N95     2.036   .     S
Cu51   O344    1.965   1_545 S
Cu51   O360    1.965   1_545 S
Cu52   O103    1.965   .     S
Cu52   O98     1.965   .     S
Cu52   N96     2.036   .     S
Cu52   O340    1.965   1_545 S
Cu52   O341    1.965   1_545 S
H63    C156    1.108   .     S
H67    C157    1.108   1_455 S
H70    C158    1.108   1_455 S
H72    C159    1.108   .     S
N93    C124    1.375   1_455 A
N94    C168    1.375   1_455 A
N95    C248    1.375   1_545 S
N96    C245    1.375   1_545 S
O100   Cu292   1.965   .     S
O101   Cu292   1.965   .     S
O104   Cu291   1.965   .     S
O105   C156    1.413   .     S
O106   C157    1.413   1_455 S
O107   C158    1.413   1_455 S
O108   Cu170   1.965   .     S
O109   C159    1.413   .     S
O114   Cu169   1.965   .     S
O116   Cu170   1.965   .     S
O119   Cu169   1.965   .     S
O120   Cu291   1.965   .     S
C121   O217    1.301   .     A
C121   C150    1.452   .     S
C121   O235    1.301   .     A
C122   O226    1.380   .     S
C122   C603    1.426   .     S
C122   N213    1.375   .     S
C123   O227    1.380   .     S
C123   C1082   1.426   1_554 S
C123   N214    1.375   .     S
C124   O229    1.380   .     S
C124   N93     1.375   1_655 A
C124   C648    1.426   .     S
C125   O230    1.380   .     S
C125   C1088   1.426   1_554 S
C125   N456    1.375   .     S
C126   O231    1.380   .     S
C126   N215    1.375   .     A
C126   C607    1.426   .     S
C127   O232    1.380   .     S
C127   N216    1.375   .     A
C127   C1086   1.426   1_554 S
C128   O233    1.380   .     S
C128   C605    1.426   .     S
C128   N455    1.375   .     S
C129   C140    1.383   .     A
C129   H173    1.082   .     S
C129   C148    1.401   .     A
C130   C147    1.401   .     A
C130   C141    1.383   .     A
C130   H184    1.082   .     S
C131   C138    1.383   .     A
C131   C147    1.401   .     A
C131   H195    1.082   .     S
C132   C149    1.452   .     S
C132   O234    1.301   .     A
C132   O228    1.301   .     A
C133   H206    1.082   .     S
C133   C148    1.401   .     A
C133   C139    1.383   .     A
C134   C150    1.400   .     A
C134   C145    1.383   .     A
C134   H208    1.081   .     S
C135   C149    1.400   .     A
C135   C146    1.383   .     A
C135   H209    1.081   .     S
C136   H210    1.081   .     S
C136   C142    1.383   .     A
C136   C149    1.400   .     A
C137   H211    1.081   .     S
C137   C150    1.400   .     A
C137   C144    1.383   .     A
C138   H212    1.082   .     S
C138   C152    1.401   .     A
C139   C151    1.401   .     A
C139   H174    1.082   .     S
C140   H175    1.082   .     S
C140   C151    1.401   .     A
C141   C152    1.401   .     A
C141   H176    1.082   .     S
C142   C155    1.400   .     A
C142   H177    1.081   .     S
C143   O239    1.301   .     A
C143   O236    1.301   .     A
C143   C148    1.452   .     S
C144   C153    1.400   .     A
C144   H178    1.081   .     S
C145   H179    1.081   .     S
C145   C153    1.400   .     A
C146   C155    1.400   .     A
C146   H180    1.081   .     S
C147   C154    1.452   .     S
C151   C167    1.452   .     S
C152   C166    1.452   .     S
C153   C165    1.452   .     S
C154   O238    1.301   .     A
C154   O237    1.301   .     A
C155   C164    1.452   .     S
C156   H182    1.115   .     S
C156   H181    1.108   .     S
C157   H185    1.115   .     S
C157   H186    1.108   .     S
C157   H67     1.108   1_655 S
C157   O106    1.413   1_655 S
C158   H189    1.115   .     S
C158   H188    1.108   .     S
C158   H70     1.108   1_655 S
C158   O107    1.413   1_655 S
C159   H193    1.115   .     S
C159   H191    1.108   .     S
C160   H194    1.108   .     S
C160   O230    1.413   .     S
C160   H196    1.115   .     S
C160   H197    1.108   .     S
C161   H200    1.108   .     S
C161   H198    1.115   .     S
C161   H199    1.108   .     S
C161   O231    1.413   .     S
C162   H201    1.108   .     S
C162   O232    1.413   .     S
C162   H202    1.115   .     S
C162   H203    1.108   .     S
C163   H204    1.108   .     S
C163   H205    1.108   .     S
C163   H207    1.115   .     S
C163   O233    1.413   .     S
C164   O240    1.301   .     A
C164   O220    1.301   .     A
C165   O218    1.301   .     A
C165   O219    1.301   .     A
C166   O221    1.301   .     A
C166   O224    1.301   .     A
C167   O222    1.301   .     A
C167   O223    1.301   .     A
C168   N94     1.375   1_655 A
C168   O225    1.380   .     S
C168   C1084   1.426   1_554 S
Cu169  Cu170   2.709   .     S
Cu169  N213    2.036   .     S
Cu169  O217    1.965   .     S
Cu169  O237    1.965   .     S
Cu170  N214    2.036   .     S
Cu170  O235    1.965   .     S
Cu170  O238    1.965   .     S
Cu171  O222    1.965   .     S
Cu171  O219    1.965   .     S
Cu171  Cu172   2.709   .     S
Cu171  N215    2.036   .     S
Cu171  O464    1.965   1_545 S
Cu171  O480    1.965   1_545 S
Cu172  O223    1.965   .     S
Cu172  O218    1.965   .     S
Cu172  N216    2.036   .     S
Cu172  O460    1.965   1_545 S
Cu172  O461    1.965   1_545 S
H183   C36     1.108   1_655 S
H192   C39     1.108   1_655 S
N215   C368    1.375   1_545 S
N216   C365    1.375   1_545 S
O220   Cu412   1.965   .     S
O221   Cu412   1.965   .     S
O224   Cu411   1.965   .     S
O225   C36     1.413   1_655 S
O228   Cu50    1.965   1_655 S
O229   C39     1.413   1_655 S
O234   Cu49    1.965   1_655 S
O236   Cu50    1.965   1_655 S
O239   Cu49    1.965   1_655 S
O240   Cu411   1.965   .     S
C241   O337    1.301   .     A
C241   C270    1.452   .     S
C241   O355    1.301   .     A
C242   O346    1.380   .     S
C242   C723    1.426   .     S
C242   N333    1.375   .     S
C243   O347    1.380   .     S
C243   C1202   1.426   1_554 S
C243   N334    1.375   .     S
C244   O349    1.380   .     S
C244   N453    1.375   .     A
C244   C768    1.426   .     S
C245   O350    1.380   .     S
C245   C1208   1.426   1_554 S
C245   N96     1.375   1_565 S
C246   O351    1.380   .     S
C246   N335    1.375   .     A
C246   C727    1.426   .     S
C247   O352    1.380   .     S
C247   N336    1.375   .     A
C247   C1206   1.426   1_554 S
C248   O353    1.380   .     S
C248   C725    1.426   .     S
C248   N95     1.375   1_565 S
C249   C260    1.383   .     A
C249   H293    1.082   .     S
C249   C268    1.401   .     A
C250   C267    1.401   .     A
C250   C261    1.383   .     A
C250   H304    1.082   .     S
C251   C258    1.383   .     A
C251   C267    1.401   .     A
C251   H315    1.082   .     S
C252   C269    1.452   .     S
C252   O354    1.301   .     A
C252   O348    1.301   .     A
C253   H326    1.082   .     S
C253   C268    1.401   .     A
C253   C259    1.383   .     A
C254   C270    1.400   .     A
C254   C265    1.383   .     A
C254   H328    1.081   .     S
C255   C269    1.400   .     A
C255   C266    1.383   .     A
C255   H329    1.081   .     S
C256   H330    1.081   .     S
C256   C262    1.383   .     A
C256   C269    1.400   .     A
C257   H331    1.081   .     S
C257   C270    1.400   .     A
C257   C264    1.383   .     A
C258   H332    1.082   .     S
C258   C272    1.401   .     A
C259   C271    1.401   .     A
C259   H294    1.082   .     S
C260   H295    1.082   .     S
C260   C271    1.401   .     A
C261   C272    1.401   .     A
C261   H296    1.082   .     S
C262   C275    1.400   .     A
C262   H297    1.081   .     S
C263   O359    1.301   .     A
C263   O356    1.301   .     A
C263   C268    1.452   .     S
C264   C273    1.400   .     A
C264   H298    1.081   .     S
C265   H299    1.081   .     S
C265   C273    1.400   .     A
C266   C275    1.400   .     A
C266   H300    1.081   .     S
C267   C274    1.452   .     S
C271   C287    1.452   .     S
C272   C286    1.452   .     S
C273   C285    1.452   .     S
C274   O358    1.301   .     A
C274   O357    1.301   .     A
C275   C284    1.452   .     S
C276   H302    1.115   .     S
C276   H301    1.108   .     S
C276   H423    1.108   1_455 S
C276   O465    1.413   1_455 S
C277   H305    1.115   .     S
C277   H306    1.108   .     S
C277   H427    1.108   .     S
C277   O466    1.413   .     S
C278   H309    1.115   .     S
C278   H308    1.108   .     S
C278   H430    1.108   .     S
C278   O467    1.413   .     S
C279   H313    1.115   .     S
C279   H311    1.108   .     S
C279   H432    1.108   1_455 S
C279   O469    1.413   1_455 S
C280   H314    1.108   .     S
C280   O350    1.413   .     S
C280   H316    1.115   .     S
C280   H317    1.108   .     S
C281   H320    1.108   .     S
C281   H318    1.115   .     S
C281   H319    1.108   .     S
C281   O351    1.413   .     S
C282   H321    1.108   .     S
C282   O352    1.413   .     S
C282   H322    1.115   .     S
C282   H323    1.108   .     S
C283   H324    1.108   .     S
C283   H325    1.108   .     S
C283   H327    1.115   .     S
C283   O353    1.413   .     S
C284   O360    1.301   .     A
C284   O340    1.301   .     A
C285   O338    1.301   .     A
C285   O339    1.301   .     A
C286   O341    1.301   .     A
C286   O344    1.301   .     A
C287   O342    1.301   .     A
C287   O343    1.301   .     A
C288   N454    1.375   .     A
C288   O345    1.380   .     S
C288   C1204   1.426   1_554 S
Cu289  O474    1.965   1_455 S
Cu289  Cu290   2.709   .     S
Cu289  O479    1.965   1_455 S
Cu289  N333    2.036   .     S
Cu289  O337    1.965   .     S
Cu289  O357    1.965   .     S
Cu290  O468    1.965   1_455 S
Cu290  N334    2.036   .     S
Cu290  O476    1.965   1_455 S
Cu290  O355    1.965   .     S
Cu290  O358    1.965   .     S
Cu291  O342    1.965   .     S
Cu291  O339    1.965   .     S
Cu291  Cu292   2.709   .     S
Cu291  N335    2.036   .     S
Cu292  O343    1.965   .     S
Cu292  O338    1.965   .     S
Cu292  N336    2.036   .     S
H303   C396    1.108   .     S
H307   C397    1.108   1_455 S
H310   C398    1.108   1_455 S
H312   C399    1.108   .     S
N333   C364    1.375   1_455 A
N334   C408    1.375   1_455 A
O340   Cu52    1.965   1_565 S
O341   Cu52    1.965   1_565 S
O344   Cu51    1.965   1_565 S
O345   C396    1.413   .     S
O346   C397    1.413   1_455 S
O347   C398    1.413   1_455 S
O348   Cu410   1.965   .     S
O349   C399    1.413   .     S
O354   Cu409   1.965   .     S
O356   Cu410   1.965   .     S
O359   Cu409   1.965   .     S
O360   Cu51    1.965   1_565 S
C361   O457    1.301   .     A
C361   C390    1.452   .     S
C361   O475    1.301   .     A
C362   O466    1.380   .     S
C362   C843    1.426   .     S
C362   N453    1.375   .     S
C363   O467    1.380   .     S
C363   C1322   1.426   1_554 S
C363   N454    1.375   .     S
C364   O469    1.380   .     S
C364   N333    1.375   1_655 A
C364   C888    1.426   .     S
C365   O470    1.380   .     S
C365   C1328   1.426   1_554 S
C365   N216    1.375   1_565 S
C366   O471    1.380   .     S
C366   N455    1.375   .     A
C366   C847    1.426   .     S
C367   O472    1.380   .     S
C367   N456    1.375   .     A
C367   C1326   1.426   1_554 S
C368   O473    1.380   .     S
C368   C845    1.426   .     S
C368   N215    1.375   1_565 S
C369   C380    1.383   .     A
C369   H413    1.082   .     S
C369   C388    1.401   .     A
C370   C387    1.401   .     A
C370   C381    1.383   .     A
C370   H424    1.082   .     S
C371   C378    1.383   .     A
C371   C387    1.401   .     A
C371   H435    1.082   .     S
C372   C389    1.452   .     S
C372   O474    1.301   .     A
C372   O468    1.301   .     A
C373   H446    1.082   .     S
C373   C388    1.401   .     A
C373   C379    1.383   .     A
C374   C390    1.400   .     A
C374   C385    1.383   .     A
C374   H448    1.081   .     S
C375   C389    1.400   .     A
C375   C386    1.383   .     A
C375   H449    1.081   .     S
C376   H450    1.081   .     S
C376   C382    1.383   .     A
C376   C389    1.400   .     A
C377   H451    1.081   .     S
C377   C390    1.400   .     A
C377   C384    1.383   .     A
C378   H452    1.082   .     S
C378   C392    1.401   .     A
C379   C391    1.401   .     A
C379   H414    1.082   .     S
C380   H415    1.082   .     S
C380   C391    1.401   .     A
C381   C392    1.401   .     A
C381   H416    1.082   .     S
C382   C395    1.400   .     A
C382   H417    1.081   .     S
C383   O479    1.301   .     A
C383   O476    1.301   .     A
C383   C388    1.452   .     S
C384   C393    1.400   .     A
C384   H418    1.081   .     S
C385   H419    1.081   .     S
C385   C393    1.400   .     A
C386   C395    1.400   .     A
C386   H420    1.081   .     S
C387   C394    1.452   .     S
C391   C407    1.452   .     S
C392   C406    1.452   .     S
C393   C405    1.452   .     S
C394   O478    1.301   .     A
C394   O477    1.301   .     A
C395   C404    1.452   .     S
C396   H422    1.115   .     S
C396   H421    1.108   .     S
C397   H425    1.115   .     S
C397   H426    1.108   .     S
C397   H307    1.108   1_655 S
C397   O346    1.413   1_655 S
C398   H429    1.115   .     S
C398   H428    1.108   .     S
C398   H310    1.108   1_655 S
C398   O347    1.413   1_655 S
C399   H433    1.115   .     S
C399   H431    1.108   .     S
C400   H434    1.108   .     S
C400   O470    1.413   .     S
C400   H436    1.115   .     S
C400   H437    1.108   .     S
C401   H440    1.108   .     S
C401   H438    1.115   .     S
C401   H439    1.108   .     S
C401   O471    1.413   .     S
C402   H441    1.108   .     S
C402   O472    1.413   .     S
C402   H442    1.115   .     S
C402   H443    1.108   .     S
C403   H444    1.108   .     S
C403   H445    1.108   .     S
C403   H447    1.115   .     S
C403   O473    1.413   .     S
C404   O480    1.301   .     A
C404   O460    1.301   .     A
C405   O458    1.301   .     A
C405   O459    1.301   .     A
C406   O461    1.301   .     A
C406   O464    1.301   .     A
C407   O462    1.301   .     A
C407   O463    1.301   .     A
C408   N334    1.375   1_655 A
C408   O465    1.380   .     S
C408   C1324   1.426   1_554 S
Cu409  Cu410   2.709   .     S
Cu409  N453    2.036   .     S
Cu409  O457    1.965   .     S
Cu409  O477    1.965   .     S
Cu410  N454    2.036   .     S
Cu410  O475    1.965   .     S
Cu410  O478    1.965   .     S
Cu411  O462    1.965   .     S
Cu411  O459    1.965   .     S
Cu411  Cu412   2.709   .     S
Cu411  N455    2.036   .     S
Cu412  O463    1.965   .     S
Cu412  O458    1.965   .     S
Cu412  N456    2.036   .     S
H423   C276    1.108   1_655 S
H432   C279    1.108   1_655 S
O460   Cu172   1.965   1_565 S
O461   Cu172   1.965   1_565 S
O464   Cu171   1.965   1_565 S
O465   C276    1.413   1_655 S
O468   Cu290   1.965   1_655 S
O469   C279    1.413   1_655 S
O474   Cu289   1.965   1_655 S
O476   Cu290   1.965   1_655 S
O479   Cu289   1.965   1_655 S
O480   Cu171   1.965   1_565 S
C481   O577    1.301   .     A
C481   C510    1.452   .     S
C481   O595    1.301   .     A
C482   O586    1.380   .     S
C482   C963    1.426   .     S
C482   N573    1.375   .     S
C483   O587    1.380   .     S
C483   N574    1.375   .     S
C484   O589    1.380   .     S
C484   N693    1.375   .     A
C484   C1008   1.426   .     S
C485   O590    1.380   .     S
C485   N816    1.375   .     S
C486   O591    1.380   .     S
C486   N575    1.375   .     A
C486   C967    1.426   .     S
C487   O592    1.380   .     S
C487   N576    1.375   .     A
C488   O593    1.380   .     S
C488   C965    1.426   .     S
C488   N815    1.375   .     S
C489   C500    1.383   .     A
C489   H533    1.082   .     S
C489   C508    1.401   .     A
C490   C507    1.401   .     A
C490   C501    1.383   .     A
C490   H544    1.082   .     S
C491   C498    1.383   .     A
C491   C507    1.401   .     A
C491   H555    1.082   .     S
C492   C509    1.452   .     S
C492   O594    1.301   .     A
C492   O588    1.301   .     A
C493   H566    1.082   .     S
C493   C508    1.401   .     A
C493   C499    1.383   .     A
C494   C510    1.400   .     A
C494   C505    1.383   .     A
C494   H568    1.081   .     S
C495   C509    1.400   .     A
C495   C506    1.383   .     A
C495   H569    1.081   .     S
C496   H570    1.081   .     S
C496   C502    1.383   .     A
C496   C509    1.400   .     A
C497   H571    1.081   .     S
C497   C510    1.400   .     A
C497   C504    1.383   .     A
C498   H572    1.082   .     S
C498   C512    1.401   .     A
C499   C511    1.401   .     A
C499   H534    1.082   .     S
C500   H535    1.082   .     S
C500   C511    1.401   .     A
C501   C512    1.401   .     A
C501   H536    1.082   .     S
C502   C515    1.400   .     A
C502   H537    1.081   .     S
C503   O599    1.301   .     A
C503   O596    1.301   .     A
C503   C508    1.452   .     S
C504   C513    1.400   .     A
C504   H538    1.081   .     S
C505   H539    1.081   .     S
C505   C513    1.400   .     A
C506   C515    1.400   .     A
C506   H540    1.081   .     S
C507   C514    1.452   .     S
C511   C527    1.452   .     S
C512   C526    1.452   .     S
C513   C525    1.452   .     S
C514   O598    1.301   .     A
C514   O597    1.301   .     A
C515   C524    1.452   .     S
C516   H542    1.115   .     S
C516   H541    1.108   .     S
C516   H663    1.108   1_455 S
C516   O705    1.413   1_455 S
C517   H545    1.115   .     S
C517   H546    1.108   .     S
C517   H667    1.108   .     S
C517   O706    1.413   .     S
C518   H549    1.115   .     S
C518   H548    1.108   .     S
C518   H670    1.108   .     S
C518   O707    1.413   .     S
C519   H553    1.115   .     S
C519   H551    1.108   .     S
C519   H672    1.108   1_455 S
C519   O709    1.413   1_455 S
C520   H554    1.108   .     S
C520   O590    1.413   .     S
C520   H556    1.115   .     S
C520   H557    1.108   .     S
C521   H560    1.108   .     S
C521   H558    1.115   .     S
C521   H559    1.108   .     S
C521   O591    1.413   .     S
C522   H561    1.108   .     S
C522   O592    1.413   .     S
C522   H562    1.115   .     S
C522   H563    1.108   .     S
C523   H564    1.108   .     S
C523   H565    1.108   .     S
C523   H567    1.115   .     S
C523   O593    1.413   .     S
C524   O600    1.301   .     A
C524   O580    1.301   .     A
C525   O578    1.301   .     A
C525   O579    1.301   .     A
C526   O581    1.301   .     A
C526   O584    1.301   .     A
C527   O582    1.301   .     A
C527   O583    1.301   .     A
C528   N694    1.375   .     A
C528   O585    1.380   .     S
Cu529  O714    1.965   1_455 S
Cu529  Cu530   2.709   .     S
Cu529  O719    1.965   1_455 S
Cu529  N573    2.036   .     S
Cu529  O577    1.965   .     S
Cu529  O597    1.965   .     S
Cu530  O708    1.965   1_455 S
Cu530  N574    2.036   .     S
Cu530  O716    1.965   1_455 S
Cu530  O595    1.965   .     S
Cu530  O598    1.965   .     S
Cu531  O582    1.965   .     S
Cu531  O579    1.965   .     S
Cu531  Cu532   2.709   .     S
Cu531  N575    2.036   .     S
Cu531  O824    1.965   1_545 S
Cu531  O840    1.965   1_545 S
Cu532  O583    1.965   .     S
Cu532  O578    1.965   .     S
Cu532  N576    2.036   .     S
Cu532  O820    1.965   1_545 S
Cu532  O821    1.965   1_545 S
H543   C636    1.108   .     S
H547   C637    1.108   1_455 S
H550   C638    1.108   1_455 S
H552   C639    1.108   .     S
N573   C604    1.375   1_455 A
N574   C648    1.375   1_455 A
N575   C728    1.375   1_545 S
N576   C725    1.375   1_545 S
O580   Cu772   1.965   .     S
O581   Cu772   1.965   .     S
O584   Cu771   1.965   .     S
O585   C636    1.413   .     S
O586   C637    1.413   1_455 S
O587   C638    1.413   1_455 S
O588   Cu650   1.965   .     S
O589   C639    1.413   .     S
O594   Cu649   1.965   .     S
O596   Cu650   1.965   .     S
O599   Cu649   1.965   .     S
O600   Cu771   1.965   .     S
C601   O697    1.301   .     A
C601   C630    1.452   .     S
C601   O715    1.301   .     A
C602   O706    1.380   .     S
C602   C1083   1.426   .     S
C602   N693    1.375   .     S
C603   O707    1.380   .     S
C603   N694    1.375   .     S
C604   O709    1.380   .     S
C604   N573    1.375   1_655 A
C604   C1128   1.426   .     S
C605   O710    1.380   .     S
C605   N936    1.375   .     S
C606   O711    1.380   .     S
C606   N695    1.375   .     A
C606   C1087   1.426   .     S
C607   O712    1.380   .     S
C607   N696    1.375   .     A
C608   O713    1.380   .     S
C608   C1085   1.426   .     S
C608   N935    1.375   .     S
C609   C620    1.383   .     A
C609   H653    1.082   .     S
C609   C628    1.401   .     A
C610   C627    1.401   .     A
C610   C621    1.383   .     A
C610   H664    1.082   .     S
C611   C618    1.383   .     A
C611   C627    1.401   .     A
C611   H675    1.082   .     S
C612   C629    1.452   .     S
C612   O714    1.301   .     A
C612   O708    1.301   .     A
C613   H686    1.082   .     S
C613   C628    1.401   .     A
C613   C619    1.383   .     A
C614   C630    1.400   .     A
C614   C625    1.383   .     A
C614   H688    1.081   .     S
C615   C629    1.400   .     A
C615   C626    1.383   .     A
C615   H689    1.081   .     S
C616   H690    1.081   .     S
C616   C622    1.383   .     A
C616   C629    1.400   .     A
C617   H691    1.081   .     S
C617   C630    1.400   .     A
C617   C624    1.383   .     A
C618   H692    1.082   .     S
C618   C632    1.401   .     A
C619   C631    1.401   .     A
C619   H654    1.082   .     S
C620   H655    1.082   .     S
C620   C631    1.401   .     A
C621   C632    1.401   .     A
C621   H656    1.082   .     S
C622   C635    1.400   .     A
C622   H657    1.081   .     S
C623   O719    1.301   .     A
C623   O716    1.301   .     A
C623   C628    1.452   .     S
C624   C633    1.400   .     A
C624   H658    1.081   .     S
C625   H659    1.081   .     S
C625   C633    1.400   .     A
C626   C635    1.400   .     A
C626   H660    1.081   .     S
C627   C634    1.452   .     S
C631   C647    1.452   .     S
C632   C646    1.452   .     S
C633   C645    1.452   .     S
C634   O718    1.301   .     A
C634   O717    1.301   .     A
C635   C644    1.452   .     S
C636   H662    1.115   .     S
C636   H661    1.108   .     S
C637   H665    1.115   .     S
C637   H666    1.108   .     S
C637   H547    1.108   1_655 S
C637   O586    1.413   1_655 S
C638   H669    1.115   .     S
C638   H668    1.108   .     S
C638   H550    1.108   1_655 S
C638   O587    1.413   1_655 S
C639   H673    1.115   .     S
C639   H671    1.108   .     S
C640   H674    1.108   .     S
C640   O710    1.413   .     S
C640   H676    1.115   .     S
C640   H677    1.108   .     S
C641   H680    1.108   .     S
C641   H678    1.115   .     S
C641   H679    1.108   .     S
C641   O711    1.413   .     S
C642   H681    1.108   .     S
C642   O712    1.413   .     S
C642   H682    1.115   .     S
C642   H683    1.108   .     S
C643   H684    1.108   .     S
C643   H685    1.108   .     S
C643   H687    1.115   .     S
C643   O713    1.413   .     S
C644   O720    1.301   .     A
C644   O700    1.301   .     A
C645   O698    1.301   .     A
C645   O699    1.301   .     A
C646   O701    1.301   .     A
C646   O704    1.301   .     A
C647   O702    1.301   .     A
C647   O703    1.301   .     A
C648   N574    1.375   1_655 A
C648   O705    1.380   .     S
Cu649  Cu650   2.709   .     S
Cu649  N693    2.036   .     S
Cu649  O697    1.965   .     S
Cu649  O717    1.965   .     S
Cu650  N694    2.036   .     S
Cu650  O715    1.965   .     S
Cu650  O718    1.965   .     S
Cu651  O702    1.965   .     S
Cu651  O699    1.965   .     S
Cu651  Cu652   2.709   .     S
Cu651  N695    2.036   .     S
Cu651  O944    1.965   1_545 S
Cu651  O960    1.965   1_545 S
Cu652  O703    1.965   .     S
Cu652  O698    1.965   .     S
Cu652  N696    2.036   .     S
Cu652  O940    1.965   1_545 S
Cu652  O941    1.965   1_545 S
H663   C516    1.108   1_655 S
H672   C519    1.108   1_655 S
N695   C848    1.375   1_545 S
N696   C845    1.375   1_545 S
O700   Cu892   1.965   .     S
O701   Cu892   1.965   .     S
O704   Cu891   1.965   .     S
O705   C516    1.413   1_655 S
O708   Cu530   1.965   1_655 S
O709   C519    1.413   1_655 S
O714   Cu529   1.965   1_655 S
O716   Cu530   1.965   1_655 S
O719   Cu529   1.965   1_655 S
O720   Cu891   1.965   .     S
C721   O817    1.301   .     A
C721   C750    1.452   .     S
C721   O835    1.301   .     A
C722   O826    1.380   .     S
C722   C1203   1.426   .     S
C722   N813    1.375   .     S
C723   O827    1.380   .     S
C723   N814    1.375   .     S
C724   O829    1.380   .     S
C724   N933    1.375   .     A
C724   C1248   1.426   .     S
C725   O830    1.380   .     S
C725   N576    1.375   1_565 S
C726   O831    1.380   .     S
C726   N815    1.375   .     A
C726   C1207   1.426   .     S
C727   O832    1.380   .     S
C727   N816    1.375   .     A
C728   O833    1.380   .     S
C728   C1205   1.426   .     S
C728   N575    1.375   1_565 S
C729   C740    1.383   .     A
C729   H773    1.082   .     S
C729   C748    1.401   .     A
C730   C747    1.401   .     A
C730   C741    1.383   .     A
C730   H784    1.082   .     S
C731   C738    1.383   .     A
C731   C747    1.401   .     A
C731   H795    1.082   .     S
C732   C749    1.452   .     S
C732   O834    1.301   .     A
C732   O828    1.301   .     A
C733   H806    1.082   .     S
C733   C748    1.401   .     A
C733   C739    1.383   .     A
C734   C750    1.400   .     A
C734   C745    1.383   .     A
C734   H808    1.081   .     S
C735   C749    1.400   .     A
C735   C746    1.383   .     A
C735   H809    1.081   .     S
C736   H810    1.081   .     S
C736   C742    1.383   .     A
C736   C749    1.400   .     A
C737   H811    1.081   .     S
C737   C750    1.400   .     A
C737   C744    1.383   .     A
C738   H812    1.082   .     S
C738   C752    1.401   .     A
C739   C751    1.401   .     A
C739   H774    1.082   .     S
C740   H775    1.082   .     S
C740   C751    1.401   .     A
C741   C752    1.401   .     A
C741   H776    1.082   .     S
C742   C755    1.400   .     A
C742   H777    1.081   .     S
C743   O839    1.301   .     A
C743   O836    1.301   .     A
C743   C748    1.452   .     S
C744   C753    1.400   .     A
C744   H778    1.081   .     S
C745   H779    1.081   .     S
C745   C753    1.400   .     A
C746   C755    1.400   .     A
C746   H780    1.081   .     S
C747   C754    1.452   .     S
C751   C767    1.452   .     S
C752   C766    1.452   .     S
C753   C765    1.452   .     S
C754   O838    1.301   .     A
C754   O837    1.301   .     A
C755   C764    1.452   .     S
C756   H782    1.115   .     S
C756   H781    1.108   .     S
C756   H903    1.108   1_455 S
C756   O945    1.413   1_455 S
C757   H785    1.115   .     S
C757   H786    1.108   .     S
C757   H907    1.108   .     S
C757   O946    1.413   .     S
C758   H789    1.115   .     S
C758   H788    1.108   .     S
C758   H910    1.108   .     S
C758   O947    1.413   .     S
C759   H793    1.115   .     S
C759   H791    1.108   .     S
C759   H912    1.108   1_455 S
C759   O949    1.413   1_455 S
C760   H794    1.108   .     S
C760   O830    1.413   .     S
C760   H796    1.115   .     S
C760   H797    1.108   .     S
C761   H800    1.108   .     S
C761   H798    1.115   .     S
C761   H799    1.108   .     S
C761   O831    1.413   .     S
C762   H801    1.108   .     S
C762   O832    1.413   .     S
C762   H802    1.115   .     S
C762   H803    1.108   .     S
C763   H804    1.108   .     S
C763   H805    1.108   .     S
C763   H807    1.115   .     S
C763   O833    1.413   .     S
C764   O840    1.301   .     A
C764   O820    1.301   .     A
C765   O818    1.301   .     A
C765   O819    1.301   .     A
C766   O821    1.301   .     A
C766   O824    1.301   .     A
C767   O822    1.301   .     A
C767   O823    1.301   .     A
C768   N934    1.375   .     A
C768   O825    1.380   .     S
Cu769  O954    1.965   1_455 S
Cu769  Cu770   2.709   .     S
Cu769  O959    1.965   1_455 S
Cu769  N813    2.036   .     S
Cu769  O817    1.965   .     S
Cu769  O837    1.965   .     S
Cu770  O948    1.965   1_455 S
Cu770  N814    2.036   .     S
Cu770  O956    1.965   1_455 S
Cu770  O835    1.965   .     S
Cu770  O838    1.965   .     S
Cu771  O822    1.965   .     S
Cu771  O819    1.965   .     S
Cu771  Cu772   2.709   .     S
Cu771  N815    2.036   .     S
Cu772  O823    1.965   .     S
Cu772  O818    1.965   .     S
Cu772  N816    2.036   .     S
H783   C876    1.108   .     S
H787   C877    1.108   1_455 S
H790   C878    1.108   1_455 S
H792   C879    1.108   .     S
N813   C844    1.375   1_455 A
N814   C888    1.375   1_455 A
O820   Cu532   1.965   1_565 S
O821   Cu532   1.965   1_565 S
O824   Cu531   1.965   1_565 S
O825   C876    1.413   .     S
O826   C877    1.413   1_455 S
O827   C878    1.413   1_455 S
O828   Cu890   1.965   .     S
O829   C879    1.413   .     S
O834   Cu889   1.965   .     S
O836   Cu890   1.965   .     S
O839   Cu889   1.965   .     S
O840   Cu531   1.965   1_565 S
C841   O937    1.301   .     A
C841   C870    1.452   .     S
C841   O955    1.301   .     A
C842   O946    1.380   .     S
C842   C1323   1.426   .     S
C842   N933    1.375   .     S
C843   O947    1.380   .     S
C843   N934    1.375   .     S
C844   O949    1.380   .     S
C844   N813    1.375   1_655 A
C844   C1368   1.426   .     S
C845   O950    1.380   .     S
C845   N696    1.375   1_565 S
C846   O951    1.380   .     S
C846   N935    1.375   .     A
C846   C1327   1.426   .     S
C847   O952    1.380   .     S
C847   N936    1.375   .     A
C848   O953    1.380   .     S
C848   C1325   1.426   .     S
C848   N695    1.375   1_565 S
C849   C860    1.383   .     A
C849   H893    1.082   .     S
C849   C868    1.401   .     A
C850   C867    1.401   .     A
C850   C861    1.383   .     A
C850   H904    1.082   .     S
C851   C858    1.383   .     A
C851   C867    1.401   .     A
C851   H915    1.082   .     S
C852   C869    1.452   .     S
C852   O954    1.301   .     A
C852   O948    1.301   .     A
C853   H926    1.082   .     S
C853   C868    1.401   .     A
C853   C859    1.383   .     A
C854   C870    1.400   .     A
C854   C865    1.383   .     A
C854   H928    1.081   .     S
C855   C869    1.400   .     A
C855   C866    1.383   .     A
C855   H929    1.081   .     S
C856   H930    1.081   .     S
C856   C862    1.383   .     A
C856   C869    1.400   .     A
C857   H931    1.081   .     S
C857   C870    1.400   .     A
C857   C864    1.383   .     A
C858   H932    1.082   .     S
C858   C872    1.401   .     A
C859   C871    1.401   .     A
C859   H894    1.082   .     S
C860   H895    1.082   .     S
C860   C871    1.401   .     A
C861   C872    1.401   .     A
C861   H896    1.082   .     S
C862   C875    1.400   .     A
C862   H897    1.081   .     S
C863   O959    1.301   .     A
C863   O956    1.301   .     A
C863   C868    1.452   .     S
C864   C873    1.400   .     A
C864   H898    1.081   .     S
C865   H899    1.081   .     S
C865   C873    1.400   .     A
C866   C875    1.400   .     A
C866   H900    1.081   .     S
C867   C874    1.452   .     S
C871   C887    1.452   .     S
C872   C886    1.452   .     S
C873   C885    1.452   .     S
C874   O958    1.301   .     A
C874   O957    1.301   .     A
C875   C884    1.452   .     S
C876   H902    1.115   .     S
C876   H901    1.108   .     S
C877   H905    1.115   .     S
C877   H906    1.108   .     S
C877   H787    1.108   1_655 S
C877   O826    1.413   1_655 S
C878   H909    1.115   .     S
C878   H908    1.108   .     S
C878   H790    1.108   1_655 S
C878   O827    1.413   1_655 S
C879   H913    1.115   .     S
C879   H911    1.108   .     S
C880   H914    1.108   .     S
C880   O950    1.413   .     S
C880   H916    1.115   .     S
C880   H917    1.108   .     S
C881   H920    1.108   .     S
C881   H918    1.115   .     S
C881   H919    1.108   .     S
C881   O951    1.413   .     S
C882   H921    1.108   .     S
C882   O952    1.413   .     S
C882   H922    1.115   .     S
C882   H923    1.108   .     S
C883   H924    1.108   .     S
C883   H925    1.108   .     S
C883   H927    1.115   .     S
C883   O953    1.413   .     S
C884   O960    1.301   .     A
C884   O940    1.301   .     A
C885   O938    1.301   .     A
C885   O939    1.301   .     A
C886   O941    1.301   .     A
C886   O944    1.301   .     A
C887   O942    1.301   .     A
C887   O943    1.301   .     A
C888   N814    1.375   1_655 A
C888   O945    1.380   .     S
Cu889  Cu890   2.709   .     S
Cu889  N933    2.036   .     S
Cu889  O937    1.965   .     S
Cu889  O957    1.965   .     S
Cu890  N934    2.036   .     S
Cu890  O955    1.965   .     S
Cu890  O958    1.965   .     S
Cu891  O942    1.965   .     S
Cu891  O939    1.965   .     S
Cu891  Cu892   2.709   .     S
Cu891  N935    2.036   .     S
Cu892  O943    1.965   .     S
Cu892  O938    1.965   .     S
Cu892  N936    2.036   .     S
H903   C756    1.108   1_655 S
H912   C759    1.108   1_655 S
O940   Cu652   1.965   1_565 S
O941   Cu652   1.965   1_565 S
O944   Cu651   1.965   1_565 S
O945   C756    1.413   1_655 S
O948   Cu770   1.965   1_655 S
O949   C759    1.413   1_655 S
O954   Cu769   1.965   1_655 S
O956   Cu770   1.965   1_655 S
O959   Cu769   1.965   1_655 S
O960   Cu651   1.965   1_565 S
C961   O1057   1.301   .     A
C961   C990    1.452   .     S
C961   O1075   1.301   .     A
C962   O1066   1.380   .     S
C962   C3      1.426   1_556 S
C962   N1053   1.375   .     S
C963   O1067   1.380   .     S
C963   N1054   1.375   .     S
C964   O1069   1.380   .     S
C964   N1173   1.375   .     A
C964   C48     1.426   1_556 S
C965   O1070   1.380   .     S
C965   N1296   1.375   .     S
C966   O1071   1.380   .     S
C966   N1055   1.375   .     A
C966   C7      1.426   1_556 S
C967   O1072   1.380   .     S
C967   N1056   1.375   .     A
C968   O1073   1.380   .     S
C968   C5      1.426   1_556 S
C968   N1295   1.375   .     S
C969   C980    1.383   .     A
C969   H1013   1.082   .     S
C969   C988    1.401   .     A
C970   C987    1.401   .     A
C970   C981    1.383   .     A
C970   H1024   1.082   .     S
C971   C978    1.383   .     A
C971   C987    1.401   .     A
C971   H1035   1.082   .     S
C972   C989    1.452   .     S
C972   O1074   1.301   .     A
C972   O1068   1.301   .     A
C973   H1046   1.082   .     S
C973   C988    1.401   .     A
C973   C979    1.383   .     A
C974   C990    1.400   .     A
C974   C985    1.383   .     A
C974   H1048   1.081   .     S
C975   C989    1.400   .     A
C975   C986    1.383   .     A
C975   H1049   1.081   .     S
C976   H1050   1.081   .     S
C976   C982    1.383   .     A
C976   C989    1.400   .     A
C977   H1051   1.081   .     S
C977   C990    1.400   .     A
C977   C984    1.383   .     A
C978   H1052   1.082   .     S
C978   C992    1.401   .     A
C979   C991    1.401   .     A
C979   H1014   1.082   .     S
C980   H1015   1.082   .     S
C980   C991    1.401   .     A
C981   C992    1.401   .     A
C981   H1016   1.082   .     S
C982   C995    1.400   .     A
C982   H1017   1.081   .     S
C983   O1079   1.301   .     A
C983   O1076   1.301   .     A
C983   C988    1.452   .     S
C984   C993    1.400   .     A
C984   H1018   1.081   .     S
C985   H1019   1.081   .     S
C985   C993    1.400   .     A
C986   C995    1.400   .     A
C986   H1020   1.081   .     S
C987   C994    1.452   .     S
C991   C1007   1.452   .     S
C992   C1006   1.452   .     S
C993   C1005   1.452   .     S
C994   O1078   1.301   .     A
C994   O1077   1.301   .     A
C995   C1004   1.452   .     S
C996   H1022   1.115   .     S
C996   H1021   1.108   .     S
C996   H1143   1.108   1_455 S
C996   O1185   1.413   1_455 S
C997   H1025   1.115   .     S
C997   H1026   1.108   .     S
C997   H1147   1.108   .     S
C997   O1186   1.413   .     S
C998   H1029   1.115   .     S
C998   H1028   1.108   .     S
C998   H1150   1.108   .     S
C998   O1187   1.413   .     S
C999   H1033   1.115   .     S
C999   H1031   1.108   .     S
C999   H1152   1.108   1_455 S
C999   O1189   1.413   1_455 S
C1000  H1034   1.108   .     S
C1000  O1070   1.413   .     S
C1000  H1036   1.115   .     S
C1000  H1037   1.108   .     S
C1001  H1040   1.108   .     S
C1001  H1038   1.115   .     S
C1001  H1039   1.108   .     S
C1001  O1071   1.413   .     S
C1002  H1041   1.108   .     S
C1002  O1072   1.413   .     S
C1002  H1042   1.115   .     S
C1002  H1043   1.108   .     S
C1003  H1044   1.108   .     S
C1003  H1045   1.108   .     S
C1003  H1047   1.115   .     S
C1003  O1073   1.413   .     S
C1004  O1080   1.301   .     A
C1004  O1060   1.301   .     A
C1005  O1058   1.301   .     A
C1005  O1059   1.301   .     A
C1006  O1061   1.301   .     A
C1006  O1064   1.301   .     A
C1007  O1062   1.301   .     A
C1007  O1063   1.301   .     A
C1008  N1174   1.375   .     A
C1008  O1065   1.380   .     S
Cu1009 O1194   1.965   1_455 S
Cu1009 Cu1010  2.709   .     S
Cu1009 O1199   1.965   1_455 S
Cu1009 N1053   2.036   .     S
Cu1009 O1057   1.965   .     S
Cu1009 O1077   1.965   .     S
Cu1010 O1188   1.965   1_455 S
Cu1010 N1054   2.036   .     S
Cu1010 O1196   1.965   1_455 S
Cu1010 O1075   1.965   .     S
Cu1010 O1078   1.965   .     S
Cu1011 O1062   1.965   .     S
Cu1011 O1059   1.965   .     S
Cu1011 Cu1012  2.709   .     S
Cu1011 N1055   2.036   .     S
Cu1011 O1304   1.965   1_545 S
Cu1011 O1320   1.965   1_545 S
Cu1012 O1063   1.965   .     S
Cu1012 O1058   1.965   .     S
Cu1012 N1056   2.036   .     S
Cu1012 O1300   1.965   1_545 S
Cu1012 O1301   1.965   1_545 S
H1023  C1116   1.108   .     S
H1027  C1117   1.108   1_455 S
H1030  C1118   1.108   1_455 S
H1032  C1119   1.108   .     S
N1053  C1084   1.375   1_455 A
N1054  C1128   1.375   1_455 A
N1055  C1208   1.375   1_545 S
N1056  C1205   1.375   1_545 S
O1060  Cu1252  1.965   .     S
O1061  Cu1252  1.965   .     S
O1064  Cu1251  1.965   .     S
O1065  C1116   1.413   .     S
O1066  C1117   1.413   1_455 S
O1067  C1118   1.413   1_455 S
O1068  Cu1130  1.965   .     S
O1069  C1119   1.413   .     S
O1074  Cu1129  1.965   .     S
O1076  Cu1130  1.965   .     S
O1079  Cu1129  1.965   .     S
O1080  Cu1251  1.965   .     S
C1081  O1177   1.301   .     A
C1081  C1110   1.452   .     S
C1081  O1195   1.301   .     A
C1082  O1186   1.380   .     S
C1082  C123    1.426   1_556 S
C1082  N1173   1.375   .     S
C1083  O1187   1.380   .     S
C1083  N1174   1.375   .     S
C1084  O1189   1.380   .     S
C1084  N1053   1.375   1_655 A
C1084  C168    1.426   1_556 S
C1085  O1190   1.380   .     S
C1085  N1416   1.375   .     S
C1086  O1191   1.380   .     S
C1086  N1175   1.375   .     A
C1086  C127    1.426   1_556 S
C1087  O1192   1.380   .     S
C1087  N1176   1.375   .     A
C1088  O1193   1.380   .     S
C1088  C125    1.426   1_556 S
C1088  N1415   1.375   .     S
C1089  C1100   1.383   .     A
C1089  H1133   1.082   .     S
C1089  C1108   1.401   .     A
C1090  C1107   1.401   .     A
C1090  C1101   1.383   .     A
C1090  H1144   1.082   .     S
C1091  C1098   1.383   .     A
C1091  C1107   1.401   .     A
C1091  H1155   1.082   .     S
C1092  C1109   1.452   .     S
C1092  O1194   1.301   .     A
C1092  O1188   1.301   .     A
C1093  H1166   1.082   .     S
C1093  C1108   1.401   .     A
C1093  C1099   1.383   .     A
C1094  C1110   1.400   .     A
C1094  C1105   1.383   .     A
C1094  H1168   1.081   .     S
C1095  C1109   1.400   .     A
C1095  C1106   1.383   .     A
C1095  H1169   1.081   .     S
C1096  H1170   1.081   .     S
C1096  C1102   1.383   .     A
C1096  C1109   1.400   .     A
C1097  H1171   1.081   .     S
C1097  C1110   1.400   .     A
C1097  C1104   1.383   .     A
C1098  H1172   1.082   .     S
C1098  C1112   1.401   .     A
C1099  C1111   1.401   .     A
C1099  H1134   1.082   .     S
C1100  H1135   1.082   .     S
C1100  C1111   1.401   .     A
C1101  C1112   1.401   .     A
C1101  H1136   1.082   .     S
C1102  C1115   1.400   .     A
C1102  H1137   1.081   .     S
C1103  O1199   1.301   .     A
C1103  O1196   1.301   .     A
C1103  C1108   1.452   .     S
C1104  C1113   1.400   .     A
C1104  H1138   1.081   .     S
C1105  H1139   1.081   .     S
C1105  C1113   1.400   .     A
C1106  C1115   1.400   .     A
C1106  H1140   1.081   .     S
C1107  C1114   1.452   .     S
C1111  C1127   1.452   .     S
C1112  C1126   1.452   .     S
C1113  C1125   1.452   .     S
C1114  O1198   1.301   .     A
C1114  O1197   1.301   .     A
C1115  C1124   1.452   .     S
C1116  H1142   1.115   .     S
C1116  H1141   1.108   .     S
C1117  H1145   1.115   .     S
C1117  H1146   1.108   .     S
C1117  H1027   1.108   1_655 S
C1117  O1066   1.413   1_655 S
C1118  H1149   1.115   .     S
C1118  H1148   1.108   .     S
C1118  H1030   1.108   1_655 S
C1118  O1067   1.413   1_655 S
C1119  H1153   1.115   .     S
C1119  H1151   1.108   .     S
C1120  H1154   1.108   .     S
C1120  O1190   1.413   .     S
C1120  H1156   1.115   .     S
C1120  H1157   1.108   .     S
C1121  H1160   1.108   .     S
C1121  H1158   1.115   .     S
C1121  H1159   1.108   .     S
C1121  O1191   1.413   .     S
C1122  H1161   1.108   .     S
C1122  O1192   1.413   .     S
C1122  H1162   1.115   .     S
C1122  H1163   1.108   .     S
C1123  H1164   1.108   .     S
C1123  H1165   1.108   .     S
C1123  H1167   1.115   .     S
C1123  O1193   1.413   .     S
C1124  O1200   1.301   .     A
C1124  O1180   1.301   .     A
C1125  O1178   1.301   .     A
C1125  O1179   1.301   .     A
C1126  O1181   1.301   .     A
C1126  O1184   1.301   .     A
C1127  O1182   1.301   .     A
C1127  O1183   1.301   .     A
C1128  N1054   1.375   1_655 A
C1128  O1185   1.380   .     S
Cu1129 Cu1130  2.709   .     S
Cu1129 N1173   2.036   .     S
Cu1129 O1177   1.965   .     S
Cu1129 O1197   1.965   .     S
Cu1130 N1174   2.036   .     S
Cu1130 O1195   1.965   .     S
Cu1130 O1198   1.965   .     S
Cu1131 O1182   1.965   .     S
Cu1131 O1179   1.965   .     S
Cu1131 Cu1132  2.709   .     S
Cu1131 N1175   2.036   .     S
Cu1131 O1424   1.965   1_545 S
Cu1131 O1440   1.965   1_545 S
Cu1132 O1183   1.965   .     S
Cu1132 O1178   1.965   .     S
Cu1132 N1176   2.036   .     S
Cu1132 O1420   1.965   1_545 S
Cu1132 O1421   1.965   1_545 S
H1143  C996    1.108   1_655 S
H1152  C999    1.108   1_655 S
N1175  C1328   1.375   1_545 S
N1176  C1325   1.375   1_545 S
O1180  Cu1372  1.965   .     S
O1181  Cu1372  1.965   .     S
O1184  Cu1371  1.965   .     S
O1185  C996    1.413   1_655 S
O1188  Cu1010  1.965   1_655 S
O1189  C999    1.413   1_655 S
O1194  Cu1009  1.965   1_655 S
O1196  Cu1010  1.965   1_655 S
O1199  Cu1009  1.965   1_655 S
O1200  Cu1371  1.965   .     S
C1201  O1297   1.301   .     A
C1201  C1230   1.452   .     S
C1201  O1315   1.301   .     A
C1202  O1306   1.380   .     S
C1202  C243    1.426   1_556 S
C1202  N1293   1.375   .     S
C1203  O1307   1.380   .     S
C1203  N1294   1.375   .     S
C1204  O1309   1.380   .     S
C1204  N1413   1.375   .     A
C1204  C288    1.426   1_556 S
C1205  O1310   1.380   .     S
C1205  N1056   1.375   1_565 S
C1206  O1311   1.380   .     S
C1206  N1295   1.375   .     A
C1206  C247    1.426   1_556 S
C1207  O1312   1.380   .     S
C1207  N1296   1.375   .     A
C1208  O1313   1.380   .     S
C1208  C245    1.426   1_556 S
C1208  N1055   1.375   1_565 S
C1209  C1220   1.383   .     A
C1209  H1253   1.082   .     S
C1209  C1228   1.401   .     A
C1210  C1227   1.401   .     A
C1210  C1221   1.383   .     A
C1210  H1264   1.082   .     S
C1211  C1218   1.383   .     A
C1211  C1227   1.401   .     A
C1211  H1275   1.082   .     S
C1212  C1229   1.452   .     S
C1212  O1314   1.301   .     A
C1212  O1308   1.301   .     A
C1213  H1286   1.082   .     S
C1213  C1228   1.401   .     A
C1213  C1219   1.383   .     A
C1214  C1230   1.400   .     A
C1214  C1225   1.383   .     A
C1214  H1288   1.081   .     S
C1215  C1229   1.400   .     A
C1215  C1226   1.383   .     A
C1215  H1289   1.081   .     S
C1216  H1290   1.081   .     S
C1216  C1222   1.383   .     A
C1216  C1229   1.400   .     A
C1217  H1291   1.081   .     S
C1217  C1230   1.400   .     A
C1217  C1224   1.383   .     A
C1218  H1292   1.082   .     S
C1218  C1232   1.401   .     A
C1219  C1231   1.401   .     A
C1219  H1254   1.082   .     S
C1220  H1255   1.082   .     S
C1220  C1231   1.401   .     A
C1221  C1232   1.401   .     A
C1221  H1256   1.082   .     S
C1222  C1235   1.400   .     A
C1222  H1257   1.081   .     S
C1223  O1319   1.301   .     A
C1223  O1316   1.301   .     A
C1223  C1228   1.452   .     S
C1224  C1233   1.400   .     A
C1224  H1258   1.081   .     S
C1225  H1259   1.081   .     S
C1225  C1233   1.400   .     A
C1226  C1235   1.400   .     A
C1226  H1260   1.081   .     S
C1227  C1234   1.452   .     S
C1231  C1247   1.452   .     S
C1232  C1246   1.452   .     S
C1233  C1245   1.452   .     S
C1234  O1318   1.301   .     A
C1234  O1317   1.301   .     A
C1235  C1244   1.452   .     S
C1236  H1262   1.115   .     S
C1236  H1261   1.108   .     S
C1236  H1383   1.108   1_455 S
C1236  O1425   1.413   1_455 S
C1237  H1265   1.115   .     S
C1237  H1266   1.108   .     S
C1237  H1387   1.108   .     S
C1237  O1426   1.413   .     S
C1238  H1269   1.115   .     S
C1238  H1268   1.108   .     S
C1238  H1390   1.108   .     S
C1238  O1427   1.413   .     S
C1239  H1273   1.115   .     S
C1239  H1271   1.108   .     S
C1239  H1392   1.108   1_455 S
C1239  O1429   1.413   1_455 S
C1240  H1274   1.108   .     S
C1240  O1310   1.413   .     S
C1240  H1276   1.115   .     S
C1240  H1277   1.108   .     S
C1241  H1280   1.108   .     S
C1241  H1278   1.115   .     S
C1241  H1279   1.108   .     S
C1241  O1311   1.413   .     S
C1242  H1281   1.108   .     S
C1242  O1312   1.413   .     S
C1242  H1282   1.115   .     S
C1242  H1283   1.108   .     S
C1243  H1284   1.108   .     S
C1243  H1285   1.108   .     S
C1243  H1287   1.115   .     S
C1243  O1313   1.413   .     S
C1244  O1320   1.301   .     A
C1244  O1300   1.301   .     A
C1245  O1298   1.301   .     A
C1245  O1299   1.301   .     A
C1246  O1301   1.301   .     A
C1246  O1304   1.301   .     A
C1247  O1302   1.301   .     A
C1247  O1303   1.301   .     A
C1248  N1414   1.375   .     A
C1248  O1305   1.380   .     S
Cu1249 O1434   1.965   1_455 S
Cu1249 Cu1250  2.709   .     S
Cu1249 O1439   1.965   1_455 S
Cu1249 N1293   2.036   .     S
Cu1249 O1297   1.965   .     S
Cu1249 O1317   1.965   .     S
Cu1250 O1428   1.965   1_455 S
Cu1250 N1294   2.036   .     S
Cu1250 O1436   1.965   1_455 S
Cu1250 O1315   1.965   .     S
Cu1250 O1318   1.965   .     S
Cu1251 O1302   1.965   .     S
Cu1251 O1299   1.965   .     S
Cu1251 Cu1252  2.709   .     S
Cu1251 N1295   2.036   .     S
Cu1252 O1303   1.965   .     S
Cu1252 O1298   1.965   .     S
Cu1252 N1296   2.036   .     S
H1263  C1356   1.108   .     S
H1267  C1357   1.108   1_455 S
H1270  C1358   1.108   1_455 S
H1272  C1359   1.108   .     S
N1293  C1324   1.375   1_455 A
N1294  C1368   1.375   1_455 A
O1300  Cu1012  1.965   1_565 S
O1301  Cu1012  1.965   1_565 S
O1304  Cu1011  1.965   1_565 S
O1305  C1356   1.413   .     S
O1306  C1357   1.413   1_455 S
O1307  C1358   1.413   1_455 S
O1308  Cu1370  1.965   .     S
O1309  C1359   1.413   .     S
O1314  Cu1369  1.965   .     S
O1316  Cu1370  1.965   .     S
O1319  Cu1369  1.965   .     S
O1320  Cu1011  1.965   1_565 S
C1321  O1417   1.301   .     A
C1321  C1350   1.452   .     S
C1321  O1435   1.301   .     A
C1322  O1426   1.380   .     S
C1322  C363    1.426   1_556 S
C1322  N1413   1.375   .     S
C1323  O1427   1.380   .     S
C1323  N1414   1.375   .     S
C1324  O1429   1.380   .     S
C1324  N1293   1.375   1_655 A
C1324  C408    1.426   1_556 S
C1325  O1430   1.380   .     S
C1325  N1176   1.375   1_565 S
C1326  O1431   1.380   .     S
C1326  N1415   1.375   .     A
C1326  C367    1.426   1_556 S
C1327  O1432   1.380   .     S
C1327  N1416   1.375   .     A
C1328  O1433   1.380   .     S
C1328  C365    1.426   1_556 S
C1328  N1175   1.375   1_565 S
C1329  C1340   1.383   .     A
C1329  H1373   1.082   .     S
C1329  C1348   1.401   .     A
C1330  C1347   1.401   .     A
C1330  C1341   1.383   .     A
C1330  H1384   1.082   .     S
C1331  C1338   1.383   .     A
C1331  C1347   1.401   .     A
C1331  H1395   1.082   .     S
C1332  C1349   1.452   .     S
C1332  O1434   1.301   .     A
C1332  O1428   1.301   .     A
C1333  H1406   1.082   .     S
C1333  C1348   1.401   .     A
C1333  C1339   1.383   .     A
C1334  C1350   1.400   .     A
C1334  C1345   1.383   .     A
C1334  H1408   1.081   .     S
C1335  C1349   1.400   .     A
C1335  C1346   1.383   .     A
C1335  H1409   1.081   .     S
C1336  H1410   1.081   .     S
C1336  C1342   1.383   .     A
C1336  C1349   1.400   .     A
C1337  H1411   1.081   .     S
C1337  C1350   1.400   .     A
C1337  C1344   1.383   .     A
C1338  H1412   1.082   .     S
C1338  C1352   1.401   .     A
C1339  C1351   1.401   .     A
C1339  H1374   1.082   .     S
C1340  H1375   1.082   .     S
C1340  C1351   1.401   .     A
C1341  C1352   1.401   .     A
C1341  H1376   1.082   .     S
C1342  C1355   1.400   .     A
C1342  H1377   1.081   .     S
C1343  O1439   1.301   .     A
C1343  O1436   1.301   .     A
C1343  C1348   1.452   .     S
C1344  C1353   1.400   .     A
C1344  H1378   1.081   .     S
C1345  H1379   1.081   .     S
C1345  C1353   1.400   .     A
C1346  C1355   1.400   .     A
C1346  H1380   1.081   .     S
C1347  C1354   1.452   .     S
C1351  C1367   1.452   .     S
C1352  C1366   1.452   .     S
C1353  C1365   1.452   .     S
C1354  O1438   1.301   .     A
C1354  O1437   1.301   .     A
C1355  C1364   1.452   .     S
C1356  H1382   1.115   .     S
C1356  H1381   1.108   .     S
C1357  H1385   1.115   .     S
C1357  H1386   1.108   .     S
C1357  H1267   1.108   1_655 S
C1357  O1306   1.413   1_655 S
C1358  H1389   1.115   .     S
C1358  H1388   1.108   .     S
C1358  H1270   1.108   1_655 S
C1358  O1307   1.413   1_655 S
C1359  H1393   1.115   .     S
C1359  H1391   1.108   .     S
C1360  H1394   1.108   .     S
C1360  O1430   1.413   .     S
C1360  H1396   1.115   .     S
C1360  H1397   1.108   .     S
C1361  H1400   1.108   .     S
C1361  H1398   1.115   .     S
C1361  H1399   1.108   .     S
C1361  O1431   1.413   .     S
C1362  H1401   1.108   .     S
C1362  O1432   1.413   .     S
C1362  H1402   1.115   .     S
C1362  H1403   1.108   .     S
C1363  H1404   1.108   .     S
C1363  H1405   1.108   .     S
C1363  H1407   1.115   .     S
C1363  O1433   1.413   .     S
C1364  O1440   1.301   .     A
C1364  O1420   1.301   .     A
C1365  O1418   1.301   .     A
C1365  O1419   1.301   .     A
C1366  O1421   1.301   .     A
C1366  O1424   1.301   .     A
C1367  O1422   1.301   .     A
C1367  O1423   1.301   .     A
C1368  N1294   1.375   1_655 A
C1368  O1425   1.380   .     S
Cu1369 Cu1370  2.709   .     S
Cu1369 N1413   2.036   .     S
Cu1369 O1417   1.965   .     S
Cu1369 O1437   1.965   .     S
Cu1370 N1414   2.036   .     S
Cu1370 O1435   1.965   .     S
Cu1370 O1438   1.965   .     S
Cu1371 O1422   1.965   .     S
Cu1371 O1419   1.965   .     S
Cu1371 Cu1372  2.709   .     S
Cu1371 N1415   2.036   .     S
Cu1372 O1423   1.965   .     S
Cu1372 O1418   1.965   .     S
Cu1372 N1416   2.036   .     S
H1383  C1236   1.108   1_655 S
H1392  C1239   1.108   1_655 S
O1420  Cu1132  1.965   1_565 S
O1421  Cu1132  1.965   1_565 S
O1424  Cu1131  1.965   1_565 S
O1425  C1236   1.413   1_655 S
O1428  Cu1250  1.965   1_655 S
O1429  C1239   1.413   1_655 S
O1434  Cu1249  1.965   1_655 S
O1436  Cu1250  1.965   1_655 S
O1439  Cu1249  1.965   1_655 S
O1440  Cu1131  1.965   1_565 S
