data_str_m1_o5_o17_pcu_sym.51
_audit_creation_date              2020-01-03
_audit_creation_method            'Materials Studio'
_symmetry_space_group_name_H-M    'P1'
_symmetry_Int_Tables_number       1
_symmetry_cell_setting            triclinic
loop_
_symmetry_equiv_pos_as_xyz
  x,y,z
_cell_length_a                    31.7642
_cell_length_b                    31.7643
_cell_length_c                    34.4008
_cell_angle_alpha                 90.0000
_cell_angle_beta                  90.0001
_cell_angle_gamma                 89.9418
loop_
_atom_site_label
_atom_site_type_symbol
_atom_site_fract_x
_atom_site_fract_y
_atom_site_fract_z
_atom_site_U_iso_or_equiv
_atom_site_adp_type
_atom_site_occupancy
C1     C     0.25000  -0.00000   0.35591   0.00000  Uiso   1.00
C2     C     0.33002   0.41996   0.75002   0.00000  Uiso   1.00
C3     C     0.43021   0.28181   0.02050   0.00000  Uiso   1.00
C4     C     0.21821   0.06980   0.97950   0.00000  Uiso   1.00
C5     C     0.28157   0.43009   0.01991   0.00000  Uiso   1.00
C6     C     0.43011   0.28158   0.98009   0.00000  Uiso   1.00
C7     C     0.06980   0.21819   0.02050   0.00000  Uiso   1.00
C8     C     0.06539   0.32605   0.39367   0.00000  Uiso   1.00
C9     C     0.07553   0.36237   0.36609   0.00000  Uiso   1.00
C10    C     0.12288   0.36693   0.35986   0.00000  Uiso   1.00
C11    C     0.02447   0.15511   0.60993   0.00000  Uiso   1.00
C12    C     0.01663   0.11649   0.63541   0.00000  Uiso   1.00
C13    C     0.41995   0.16999   0.24999   0.00000  Uiso   1.00
C14    C     0.05777   0.09438   0.64596   0.00000  Uiso   1.00
C15    C     0.17382   0.06537   0.39362   0.00000  Uiso   1.00
C16    C     0.13750   0.07548   0.36601   0.00000  Uiso   1.00
C17    C     0.13284   0.12283   0.35974   0.00000  Uiso   1.00
C18    C     0.34487   0.02443   0.60991   0.00000  Uiso   1.00
C19    C     0.38358   0.01654   0.63528   0.00000  Uiso   1.00
C20    C     0.40566   0.05767   0.64579   0.00000  Uiso   1.00
C21    C     0.43461   0.17395   0.39366   0.00000  Uiso   1.00
C22    C     0.42447   0.13763   0.36608   0.00000  Uiso   1.00
C23    C     0.37712   0.13307   0.35986   0.00000  Uiso   1.00
C24    C     0.08001   0.33005   0.74997   0.00000  Uiso   1.00
C25    C     0.47553   0.34489   0.60993   0.00000  Uiso   1.00
C26    C     0.48337   0.38351   0.63541   0.00000  Uiso   1.00
C27    C     0.44223   0.40562   0.64596   0.00000  Uiso   1.00
C28    C     0.32619   0.43463   0.39363   0.00000  Uiso   1.00
C29    C     0.36250   0.42452   0.36601   0.00000  Uiso   1.00
C30    C     0.36716   0.37717   0.35974   0.00000  Uiso   1.00
C31    C     0.15513   0.47557   0.60991   0.00000  Uiso   1.00
C32    C     0.11642   0.48346   0.63528   0.00000  Uiso   1.00
C33    C     0.09434   0.44233   0.64579   0.00000  Uiso   1.00
C34    C     0.24856   0.09632   0.88581   0.00000  Uiso   1.00
C35    C     0.33001   0.41996   0.24997   0.00000  Uiso   1.00
C36    C     0.23236   0.12289   0.85191   0.00000  Uiso   1.00
C37    C     0.26626   0.15262   0.83666   0.00000  Uiso   1.00
C38    C     0.32737   0.43399   0.10574   0.00000  Uiso   1.00
C39    C     0.34266   0.39663   0.12997   0.00000  Uiso   1.00
C40    C     0.39028   0.39749   0.13570   0.00000  Uiso   1.00
C41    C     0.43401   0.32739   0.89426   0.00000  Uiso   1.00
C42    C     0.39664   0.34268   0.87006   0.00000  Uiso   1.00
C43    C     0.39749   0.39031   0.86433   0.00000  Uiso   1.00
C44    C     0.09630   0.24853   0.11423   0.00000  Uiso   1.00
C45    C     0.12280   0.23233   0.14817   0.00000  Uiso   1.00
C46    C     0.16998   0.08004   0.75002   0.00000  Uiso   1.00
C47    C     0.15248   0.26622   0.16351   0.00000  Uiso   1.00
C48    C     0.25142   0.40368   0.88584   0.00000  Uiso   1.00
C49    C     0.26765   0.37696   0.85205   0.00000  Uiso   1.00
C50    C     0.23374   0.34724   0.83681   0.00000  Uiso   1.00
C51    C     0.17264   0.06601   0.10574   0.00000  Uiso   1.00
C52    C     0.15735   0.10339   0.12995   0.00000  Uiso   1.00
C53    C     0.10973   0.10255   0.13567   0.00000  Uiso   1.00
C54    C     0.06599   0.17261   0.89426   0.00000  Uiso   1.00
C55    C     0.10335   0.15731   0.87005   0.00000  Uiso   1.00
C56    C     0.10248   0.10969   0.86431   0.00000  Uiso   1.00
C57    C     0.08005   0.33001   0.24999   0.00000  Uiso   1.00
C58    C     0.40371   0.25151   0.11427   0.00000  Uiso   1.00
C59    C     0.37743   0.26764   0.14838   0.00000  Uiso   1.00
C60    C     0.34773   0.23377   0.16373   0.00000  Uiso   1.00
C61    C     0.41999   0.16995   0.74997   0.00000  Uiso   1.00
C62    C     0.16996   0.41998   0.74999   0.00000  Uiso   1.00
C63    C     0.33003   0.08004   0.25000   0.00000  Uiso   1.00
C64    C     0.41998   0.33004   0.75000   0.00000  Uiso   1.00
C65    C     0.25000  -0.00000   0.64416   0.00000  Uiso   1.00
C66    C     0.08006   0.17000   0.24995   0.00000  Uiso   1.00
C67    C     0.33004   0.08002   0.74999   0.00000  Uiso   1.00
C68    C     0.16997   0.41996   0.25000   0.00000  Uiso   1.00
C69    C     0.08002   0.16996   0.75000   0.00000  Uiso   1.00
C70    C     0.41994   0.33000   0.24995   0.00000  Uiso   1.00
C71    C     0.13835   0.38830   0.24998   0.00000  Uiso   1.00
C72    C     0.36169   0.11165   0.74997   0.00000  Uiso   1.00
C73    C     0.11173   0.13839   0.24989   0.00000  Uiso   1.00
C74    C     0.38833   0.36167   0.75004   0.00000  Uiso   1.00
C75    C     0.36165   0.11170   0.24998   0.00000  Uiso   1.00
C76    C     0.00000   0.25000   0.35591   0.00000  Uiso   1.00
C77    C     0.13831   0.38835   0.74997   0.00000  Uiso   1.00
C78    C     0.38827   0.36161   0.24989   0.00000  Uiso   1.00
C79    C     0.11167   0.13833   0.75004   0.00000  Uiso   1.00
C80    C     0.13834   0.11168   0.75005   0.00000  Uiso   1.00
C81    C     0.36162   0.38828   0.24991   0.00000  Uiso   1.00
C82    C     0.11165   0.36170   0.74996   0.00000  Uiso   1.00
C83    C     0.38831   0.13836   0.24998   0.00000  Uiso   1.00
C84    C     0.36166   0.38832   0.75005   0.00000  Uiso   1.00
C85    C     0.13838   0.11172   0.24991   0.00000  Uiso   1.00
C86    C     0.38835   0.13830   0.74996   0.00000  Uiso   1.00
C87    C     0.00000   0.25000   0.64416   0.00000  Uiso   1.00
C88    C     0.11169   0.36164   0.24998   0.00000  Uiso   1.00
C89    C     0.01162   0.28674   0.41830   0.00000  Uiso   1.00
C90    C     0.49328   0.21206   0.58192   0.00000  Uiso   1.00
C91    C     0.21323   0.01162   0.41829   0.00000  Uiso   1.00
C92    C     0.28795   0.49326   0.58192   0.00000  Uiso   1.00
C93    C     0.48838   0.21326   0.41830   0.00000  Uiso   1.00
C94    C     0.00672   0.28794   0.58192   0.00000  Uiso   1.00
C95    C     0.28677   0.48838   0.41829   0.00000  Uiso   1.00
C96    C     0.21205   0.00674   0.58192   0.00000  Uiso   1.00
C97    C     0.23398   0.03509   0.91801   0.00000  Uiso   1.00
C98    C     0.00000   0.25000   0.85594   0.00000  Uiso   1.00
C99    C     0.26832   0.46600   0.08162   0.00000  Uiso   1.00
C100   C     0.46601   0.26833   0.91839   0.00000  Uiso   1.00
C101   C     0.03509   0.23397   0.08199   0.00000  Uiso   1.00
C102   C     0.26602   0.46491   0.91801   0.00000  Uiso   1.00
C103   C     0.23168   0.03400   0.08162   0.00000  Uiso   1.00
C104   C     0.03400   0.23167   0.91839   0.00000  Uiso   1.00
C105   C     0.46492   0.26604   0.08199   0.00000  Uiso   1.00
C106   C     0.00000   0.25000   0.39823   0.00000  Uiso   1.00
C107   C     0.00000   0.25000   0.60194   0.00000  Uiso   1.00
C108   C     0.25000  -0.00000   0.39823   0.00000  Uiso   1.00
C109   C    -0.00000   0.25000   0.14419   0.00000  Uiso   1.00
C110   C     0.25000  -0.00000   0.60194   0.00000  Uiso   1.00
C111   C     0.25000  -0.00000   0.89801   0.00000  Uiso   1.00
C112   C     0.25000  -0.00000   0.10169   0.00000  Uiso   1.00
C113   C     0.00000   0.25000   0.89831   0.00000  Uiso   1.00
C114   C     0.00000   0.25000   0.10199   0.00000  Uiso   1.00
C115   C     0.49031   0.21260   0.45914   0.00000  Uiso   1.00
C116   C     0.00798   0.28780   0.54110   0.00000  Uiso   1.00
C117   C     0.28741   0.49030   0.45914   0.00000  Uiso   1.00
C118   C     0.21218   0.00800   0.54109   0.00000  Uiso   1.00
C119   C     0.00969   0.28740   0.45914   0.00000  Uiso   1.00
C120   C     0.25000  -0.00000   0.85582   0.00000  Uiso   1.00
C121   C     0.49202   0.21220   0.54110   0.00000  Uiso   1.00
C122   C     0.21259   0.00970   0.45914   0.00000  Uiso   1.00
C123   C     0.28782   0.49200   0.54110   0.00000  Uiso   1.00
C124   C     0.26622   0.46489   0.95880   0.00000  Uiso   1.00
C125   C     0.23326   0.03486   0.04075   0.00000  Uiso   1.00
C126   C     0.03486   0.23325   0.95926   0.00000  Uiso   1.00
C127   C     0.46490   0.26623   0.04120   0.00000  Uiso   1.00
C128   C     0.23378   0.03510   0.95880   0.00000  Uiso   1.00
C129   C     0.26674   0.46514   0.04075   0.00000  Uiso   1.00
C130   C     0.46515   0.26675   0.95926   0.00000  Uiso   1.00
C131   C     0.25000  -0.00000   0.14406   0.00000  Uiso   1.00
C132   C     0.03510   0.23377   0.04120   0.00000  Uiso   1.00
C133   C     0.00000   0.25000   0.47960   0.00000  Uiso   1.00
C134   C     0.00000   0.25000   0.52064   0.00000  Uiso   1.00
C135   C     0.25000  -0.00000   0.47959   0.00000  Uiso   1.00
C136   C     0.25000  -0.00000   0.52063   0.00000  Uiso   1.00
C137   C     0.25000  -0.00000   0.97926   0.00000  Uiso   1.00
C138   C     0.25000  -0.00000   0.02030   0.00000  Uiso   1.00
C139   C     0.00000   0.25000   0.97970   0.00000  Uiso   1.00
C140   C     0.00000   0.25000   0.02074   0.00000  Uiso   1.00
C141   C     0.48260   0.17535   0.47992   0.00000  Uiso   1.00
C142   C     0.16999   0.08004   0.24997   0.00000  Uiso   1.00
C143   C     0.01663   0.32483   0.52035   0.00000  Uiso   1.00
C144   C     0.32468   0.48257   0.47992   0.00000  Uiso   1.00
C145   C     0.17514   0.01666   0.52035   0.00000  Uiso   1.00
C146   C     0.01740   0.32465   0.47992   0.00000  Uiso   1.00
C147   C     0.48337   0.17517   0.52035   0.00000  Uiso   1.00
C148   C     0.17532   0.01743   0.47991   0.00000  Uiso   1.00
C149   C     0.32486   0.48334   0.52035   0.00000  Uiso   1.00
C150   C     0.28179   0.43019   0.97950   0.00000  Uiso   1.00
C151   C     0.21844   0.06990   0.01991   0.00000  Uiso   1.00
C152   C     0.06990   0.21842   0.98009   0.00000  Uiso   1.00
H153   H     0.47609   0.14604   0.46504   0.00000  Uiso   1.00
H154   H     0.20682   0.09767   0.03468   0.00000  Uiso   1.00
H155   H     0.13423   0.29365   0.17440   0.00000  Uiso   1.00
H156   H     0.22234   0.42031   0.87599   0.00000  Uiso   1.00
H157   H     0.24306   0.38271   0.91056   0.00000  Uiso   1.00
H158   H     0.27796   0.39797   0.82803   0.00000  Uiso   1.00
H159   H     0.29521   0.35819   0.86184   0.00000  Uiso   1.00
H160   H     0.22313   0.32565   0.86024   0.00000  Uiso   1.00
H161   H     0.24673   0.32815   0.81256   0.00000  Uiso   1.00
H162   H     0.20636   0.36546   0.82578   0.00000  Uiso   1.00
H163   H     0.16289   0.03633   0.12035   0.00000  Uiso   1.00
H164   H     0.15719   0.06733   0.07674   0.00000  Uiso   1.00
H165   H     0.09766   0.20679   0.96532   0.00000  Uiso   1.00
H166   H     0.17295   0.10275   0.15887   0.00000  Uiso   1.00
H167   H     0.16623   0.13314   0.11508   0.00000  Uiso   1.00
H168   H     0.09343   0.10400   0.10713   0.00000  Uiso   1.00
H169   H     0.09990   0.13016   0.15330   0.00000  Uiso   1.00
H170   H     0.10022   0.07341   0.15121   0.00000  Uiso   1.00
H171   H     0.03630   0.16288   0.87966   0.00000  Uiso   1.00
H172   H     0.06729   0.15716   0.92327   0.00000  Uiso   1.00
H173   H     0.10274   0.17292   0.84113   0.00000  Uiso   1.00
H174   H     0.13311   0.16616   0.88493   0.00000  Uiso   1.00
H175   H     0.10390   0.09338   0.89285   0.00000  Uiso   1.00
H176   H     0.40281   0.29411   0.03544   0.00000  Uiso   1.00
H177   H     0.13010   0.09985   0.84670   0.00000  Uiso   1.00
H178   H     0.07335   0.10021   0.84875   0.00000  Uiso   1.00
H179   H     0.42032   0.22229   0.12381   0.00000  Uiso   1.00
H180   H     0.38245   0.24339   0.08969   0.00000  Uiso   1.00
H181   H     0.39875   0.27772   0.17226   0.00000  Uiso   1.00
H182   H     0.35866   0.29534   0.13892   0.00000  Uiso   1.00
H183   H     0.32584   0.22340   0.14045   0.00000  Uiso   1.00
H184   H     0.32898   0.24667   0.18823   0.00000  Uiso   1.00
H185   H     0.36597   0.20624   0.17443   0.00000  Uiso   1.00
H186   H     0.20591   0.09720   0.96456   0.00000  Uiso   1.00
H187   H     0.29318   0.40233   0.03468   0.00000  Uiso   1.00
H188   H     0.40234   0.29321   0.96532   0.00000  Uiso   1.00
H189   H     0.09719   0.20589   0.03544   0.00000  Uiso   1.00
H190   H     0.07923   0.29660   0.38155   0.00000  Uiso   1.00
H191   H     0.08028   0.33247   0.42234   0.00000  Uiso   1.00
H192   H     0.06010   0.35669   0.33756   0.00000  Uiso   1.00
H193   H     0.02295   0.35417   0.53528   0.00000  Uiso   1.00
H194   H     0.06290   0.39219   0.37836   0.00000  Uiso   1.00
H195   H     0.13901   0.37277   0.38800   0.00000  Uiso   1.00
H196   H     0.12909   0.39395   0.34022   0.00000  Uiso   1.00
H197   H     0.13592   0.33796   0.34633   0.00000  Uiso   1.00
H198   H     0.04664   0.17641   0.62550   0.00000  Uiso   1.00
H199   H     0.03932   0.14469   0.58221   0.00000  Uiso   1.00
H200   H     0.00037   0.12630   0.66257   0.00000  Uiso   1.00
H201   H     0.49596   0.09406   0.61960   0.00000  Uiso   1.00
H202   H     0.07455   0.08419   0.61924   0.00000  Uiso   1.00
H203   H     0.05092   0.06618   0.66395   0.00000  Uiso   1.00
H204   H     0.35400   0.47605   0.46504   0.00000  Uiso   1.00
H205   H     0.07839   0.11585   0.66290   0.00000  Uiso   1.00
H206   H     0.20325   0.07920   0.38152   0.00000  Uiso   1.00
H207   H     0.16733   0.08028   0.42229   0.00000  Uiso   1.00
H208   H     0.14324   0.06003   0.33750   0.00000  Uiso   1.00
H209   H     0.10769   0.06286   0.37826   0.00000  Uiso   1.00
H210   H     0.12694   0.13898   0.38787   0.00000  Uiso   1.00
H211   H     0.10582   0.12901   0.34007   0.00000  Uiso   1.00
H212   H     0.16180   0.13587   0.34623   0.00000  Uiso   1.00
H213   H     0.32357   0.04659   0.62553   0.00000  Uiso   1.00
H214   H     0.35519   0.03929   0.58216   0.00000  Uiso   1.00
H215   H     0.14579   0.02299   0.53527   0.00000  Uiso   1.00
H216   H     0.37386   0.00029   0.66247   0.00000  Uiso   1.00
H217   H     0.40599   0.49587   0.61942   0.00000  Uiso   1.00
H218   H     0.41578   0.07443   0.61904   0.00000  Uiso   1.00
H219   H     0.43391   0.05079   0.66372   0.00000  Uiso   1.00
H220   H     0.38422   0.07831   0.66277   0.00000  Uiso   1.00
H221   H     0.42077   0.20340   0.38155   0.00000  Uiso   1.00
H222   H     0.41972   0.16752   0.42234   0.00000  Uiso   1.00
H223   H     0.43990   0.14331   0.33756   0.00000  Uiso   1.00
H224   H     0.43710   0.10781   0.37835   0.00000  Uiso   1.00
H225   H     0.36100   0.12722   0.38800   0.00000  Uiso   1.00
H226   H     0.02392   0.35396   0.46504   0.00000  Uiso   1.00
H227   H     0.37091   0.10604   0.34021   0.00000  Uiso   1.00
H228   H     0.36408   0.16204   0.34633   0.00000  Uiso   1.00
H229   H     0.45336   0.32359   0.62550   0.00000  Uiso   1.00
H230   H     0.46068   0.35531   0.58221   0.00000  Uiso   1.00
H231   H     0.49963   0.37370   0.66257   0.00000  Uiso   1.00
H232   H     0.00404   0.40594   0.61960   0.00000  Uiso   1.00
H233   H     0.42545   0.41581   0.61924   0.00000  Uiso   1.00
H234   H     0.44908   0.43382   0.66395   0.00000  Uiso   1.00
H235   H     0.42161   0.38416   0.66290   0.00000  Uiso   1.00
H236   H     0.29675   0.42080   0.38152   0.00000  Uiso   1.00
H237   H     0.47705   0.14583   0.53528   0.00000  Uiso   1.00
H238   H     0.33267   0.41972   0.42229   0.00000  Uiso   1.00
H239   H     0.35676   0.43997   0.33750   0.00000  Uiso   1.00
H240   H     0.39231   0.43714   0.37826   0.00000  Uiso   1.00
H241   H     0.37307   0.36102   0.38786   0.00000  Uiso   1.00
H242   H     0.39418   0.37099   0.34007   0.00000  Uiso   1.00
H243   H     0.33821   0.36413   0.34623   0.00000  Uiso   1.00
H244   H     0.17643   0.45341   0.62554   0.00000  Uiso   1.00
H245   H     0.14481   0.46071   0.58217   0.00000  Uiso   1.00
H246   H     0.12614   0.49971   0.66247   0.00000  Uiso   1.00
H247   H     0.09401   0.00413   0.61941   0.00000  Uiso   1.00
H248   H     0.14600   0.02395   0.46503   0.00000  Uiso   1.00
H249   H     0.08422   0.42557   0.61904   0.00000  Uiso   1.00
H250   H     0.06609   0.44921   0.66372   0.00000  Uiso   1.00
H251   H     0.11578   0.42169   0.66277   0.00000  Uiso   1.00
H252   H     0.27769   0.07969   0.87607   0.00000  Uiso   1.00
H253   H     0.25683   0.11738   0.91049   0.00000  Uiso   1.00
H254   H     0.22216   0.10177   0.82792   0.00000  Uiso   1.00
H255   H     0.20474   0.14164   0.86158   0.00000  Uiso   1.00
H256   H     0.27676   0.17431   0.86005   0.00000  Uiso   1.00
H257   H     0.25330   0.17159   0.81232   0.00000  Uiso   1.00
H258   H     0.29371   0.13441   0.82576   0.00000  Uiso   1.00
H259   H     0.35421   0.47701   0.53527   0.00000  Uiso   1.00
H260   H     0.33711   0.46368   0.12034   0.00000  Uiso   1.00
H261   H     0.34282   0.43267   0.07674   0.00000  Uiso   1.00
H262   H     0.32705   0.39726   0.15888   0.00000  Uiso   1.00
H263   H     0.33380   0.36686   0.11509   0.00000  Uiso   1.00
H264   H     0.40659   0.39605   0.10717   0.00000  Uiso   1.00
H265   H     0.40011   0.36988   0.15333   0.00000  Uiso   1.00
H266   H     0.39977   0.42663   0.15124   0.00000  Uiso   1.00
H267   H     0.46369   0.33712   0.87965   0.00000  Uiso   1.00
H268   H     0.43271   0.34284   0.92327   0.00000  Uiso   1.00
H269   H     0.39725   0.32708   0.84114   0.00000  Uiso   1.00
H270   H     0.29409   0.40280   0.96456   0.00000  Uiso   1.00
H271   H     0.36689   0.33382   0.88495   0.00000  Uiso   1.00
H272   H     0.39608   0.40661   0.89287   0.00000  Uiso   1.00
H273   H     0.36987   0.40014   0.84673   0.00000  Uiso   1.00
H274   H     0.42662   0.39979   0.84877   0.00000  Uiso   1.00
H275   H     0.07968   0.27766   0.12394   0.00000  Uiso   1.00
H276   H     0.11741   0.25678   0.08959   0.00000  Uiso   1.00
H277   H     0.10164   0.22209   0.17212   0.00000  Uiso   1.00
H278   H     0.14160   0.20472   0.13853   0.00000  Uiso   1.00
H279   H     0.17422   0.27677   0.14016   0.00000  Uiso   1.00
H280   H     0.17142   0.25326   0.18787   0.00000  Uiso   1.00
O281   O     0.25000  -0.00000   0.25000   0.00000  Uiso   1.00
O282   O     0.25000   0.46538   0.66251   0.00000  Uiso   1.00
O283   O     0.46539   0.25000   0.33749   0.00000  Uiso   1.00
O284   O     0.03462   0.25000   0.66251   0.00000  Uiso   1.00
O285   O     0.00000   0.21538   0.83749   0.00000  Uiso   1.00
O286   O     0.00000   0.28461   0.16251   0.00000  Uiso   1.00
O287   O     0.28462  -0.00000   0.83749   0.00000  Uiso   1.00
O288   O     0.21539  -0.00000   0.16251   0.00000  Uiso   1.00
O289   O     0.00000   0.28461   0.83749   0.00000  Uiso   1.00
O290   O     0.00000   0.21538   0.16251   0.00000  Uiso   1.00
O291   O     0.21539  -0.00000   0.83749   0.00000  Uiso   1.00
O292   O     0.25000  -0.00000   0.75000   0.00000  Uiso   1.00
O293   O     0.28462  -0.00000   0.16251   0.00000  Uiso   1.00
O294   O     0.20127   0.08332   0.27298   0.00000  Uiso   1.00
O295   O     0.29874   0.41668   0.72702   0.00000  Uiso   1.00
O296   O     0.41668   0.20126   0.27298   0.00000  Uiso   1.00
O297   O     0.08332   0.29873   0.72702   0.00000  Uiso   1.00
O298   O     0.29874   0.41668   0.27298   0.00000  Uiso   1.00
O299   O     0.20127   0.08332   0.72702   0.00000  Uiso   1.00
O300   O     0.08332   0.29873   0.27298   0.00000  Uiso   1.00
O301   O     0.41668   0.20126   0.72702   0.00000  Uiso   1.00
O302   O     0.20127   0.41668   0.72702   0.00000  Uiso   1.00
O303   O     0.00000   0.25000   0.25000   0.00000  Uiso   1.00
O304   O     0.29874   0.08332   0.27298   0.00000  Uiso   1.00
O305   O     0.41668   0.29873   0.72702   0.00000  Uiso   1.00
O306   O     0.08332   0.20126   0.27298   0.00000  Uiso   1.00
O307   O     0.29874   0.08332   0.72702   0.00000  Uiso   1.00
O308   O     0.20127   0.41668   0.27298   0.00000  Uiso   1.00
O309   O     0.08332   0.20126   0.72702   0.00000  Uiso   1.00
O310   O     0.41668   0.29873   0.27298   0.00000  Uiso   1.00
O311   O     0.45127   0.33332   0.77298   0.00000  Uiso   1.00
O312   O     0.04874   0.16668   0.22702   0.00000  Uiso   1.00
O313   O     0.16668   0.45126   0.77298   0.00000  Uiso   1.00
O314   O     0.00000   0.25000   0.75000   0.00000  Uiso   1.00
O315   O     0.33332   0.04873   0.22702   0.00000  Uiso   1.00
O316   O     0.04874   0.16668   0.77298   0.00000  Uiso   1.00
O317   O     0.45127   0.33332   0.22702   0.00000  Uiso   1.00
O318   O     0.33332   0.04873   0.77298   0.00000  Uiso   1.00
O319   O     0.16668   0.45126   0.22702   0.00000  Uiso   1.00
O320   O     0.45127   0.16668   0.22702   0.00000  Uiso   1.00
O321   O     0.04874   0.33332   0.77298   0.00000  Uiso   1.00
O322   O     0.16668   0.04873   0.22702   0.00000  Uiso   1.00
O323   O     0.33332   0.45126   0.77298   0.00000  Uiso   1.00
O324   O     0.04874   0.33332   0.22702   0.00000  Uiso   1.00
O325   O     0.25000   0.46538   0.33749   0.00000  Uiso   1.00
O326   O     0.45127   0.16668   0.77298   0.00000  Uiso   1.00
O327   O     0.33332   0.45126   0.22702   0.00000  Uiso   1.00
O328   O     0.16668   0.04873   0.77298   0.00000  Uiso   1.00
O329   O     0.02119   0.32290   0.39757   0.00000  Uiso   1.00
O330   O     0.48564   0.17536   0.60252   0.00000  Uiso   1.00
O331   O     0.17706   0.02117   0.39756   0.00000  Uiso   1.00
O332   O     0.32467   0.48561   0.60252   0.00000  Uiso   1.00
O333   O     0.47882   0.17710   0.39757   0.00000  Uiso   1.00
O334   O     0.01436   0.32464   0.60252   0.00000  Uiso   1.00
O335   O     0.32294   0.47883   0.39756   0.00000  Uiso   1.00
O336   O     0.25000   0.03461   0.66251   0.00000  Uiso   1.00
O337   O     0.17533   0.01439   0.60252   0.00000  Uiso   1.00
O338   O     0.21639   0.06827   0.89748   0.00000  Uiso   1.00
O339   O     0.28306   0.43154   0.10231   0.00000  Uiso   1.00
O340   O     0.43156   0.28308   0.89769   0.00000  Uiso   1.00
O341   O     0.06827   0.21636   0.10252   0.00000  Uiso   1.00
O342   O     0.28360   0.43172   0.89748   0.00000  Uiso   1.00
O343   O     0.21695   0.06846   0.10231   0.00000  Uiso   1.00
O344   O     0.06845   0.21692   0.89769   0.00000  Uiso   1.00
O345   O     0.43174   0.28366   0.10252   0.00000  Uiso   1.00
O346   O     0.03462   0.25000   0.33749   0.00000  Uiso   1.00
O347   O     0.46539   0.25000   0.66251   0.00000  Uiso   1.00
O348   O     0.25000   0.03461   0.33749   0.00000  Uiso   1.00
Zn349  Zn    0.20053  -0.00000   0.21730   0.00000  Uiso   1.00
Zn350  Zn    0.04948   0.25000   0.28270   0.00000  Uiso   1.00
Zn351  Zn    0.25000   0.45052   0.71730   0.00000  Uiso   1.00
Zn352  Zn    0.25000   0.04947   0.28270   0.00000  Uiso   1.00
Zn353  Zn    0.04948   0.25000   0.71730   0.00000  Uiso   1.00
Zn354  Zn    0.45053   0.25000   0.28270   0.00000  Uiso   1.00
Zn355  Zn    0.25000   0.04947   0.71730   0.00000  Uiso   1.00
Zn356  Zn    0.25000   0.45052   0.28270   0.00000  Uiso   1.00
Zn357  Zn    0.29948  -0.00000   0.78270   0.00000  Uiso   1.00
Zn358  Zn    0.00000   0.20052   0.21730   0.00000  Uiso   1.00
Zn359  Zn    0.00000   0.29947   0.78270   0.00000  Uiso   1.00
Zn360  Zn    0.29948  -0.00000   0.21730   0.00000  Uiso   1.00
Zn361  Zn    0.20053  -0.00000   0.78270   0.00000  Uiso   1.00
Zn362  Zn    0.00000   0.29947   0.21730   0.00000  Uiso   1.00
Zn363  Zn    0.00000   0.20052   0.78270   0.00000  Uiso   1.00
Zn364  Zn    0.45053   0.25000   0.71730   0.00000  Uiso   1.00
C365   C     0.75000  -0.00000   0.35591   0.00000  Uiso   1.00
C366   C     0.83002   0.41996   0.75002   0.00000  Uiso   1.00
C367   C     0.93021   0.28181   0.02050   0.00000  Uiso   1.00
C368   C     0.71821   0.06980   0.97950   0.00000  Uiso   1.00
C369   C     0.78157   0.43009   0.01991   0.00000  Uiso   1.00
C370   C     0.93011   0.28158   0.98009   0.00000  Uiso   1.00
C371   C     0.56980   0.21819   0.02050   0.00000  Uiso   1.00
C372   C     0.56539   0.32605   0.39367   0.00000  Uiso   1.00
C373   C     0.57553   0.36237   0.36609   0.00000  Uiso   1.00
C374   C     0.62288   0.36693   0.35986   0.00000  Uiso   1.00
C375   C     0.52447   0.15511   0.60993   0.00000  Uiso   1.00
C376   C     0.51663   0.11649   0.63541   0.00000  Uiso   1.00
C377   C     0.91995   0.16999   0.24999   0.00000  Uiso   1.00
C378   C     0.55777   0.09438   0.64596   0.00000  Uiso   1.00
C379   C     0.67382   0.06537   0.39362   0.00000  Uiso   1.00
C380   C     0.63750   0.07548   0.36601   0.00000  Uiso   1.00
C381   C     0.63284   0.12283   0.35974   0.00000  Uiso   1.00
C382   C     0.84487   0.02443   0.60991   0.00000  Uiso   1.00
C383   C     0.88358   0.01654   0.63528   0.00000  Uiso   1.00
C384   C     0.90566   0.05767   0.64579   0.00000  Uiso   1.00
C385   C     0.93461   0.17395   0.39366   0.00000  Uiso   1.00
C386   C     0.92447   0.13763   0.36608   0.00000  Uiso   1.00
C387   C     0.87712   0.13307   0.35986   0.00000  Uiso   1.00
C388   C     0.58001   0.33005   0.74997   0.00000  Uiso   1.00
C389   C     0.97553   0.34489   0.60993   0.00000  Uiso   1.00
C390   C     0.98337   0.38351   0.63541   0.00000  Uiso   1.00
C391   C     0.94223   0.40562   0.64596   0.00000  Uiso   1.00
C392   C     0.82619   0.43463   0.39363   0.00000  Uiso   1.00
C393   C     0.86250   0.42452   0.36601   0.00000  Uiso   1.00
C394   C     0.86716   0.37717   0.35974   0.00000  Uiso   1.00
C395   C     0.65513   0.47557   0.60991   0.00000  Uiso   1.00
C396   C     0.61642   0.48346   0.63528   0.00000  Uiso   1.00
C397   C     0.59434   0.44233   0.64579   0.00000  Uiso   1.00
C398   C     0.74856   0.09632   0.88581   0.00000  Uiso   1.00
C399   C     0.83001   0.41996   0.24997   0.00000  Uiso   1.00
C400   C     0.73236   0.12289   0.85191   0.00000  Uiso   1.00
C401   C     0.76626   0.15262   0.83666   0.00000  Uiso   1.00
C402   C     0.82737   0.43399   0.10574   0.00000  Uiso   1.00
C403   C     0.84266   0.39663   0.12997   0.00000  Uiso   1.00
C404   C     0.89028   0.39749   0.13570   0.00000  Uiso   1.00
C405   C     0.93401   0.32739   0.89426   0.00000  Uiso   1.00
C406   C     0.89664   0.34268   0.87006   0.00000  Uiso   1.00
C407   C     0.89749   0.39031   0.86433   0.00000  Uiso   1.00
C408   C     0.59630   0.24853   0.11423   0.00000  Uiso   1.00
C409   C     0.62280   0.23233   0.14817   0.00000  Uiso   1.00
C410   C     0.66998   0.08004   0.75002   0.00000  Uiso   1.00
C411   C     0.65248   0.26622   0.16351   0.00000  Uiso   1.00
C412   C     0.75142   0.40368   0.88584   0.00000  Uiso   1.00
C413   C     0.76765   0.37696   0.85205   0.00000  Uiso   1.00
C414   C     0.73374   0.34724   0.83681   0.00000  Uiso   1.00
C415   C     0.67264   0.06601   0.10574   0.00000  Uiso   1.00
C416   C     0.65735   0.10339   0.12995   0.00000  Uiso   1.00
C417   C     0.60973   0.10255   0.13567   0.00000  Uiso   1.00
C418   C     0.56599   0.17261   0.89426   0.00000  Uiso   1.00
C419   C     0.60335   0.15731   0.87005   0.00000  Uiso   1.00
C420   C     0.60248   0.10969   0.86431   0.00000  Uiso   1.00
C421   C     0.58005   0.33001   0.24999   0.00000  Uiso   1.00
C422   C     0.90371   0.25151   0.11427   0.00000  Uiso   1.00
C423   C     0.87743   0.26764   0.14838   0.00000  Uiso   1.00
C424   C     0.84773   0.23377   0.16373   0.00000  Uiso   1.00
C425   C     0.91999   0.16995   0.74997   0.00000  Uiso   1.00
C426   C     0.66996   0.41998   0.74999   0.00000  Uiso   1.00
C427   C     0.83003   0.08004   0.25000   0.00000  Uiso   1.00
C428   C     0.91998   0.33004   0.75000   0.00000  Uiso   1.00
C429   C     0.75000  -0.00000   0.64416   0.00000  Uiso   1.00
C430   C     0.58006   0.17000   0.24995   0.00000  Uiso   1.00
C431   C     0.83004   0.08002   0.74999   0.00000  Uiso   1.00
C432   C     0.66997   0.41996   0.25000   0.00000  Uiso   1.00
C433   C     0.58002   0.16996   0.75000   0.00000  Uiso   1.00
C434   C     0.91994   0.33000   0.24995   0.00000  Uiso   1.00
C435   C     0.63835   0.38830   0.24998   0.00000  Uiso   1.00
C436   C     0.86169   0.11165   0.74997   0.00000  Uiso   1.00
C437   C     0.61173   0.13839   0.24989   0.00000  Uiso   1.00
C438   C     0.88833   0.36167   0.75004   0.00000  Uiso   1.00
C439   C     0.86165   0.11170   0.24998   0.00000  Uiso   1.00
C440   C     0.50000   0.25000   0.35591   0.00000  Uiso   1.00
C441   C     0.63831   0.38835   0.74997   0.00000  Uiso   1.00
C442   C     0.88827   0.36161   0.24989   0.00000  Uiso   1.00
C443   C     0.61167   0.13833   0.75004   0.00000  Uiso   1.00
C444   C     0.63834   0.11168   0.75005   0.00000  Uiso   1.00
C445   C     0.86162   0.38828   0.24991   0.00000  Uiso   1.00
C446   C     0.61165   0.36170   0.74996   0.00000  Uiso   1.00
C447   C     0.88831   0.13836   0.24998   0.00000  Uiso   1.00
C448   C     0.86166   0.38832   0.75005   0.00000  Uiso   1.00
C449   C     0.63838   0.11172   0.24991   0.00000  Uiso   1.00
C450   C     0.88835   0.13830   0.74996   0.00000  Uiso   1.00
C451   C     0.50000   0.25000   0.64416   0.00000  Uiso   1.00
C452   C     0.61169   0.36164   0.24998   0.00000  Uiso   1.00
C453   C     0.51162   0.28674   0.41830   0.00000  Uiso   1.00
C454   C     0.99328   0.21206   0.58192   0.00000  Uiso   1.00
C455   C     0.71323   0.01162   0.41829   0.00000  Uiso   1.00
C456   C     0.78795   0.49326   0.58192   0.00000  Uiso   1.00
C457   C     0.98838   0.21326   0.41830   0.00000  Uiso   1.00
C458   C     0.50672   0.28794   0.58192   0.00000  Uiso   1.00
C459   C     0.78677   0.48838   0.41829   0.00000  Uiso   1.00
C460   C     0.71205   0.00674   0.58192   0.00000  Uiso   1.00
C461   C     0.73398   0.03509   0.91801   0.00000  Uiso   1.00
C462   C     0.50000   0.25000   0.85594   0.00000  Uiso   1.00
C463   C     0.76832   0.46600   0.08162   0.00000  Uiso   1.00
C464   C     0.96601   0.26833   0.91839   0.00000  Uiso   1.00
C465   C     0.53509   0.23397   0.08199   0.00000  Uiso   1.00
C466   C     0.76602   0.46491   0.91801   0.00000  Uiso   1.00
C467   C     0.73168   0.03400   0.08162   0.00000  Uiso   1.00
C468   C     0.53400   0.23167   0.91839   0.00000  Uiso   1.00
C469   C     0.96492   0.26604   0.08199   0.00000  Uiso   1.00
C470   C     0.50000   0.25000   0.39823   0.00000  Uiso   1.00
C471   C     0.50000   0.25000   0.60194   0.00000  Uiso   1.00
C472   C     0.75000  -0.00000   0.39823   0.00000  Uiso   1.00
C473   C     0.50000   0.25000   0.14419   0.00000  Uiso   1.00
C474   C     0.75000  -0.00000   0.60194   0.00000  Uiso   1.00
C475   C     0.75000  -0.00000   0.89801   0.00000  Uiso   1.00
C476   C     0.75000  -0.00000   0.10169   0.00000  Uiso   1.00
C477   C     0.50000   0.25000   0.89831   0.00000  Uiso   1.00
C478   C     0.50000   0.25000   0.10199   0.00000  Uiso   1.00
C479   C     0.99031   0.21260   0.45914   0.00000  Uiso   1.00
C480   C     0.50798   0.28780   0.54110   0.00000  Uiso   1.00
C481   C     0.78741   0.49030   0.45914   0.00000  Uiso   1.00
C482   C     0.71218   0.00800   0.54109   0.00000  Uiso   1.00
C483   C     0.50969   0.28740   0.45914   0.00000  Uiso   1.00
C484   C     0.75000  -0.00000   0.85582   0.00000  Uiso   1.00
C485   C     0.99202   0.21220   0.54110   0.00000  Uiso   1.00
C486   C     0.71259   0.00970   0.45914   0.00000  Uiso   1.00
C487   C     0.78782   0.49200   0.54110   0.00000  Uiso   1.00
C488   C     0.76622   0.46489   0.95880   0.00000  Uiso   1.00
C489   C     0.73326   0.03486   0.04075   0.00000  Uiso   1.00
C490   C     0.53486   0.23325   0.95926   0.00000  Uiso   1.00
C491   C     0.96490   0.26623   0.04120   0.00000  Uiso   1.00
C492   C     0.73378   0.03510   0.95880   0.00000  Uiso   1.00
C493   C     0.76674   0.46514   0.04075   0.00000  Uiso   1.00
C494   C     0.96515   0.26675   0.95926   0.00000  Uiso   1.00
C495   C     0.75000  -0.00000   0.14406   0.00000  Uiso   1.00
C496   C     0.53510   0.23377   0.04120   0.00000  Uiso   1.00
C497   C     0.50000   0.25000   0.47960   0.00000  Uiso   1.00
C498   C     0.50000   0.25000   0.52064   0.00000  Uiso   1.00
C499   C     0.75000  -0.00000   0.47959   0.00000  Uiso   1.00
C500   C     0.75000  -0.00000   0.52063   0.00000  Uiso   1.00
C501   C     0.75000  -0.00000   0.97926   0.00000  Uiso   1.00
C502   C     0.75000  -0.00000   0.02030   0.00000  Uiso   1.00
C503   C     0.50000   0.25000   0.97970   0.00000  Uiso   1.00
C504   C     0.50000   0.25000   0.02074   0.00000  Uiso   1.00
C505   C     0.98260   0.17535   0.47992   0.00000  Uiso   1.00
C506   C     0.66999   0.08004   0.24997   0.00000  Uiso   1.00
C507   C     0.51663   0.32483   0.52035   0.00000  Uiso   1.00
C508   C     0.82468   0.48257   0.47992   0.00000  Uiso   1.00
C509   C     0.67514   0.01666   0.52035   0.00000  Uiso   1.00
C510   C     0.51740   0.32465   0.47992   0.00000  Uiso   1.00
C511   C     0.98337   0.17517   0.52035   0.00000  Uiso   1.00
C512   C     0.67532   0.01743   0.47991   0.00000  Uiso   1.00
C513   C     0.82486   0.48334   0.52035   0.00000  Uiso   1.00
C514   C     0.78179   0.43019   0.97950   0.00000  Uiso   1.00
C515   C     0.71844   0.06990   0.01991   0.00000  Uiso   1.00
C516   C     0.56990   0.21842   0.98009   0.00000  Uiso   1.00
H517   H     0.97609   0.14604   0.46504   0.00000  Uiso   1.00
H518   H     0.70682   0.09767   0.03468   0.00000  Uiso   1.00
H519   H     0.63423   0.29365   0.17440   0.00000  Uiso   1.00
H520   H     0.72234   0.42031   0.87599   0.00000  Uiso   1.00
H521   H     0.74306   0.38271   0.91056   0.00000  Uiso   1.00
H522   H     0.77796   0.39797   0.82803   0.00000  Uiso   1.00
H523   H     0.79521   0.35819   0.86184   0.00000  Uiso   1.00
H524   H     0.72313   0.32565   0.86024   0.00000  Uiso   1.00
H525   H     0.74673   0.32815   0.81256   0.00000  Uiso   1.00
H526   H     0.70636   0.36546   0.82578   0.00000  Uiso   1.00
H527   H     0.66289   0.03633   0.12035   0.00000  Uiso   1.00
H528   H     0.65719   0.06733   0.07674   0.00000  Uiso   1.00
H529   H     0.59766   0.20679   0.96532   0.00000  Uiso   1.00
H530   H     0.67295   0.10275   0.15887   0.00000  Uiso   1.00
H531   H     0.66623   0.13314   0.11508   0.00000  Uiso   1.00
H532   H     0.59343   0.10400   0.10713   0.00000  Uiso   1.00
H533   H     0.59990   0.13016   0.15330   0.00000  Uiso   1.00
H534   H     0.60022   0.07341   0.15121   0.00000  Uiso   1.00
H535   H     0.53630   0.16288   0.87966   0.00000  Uiso   1.00
H536   H     0.56729   0.15716   0.92327   0.00000  Uiso   1.00
H537   H     0.60274   0.17292   0.84113   0.00000  Uiso   1.00
H538   H     0.63311   0.16616   0.88493   0.00000  Uiso   1.00
H539   H     0.60390   0.09338   0.89285   0.00000  Uiso   1.00
H540   H     0.90281   0.29411   0.03544   0.00000  Uiso   1.00
H541   H     0.63010   0.09985   0.84670   0.00000  Uiso   1.00
H542   H     0.57335   0.10021   0.84875   0.00000  Uiso   1.00
H543   H     0.92032   0.22229   0.12381   0.00000  Uiso   1.00
H544   H     0.88245   0.24339   0.08969   0.00000  Uiso   1.00
H545   H     0.89875   0.27772   0.17226   0.00000  Uiso   1.00
H546   H     0.85866   0.29534   0.13892   0.00000  Uiso   1.00
H547   H     0.82584   0.22340   0.14045   0.00000  Uiso   1.00
H548   H     0.82898   0.24667   0.18823   0.00000  Uiso   1.00
H549   H     0.86597   0.20624   0.17443   0.00000  Uiso   1.00
H550   H     0.70591   0.09720   0.96456   0.00000  Uiso   1.00
H551   H     0.79318   0.40233   0.03468   0.00000  Uiso   1.00
H552   H     0.90234   0.29321   0.96532   0.00000  Uiso   1.00
H553   H     0.59719   0.20589   0.03544   0.00000  Uiso   1.00
H554   H     0.57923   0.29660   0.38155   0.00000  Uiso   1.00
H555   H     0.58028   0.33247   0.42234   0.00000  Uiso   1.00
H556   H     0.56010   0.35669   0.33756   0.00000  Uiso   1.00
H557   H     0.52295   0.35417   0.53528   0.00000  Uiso   1.00
H558   H     0.56290   0.39219   0.37836   0.00000  Uiso   1.00
H559   H     0.63901   0.37277   0.38800   0.00000  Uiso   1.00
H560   H     0.62909   0.39395   0.34022   0.00000  Uiso   1.00
H561   H     0.63592   0.33796   0.34633   0.00000  Uiso   1.00
H562   H     0.54664   0.17641   0.62550   0.00000  Uiso   1.00
H563   H     0.53932   0.14469   0.58221   0.00000  Uiso   1.00
H564   H     0.50037   0.12630   0.66257   0.00000  Uiso   1.00
H565   H     0.99596   0.09406   0.61960   0.00000  Uiso   1.00
H566   H     0.57455   0.08419   0.61924   0.00000  Uiso   1.00
H567   H     0.55092   0.06618   0.66395   0.00000  Uiso   1.00
H568   H     0.85400   0.47605   0.46504   0.00000  Uiso   1.00
H569   H     0.57839   0.11585   0.66290   0.00000  Uiso   1.00
H570   H     0.70325   0.07920   0.38152   0.00000  Uiso   1.00
H571   H     0.66733   0.08028   0.42229   0.00000  Uiso   1.00
H572   H     0.64324   0.06003   0.33750   0.00000  Uiso   1.00
H573   H     0.60769   0.06286   0.37826   0.00000  Uiso   1.00
H574   H     0.62694   0.13898   0.38787   0.00000  Uiso   1.00
H575   H     0.60582   0.12901   0.34007   0.00000  Uiso   1.00
H576   H     0.66180   0.13587   0.34623   0.00000  Uiso   1.00
H577   H     0.82357   0.04659   0.62553   0.00000  Uiso   1.00
H578   H     0.85519   0.03929   0.58216   0.00000  Uiso   1.00
H579   H     0.64579   0.02299   0.53527   0.00000  Uiso   1.00
H580   H     0.87386   0.00029   0.66247   0.00000  Uiso   1.00
H581   H     0.90599   0.49587   0.61942   0.00000  Uiso   1.00
H582   H     0.91578   0.07443   0.61904   0.00000  Uiso   1.00
H583   H     0.93391   0.05079   0.66372   0.00000  Uiso   1.00
H584   H     0.88422   0.07831   0.66277   0.00000  Uiso   1.00
H585   H     0.92077   0.20340   0.38155   0.00000  Uiso   1.00
H586   H     0.91972   0.16752   0.42234   0.00000  Uiso   1.00
H587   H     0.93990   0.14331   0.33756   0.00000  Uiso   1.00
H588   H     0.93710   0.10781   0.37835   0.00000  Uiso   1.00
H589   H     0.86100   0.12722   0.38800   0.00000  Uiso   1.00
H590   H     0.52392   0.35396   0.46504   0.00000  Uiso   1.00
H591   H     0.87091   0.10604   0.34021   0.00000  Uiso   1.00
H592   H     0.86408   0.16204   0.34633   0.00000  Uiso   1.00
H593   H     0.95336   0.32359   0.62550   0.00000  Uiso   1.00
H594   H     0.96068   0.35531   0.58221   0.00000  Uiso   1.00
H595   H     0.99963   0.37370   0.66257   0.00000  Uiso   1.00
H596   H     0.50404   0.40594   0.61960   0.00000  Uiso   1.00
H597   H     0.92545   0.41581   0.61924   0.00000  Uiso   1.00
H598   H     0.94908   0.43382   0.66395   0.00000  Uiso   1.00
H599   H     0.92161   0.38416   0.66290   0.00000  Uiso   1.00
H600   H     0.79675   0.42080   0.38152   0.00000  Uiso   1.00
H601   H     0.97705   0.14583   0.53528   0.00000  Uiso   1.00
H602   H     0.83267   0.41972   0.42229   0.00000  Uiso   1.00
H603   H     0.85676   0.43997   0.33750   0.00000  Uiso   1.00
H604   H     0.89231   0.43714   0.37826   0.00000  Uiso   1.00
H605   H     0.87307   0.36102   0.38786   0.00000  Uiso   1.00
H606   H     0.89418   0.37099   0.34007   0.00000  Uiso   1.00
H607   H     0.83821   0.36413   0.34623   0.00000  Uiso   1.00
H608   H     0.67643   0.45341   0.62554   0.00000  Uiso   1.00
H609   H     0.64481   0.46071   0.58217   0.00000  Uiso   1.00
H610   H     0.62614   0.49971   0.66247   0.00000  Uiso   1.00
H611   H     0.59401   0.00413   0.61941   0.00000  Uiso   1.00
H612   H     0.64600   0.02395   0.46503   0.00000  Uiso   1.00
H613   H     0.58422   0.42557   0.61904   0.00000  Uiso   1.00
H614   H     0.56609   0.44921   0.66372   0.00000  Uiso   1.00
H615   H     0.61578   0.42169   0.66277   0.00000  Uiso   1.00
H616   H     0.77769   0.07969   0.87607   0.00000  Uiso   1.00
H617   H     0.75683   0.11738   0.91049   0.00000  Uiso   1.00
H618   H     0.72216   0.10177   0.82792   0.00000  Uiso   1.00
H619   H     0.70474   0.14164   0.86158   0.00000  Uiso   1.00
H620   H     0.77676   0.17431   0.86005   0.00000  Uiso   1.00
H621   H     0.75330   0.17159   0.81232   0.00000  Uiso   1.00
H622   H     0.79371   0.13441   0.82576   0.00000  Uiso   1.00
H623   H     0.85421   0.47701   0.53527   0.00000  Uiso   1.00
H624   H     0.83711   0.46368   0.12034   0.00000  Uiso   1.00
H625   H     0.84282   0.43267   0.07674   0.00000  Uiso   1.00
H626   H     0.82705   0.39726   0.15888   0.00000  Uiso   1.00
H627   H     0.83380   0.36686   0.11509   0.00000  Uiso   1.00
H628   H     0.90659   0.39605   0.10717   0.00000  Uiso   1.00
H629   H     0.90011   0.36988   0.15333   0.00000  Uiso   1.00
H630   H     0.89977   0.42663   0.15124   0.00000  Uiso   1.00
H631   H     0.96369   0.33712   0.87965   0.00000  Uiso   1.00
H632   H     0.93271   0.34284   0.92327   0.00000  Uiso   1.00
H633   H     0.89725   0.32708   0.84114   0.00000  Uiso   1.00
H634   H     0.79409   0.40280   0.96456   0.00000  Uiso   1.00
H635   H     0.86689   0.33382   0.88495   0.00000  Uiso   1.00
H636   H     0.89608   0.40661   0.89287   0.00000  Uiso   1.00
H637   H     0.86987   0.40014   0.84673   0.00000  Uiso   1.00
H638   H     0.92662   0.39979   0.84877   0.00000  Uiso   1.00
H639   H     0.57968   0.27766   0.12394   0.00000  Uiso   1.00
H640   H     0.61741   0.25678   0.08959   0.00000  Uiso   1.00
H641   H     0.60164   0.22209   0.17212   0.00000  Uiso   1.00
H642   H     0.64160   0.20472   0.13853   0.00000  Uiso   1.00
H643   H     0.67422   0.27677   0.14016   0.00000  Uiso   1.00
H644   H     0.67142   0.25326   0.18787   0.00000  Uiso   1.00
O645   O     0.75000  -0.00000   0.25000   0.00000  Uiso   1.00
O646   O     0.75000   0.46538   0.66251   0.00000  Uiso   1.00
O647   O     0.96539   0.25000   0.33749   0.00000  Uiso   1.00
O648   O     0.53462   0.25000   0.66251   0.00000  Uiso   1.00
O649   O     0.50000   0.21538   0.83749   0.00000  Uiso   1.00
O650   O     0.50000   0.28461   0.16251   0.00000  Uiso   1.00
O651   O     0.78462  -0.00000   0.83749   0.00000  Uiso   1.00
O652   O     0.71539  -0.00000   0.16251   0.00000  Uiso   1.00
O653   O     0.50000   0.28461   0.83749   0.00000  Uiso   1.00
O654   O     0.50000   0.21538   0.16251   0.00000  Uiso   1.00
O655   O     0.71539  -0.00000   0.83749   0.00000  Uiso   1.00
O656   O     0.75000  -0.00000   0.75000   0.00000  Uiso   1.00
O657   O     0.78462  -0.00000   0.16251   0.00000  Uiso   1.00
O658   O     0.70127   0.08332   0.27298   0.00000  Uiso   1.00
O659   O     0.79874   0.41668   0.72702   0.00000  Uiso   1.00
O660   O     0.91668   0.20126   0.27298   0.00000  Uiso   1.00
O661   O     0.58332   0.29873   0.72702   0.00000  Uiso   1.00
O662   O     0.79874   0.41668   0.27298   0.00000  Uiso   1.00
O663   O     0.70127   0.08332   0.72702   0.00000  Uiso   1.00
O664   O     0.58332   0.29873   0.27298   0.00000  Uiso   1.00
O665   O     0.91668   0.20126   0.72702   0.00000  Uiso   1.00
O666   O     0.70127   0.41668   0.72702   0.00000  Uiso   1.00
O667   O     0.50000   0.25000   0.25000   0.00000  Uiso   1.00
O668   O     0.79874   0.08332   0.27298   0.00000  Uiso   1.00
O669   O     0.91668   0.29873   0.72702   0.00000  Uiso   1.00
O670   O     0.58332   0.20126   0.27298   0.00000  Uiso   1.00
O671   O     0.79874   0.08332   0.72702   0.00000  Uiso   1.00
O672   O     0.70127   0.41668   0.27298   0.00000  Uiso   1.00
O673   O     0.58332   0.20126   0.72702   0.00000  Uiso   1.00
O674   O     0.91668   0.29873   0.27298   0.00000  Uiso   1.00
O675   O     0.95127   0.33332   0.77298   0.00000  Uiso   1.00
O676   O     0.54874   0.16668   0.22702   0.00000  Uiso   1.00
O677   O     0.66668   0.45126   0.77298   0.00000  Uiso   1.00
O678   O     0.50000   0.25000   0.75000   0.00000  Uiso   1.00
O679   O     0.83332   0.04873   0.22702   0.00000  Uiso   1.00
O680   O     0.54874   0.16668   0.77298   0.00000  Uiso   1.00
O681   O     0.95127   0.33332   0.22702   0.00000  Uiso   1.00
O682   O     0.83332   0.04873   0.77298   0.00000  Uiso   1.00
O683   O     0.66668   0.45126   0.22702   0.00000  Uiso   1.00
O684   O     0.95127   0.16668   0.22702   0.00000  Uiso   1.00
O685   O     0.54874   0.33332   0.77298   0.00000  Uiso   1.00
O686   O     0.66668   0.04873   0.22702   0.00000  Uiso   1.00
O687   O     0.83332   0.45126   0.77298   0.00000  Uiso   1.00
O688   O     0.54874   0.33332   0.22702   0.00000  Uiso   1.00
O689   O     0.75000   0.46538   0.33749   0.00000  Uiso   1.00
O690   O     0.95127   0.16668   0.77298   0.00000  Uiso   1.00
O691   O     0.83332   0.45126   0.22702   0.00000  Uiso   1.00
O692   O     0.66668   0.04873   0.77298   0.00000  Uiso   1.00
O693   O     0.52119   0.32290   0.39757   0.00000  Uiso   1.00
O694   O     0.98564   0.17536   0.60252   0.00000  Uiso   1.00
O695   O     0.67706   0.02117   0.39756   0.00000  Uiso   1.00
O696   O     0.82467   0.48561   0.60252   0.00000  Uiso   1.00
O697   O     0.97882   0.17710   0.39757   0.00000  Uiso   1.00
O698   O     0.51436   0.32464   0.60252   0.00000  Uiso   1.00
O699   O     0.82294   0.47883   0.39756   0.00000  Uiso   1.00
O700   O     0.75000   0.03461   0.66251   0.00000  Uiso   1.00
O701   O     0.67533   0.01439   0.60252   0.00000  Uiso   1.00
O702   O     0.71639   0.06827   0.89748   0.00000  Uiso   1.00
O703   O     0.78306   0.43154   0.10231   0.00000  Uiso   1.00
O704   O     0.93156   0.28308   0.89769   0.00000  Uiso   1.00
O705   O     0.56827   0.21636   0.10252   0.00000  Uiso   1.00
O706   O     0.78360   0.43172   0.89748   0.00000  Uiso   1.00
O707   O     0.71695   0.06846   0.10231   0.00000  Uiso   1.00
O708   O     0.56845   0.21692   0.89769   0.00000  Uiso   1.00
O709   O     0.93174   0.28366   0.10252   0.00000  Uiso   1.00
O710   O     0.53462   0.25000   0.33749   0.00000  Uiso   1.00
O711   O     0.96539   0.25000   0.66251   0.00000  Uiso   1.00
O712   O     0.75000   0.03461   0.33749   0.00000  Uiso   1.00
Zn713  Zn    0.70053  -0.00000   0.21730   0.00000  Uiso   1.00
Zn714  Zn    0.54948   0.25000   0.28270   0.00000  Uiso   1.00
Zn715  Zn    0.75000   0.45052   0.71730   0.00000  Uiso   1.00
Zn716  Zn    0.75000   0.04947   0.28270   0.00000  Uiso   1.00
Zn717  Zn    0.54948   0.25000   0.71730   0.00000  Uiso   1.00
Zn718  Zn    0.95053   0.25000   0.28270   0.00000  Uiso   1.00
Zn719  Zn    0.75000   0.04947   0.71730   0.00000  Uiso   1.00
Zn720  Zn    0.75000   0.45052   0.28270   0.00000  Uiso   1.00
Zn721  Zn    0.79948  -0.00000   0.78270   0.00000  Uiso   1.00
Zn722  Zn    0.50000   0.20052   0.21730   0.00000  Uiso   1.00
Zn723  Zn    0.50000   0.29947   0.78270   0.00000  Uiso   1.00
Zn724  Zn    0.79948  -0.00000   0.21730   0.00000  Uiso   1.00
Zn725  Zn    0.70053  -0.00000   0.78270   0.00000  Uiso   1.00
Zn726  Zn    0.50000   0.29947   0.21730   0.00000  Uiso   1.00
Zn727  Zn    0.50000   0.20052   0.78270   0.00000  Uiso   1.00
Zn728  Zn    0.95053   0.25000   0.71730   0.00000  Uiso   1.00
C729   C     0.25000   0.50000   0.35591   0.00000  Uiso   1.00
C730   C     0.33002   0.91996   0.75002   0.00000  Uiso   1.00
C731   C     0.43021   0.78181   0.02050   0.00000  Uiso   1.00
C732   C     0.21821   0.56980   0.97950   0.00000  Uiso   1.00
C733   C     0.28157   0.93009   0.01991   0.00000  Uiso   1.00
C734   C     0.43011   0.78158   0.98009   0.00000  Uiso   1.00
C735   C     0.06980   0.71819   0.02050   0.00000  Uiso   1.00
C736   C     0.06539   0.82605   0.39367   0.00000  Uiso   1.00
C737   C     0.07553   0.86237   0.36609   0.00000  Uiso   1.00
C738   C     0.12288   0.86693   0.35986   0.00000  Uiso   1.00
C739   C     0.02447   0.65511   0.60993   0.00000  Uiso   1.00
C740   C     0.01663   0.61649   0.63541   0.00000  Uiso   1.00
C741   C     0.41995   0.66999   0.24999   0.00000  Uiso   1.00
C742   C     0.05777   0.59438   0.64596   0.00000  Uiso   1.00
C743   C     0.17382   0.56537   0.39362   0.00000  Uiso   1.00
C744   C     0.13750   0.57548   0.36601   0.00000  Uiso   1.00
C745   C     0.13284   0.62283   0.35974   0.00000  Uiso   1.00
C746   C     0.34487   0.52443   0.60991   0.00000  Uiso   1.00
C747   C     0.38358   0.51654   0.63528   0.00000  Uiso   1.00
C748   C     0.40566   0.55767   0.64579   0.00000  Uiso   1.00
C749   C     0.43461   0.67395   0.39366   0.00000  Uiso   1.00
C750   C     0.42447   0.63763   0.36608   0.00000  Uiso   1.00
C751   C     0.37712   0.63307   0.35986   0.00000  Uiso   1.00
C752   C     0.08001   0.83005   0.74997   0.00000  Uiso   1.00
C753   C     0.47553   0.84489   0.60993   0.00000  Uiso   1.00
C754   C     0.48337   0.88351   0.63541   0.00000  Uiso   1.00
C755   C     0.44223   0.90562   0.64596   0.00000  Uiso   1.00
C756   C     0.32619   0.93463   0.39363   0.00000  Uiso   1.00
C757   C     0.36250   0.92452   0.36601   0.00000  Uiso   1.00
C758   C     0.36716   0.87717   0.35974   0.00000  Uiso   1.00
C759   C     0.15513   0.97557   0.60991   0.00000  Uiso   1.00
C760   C     0.11642   0.98346   0.63528   0.00000  Uiso   1.00
C761   C     0.09434   0.94233   0.64579   0.00000  Uiso   1.00
C762   C     0.24856   0.59632   0.88581   0.00000  Uiso   1.00
C763   C     0.33001   0.91996   0.24997   0.00000  Uiso   1.00
C764   C     0.23236   0.62289   0.85191   0.00000  Uiso   1.00
C765   C     0.26626   0.65262   0.83666   0.00000  Uiso   1.00
C766   C     0.32737   0.93399   0.10574   0.00000  Uiso   1.00
C767   C     0.34266   0.89663   0.12997   0.00000  Uiso   1.00
C768   C     0.39028   0.89749   0.13570   0.00000  Uiso   1.00
C769   C     0.43401   0.82739   0.89426   0.00000  Uiso   1.00
C770   C     0.39664   0.84268   0.87006   0.00000  Uiso   1.00
C771   C     0.39749   0.89031   0.86433   0.00000  Uiso   1.00
C772   C     0.09630   0.74853   0.11423   0.00000  Uiso   1.00
C773   C     0.12280   0.73233   0.14817   0.00000  Uiso   1.00
C774   C     0.16998   0.58004   0.75002   0.00000  Uiso   1.00
C775   C     0.15248   0.76622   0.16351   0.00000  Uiso   1.00
C776   C     0.25142   0.90368   0.88584   0.00000  Uiso   1.00
C777   C     0.26765   0.87696   0.85205   0.00000  Uiso   1.00
C778   C     0.23374   0.84724   0.83681   0.00000  Uiso   1.00
C779   C     0.17264   0.56601   0.10574   0.00000  Uiso   1.00
C780   C     0.15735   0.60339   0.12995   0.00000  Uiso   1.00
C781   C     0.10973   0.60255   0.13567   0.00000  Uiso   1.00
C782   C     0.06599   0.67261   0.89426   0.00000  Uiso   1.00
C783   C     0.10335   0.65731   0.87005   0.00000  Uiso   1.00
C784   C     0.10248   0.60969   0.86431   0.00000  Uiso   1.00
C785   C     0.08005   0.83001   0.24999   0.00000  Uiso   1.00
C786   C     0.40371   0.75151   0.11427   0.00000  Uiso   1.00
C787   C     0.37743   0.76764   0.14838   0.00000  Uiso   1.00
C788   C     0.34773   0.73377   0.16373   0.00000  Uiso   1.00
C789   C     0.41999   0.66995   0.74997   0.00000  Uiso   1.00
C790   C     0.16996   0.91998   0.74999   0.00000  Uiso   1.00
C791   C     0.33003   0.58004   0.25000   0.00000  Uiso   1.00
C792   C     0.41998   0.83004   0.75000   0.00000  Uiso   1.00
C793   C     0.25000   0.50000   0.64416   0.00000  Uiso   1.00
C794   C     0.08006   0.67000   0.24995   0.00000  Uiso   1.00
C795   C     0.33004   0.58002   0.74999   0.00000  Uiso   1.00
C796   C     0.16997   0.91996   0.25000   0.00000  Uiso   1.00
C797   C     0.08002   0.66996   0.75000   0.00000  Uiso   1.00
C798   C     0.41994   0.83000   0.24995   0.00000  Uiso   1.00
C799   C     0.13835   0.88830   0.24998   0.00000  Uiso   1.00
C800   C     0.36169   0.61165   0.74997   0.00000  Uiso   1.00
C801   C     0.11173   0.63839   0.24989   0.00000  Uiso   1.00
C802   C     0.38833   0.86167   0.75004   0.00000  Uiso   1.00
C803   C     0.36165   0.61170   0.24998   0.00000  Uiso   1.00
C804   C     0.00000   0.75000   0.35591   0.00000  Uiso   1.00
C805   C     0.13831   0.88835   0.74997   0.00000  Uiso   1.00
C806   C     0.38827   0.86161   0.24989   0.00000  Uiso   1.00
C807   C     0.11167   0.63833   0.75004   0.00000  Uiso   1.00
C808   C     0.13834   0.61168   0.75005   0.00000  Uiso   1.00
C809   C     0.36162   0.88828   0.24991   0.00000  Uiso   1.00
C810   C     0.11165   0.86170   0.74996   0.00000  Uiso   1.00
C811   C     0.38831   0.63836   0.24998   0.00000  Uiso   1.00
C812   C     0.36166   0.88832   0.75005   0.00000  Uiso   1.00
C813   C     0.13838   0.61172   0.24991   0.00000  Uiso   1.00
C814   C     0.38835   0.63830   0.74996   0.00000  Uiso   1.00
C815   C     0.00000   0.75000   0.64416   0.00000  Uiso   1.00
C816   C     0.11169   0.86164   0.24998   0.00000  Uiso   1.00
C817   C     0.01162   0.78674   0.41830   0.00000  Uiso   1.00
C818   C     0.49328   0.71206   0.58192   0.00000  Uiso   1.00
C819   C     0.21323   0.51162   0.41829   0.00000  Uiso   1.00
C820   C     0.28795   0.99326   0.58192   0.00000  Uiso   1.00
C821   C     0.48838   0.71326   0.41830   0.00000  Uiso   1.00
C822   C     0.00672   0.78794   0.58192   0.00000  Uiso   1.00
C823   C     0.28677   0.98838   0.41829   0.00000  Uiso   1.00
C824   C     0.21205   0.50674   0.58192   0.00000  Uiso   1.00
C825   C     0.23398   0.53509   0.91801   0.00000  Uiso   1.00
C826   C     0.00000   0.75000   0.85594   0.00000  Uiso   1.00
C827   C     0.26832   0.96600   0.08162   0.00000  Uiso   1.00
C828   C     0.46601   0.76833   0.91839   0.00000  Uiso   1.00
C829   C     0.03509   0.73397   0.08199   0.00000  Uiso   1.00
C830   C     0.26602   0.96491   0.91801   0.00000  Uiso   1.00
C831   C     0.23168   0.53400   0.08162   0.00000  Uiso   1.00
C832   C     0.03400   0.73167   0.91839   0.00000  Uiso   1.00
C833   C     0.46492   0.76604   0.08199   0.00000  Uiso   1.00
C834   C     0.00000   0.75000   0.39823   0.00000  Uiso   1.00
C835   C     0.00000   0.75000   0.60194   0.00000  Uiso   1.00
C836   C     0.25000   0.50000   0.39823   0.00000  Uiso   1.00
C837   C    -0.00000   0.75000   0.14419   0.00000  Uiso   1.00
C838   C     0.25000   0.50000   0.60194   0.00000  Uiso   1.00
C839   C     0.25000   0.50000   0.89801   0.00000  Uiso   1.00
C840   C     0.25000   0.50000   0.10169   0.00000  Uiso   1.00
C841   C     0.00000   0.75000   0.89831   0.00000  Uiso   1.00
C842   C     0.00000   0.75000   0.10199   0.00000  Uiso   1.00
C843   C     0.49031   0.71260   0.45914   0.00000  Uiso   1.00
C844   C     0.00798   0.78780   0.54110   0.00000  Uiso   1.00
C845   C     0.28741   0.99030   0.45914   0.00000  Uiso   1.00
C846   C     0.21218   0.50800   0.54109   0.00000  Uiso   1.00
C847   C     0.00969   0.78740   0.45914   0.00000  Uiso   1.00
C848   C     0.25000   0.50000   0.85582   0.00000  Uiso   1.00
C849   C     0.49202   0.71220   0.54110   0.00000  Uiso   1.00
C850   C     0.21259   0.50970   0.45914   0.00000  Uiso   1.00
C851   C     0.28782   0.99200   0.54110   0.00000  Uiso   1.00
C852   C     0.26622   0.96489   0.95880   0.00000  Uiso   1.00
C853   C     0.23326   0.53486   0.04075   0.00000  Uiso   1.00
C854   C     0.03486   0.73325   0.95926   0.00000  Uiso   1.00
C855   C     0.46490   0.76623   0.04120   0.00000  Uiso   1.00
C856   C     0.23378   0.53510   0.95880   0.00000  Uiso   1.00
C857   C     0.26674   0.96514   0.04075   0.00000  Uiso   1.00
C858   C     0.46515   0.76675   0.95926   0.00000  Uiso   1.00
C859   C     0.25000   0.50000   0.14406   0.00000  Uiso   1.00
C860   C     0.03510   0.73377   0.04120   0.00000  Uiso   1.00
C861   C     0.00000   0.75000   0.47960   0.00000  Uiso   1.00
C862   C     0.00000   0.75000   0.52064   0.00000  Uiso   1.00
C863   C     0.25000   0.50000   0.47959   0.00000  Uiso   1.00
C864   C     0.25000   0.50000   0.52063   0.00000  Uiso   1.00
C865   C     0.25000   0.50000   0.97926   0.00000  Uiso   1.00
C866   C     0.25000   0.50000   0.02030   0.00000  Uiso   1.00
C867   C     0.00000   0.75000   0.97970   0.00000  Uiso   1.00
C868   C     0.00000   0.75000   0.02074   0.00000  Uiso   1.00
C869   C     0.48260   0.67535   0.47992   0.00000  Uiso   1.00
C870   C     0.16999   0.58004   0.24997   0.00000  Uiso   1.00
C871   C     0.01663   0.82483   0.52035   0.00000  Uiso   1.00
C872   C     0.32468   0.98257   0.47992   0.00000  Uiso   1.00
C873   C     0.17514   0.51666   0.52035   0.00000  Uiso   1.00
C874   C     0.01740   0.82465   0.47992   0.00000  Uiso   1.00
C875   C     0.48337   0.67517   0.52035   0.00000  Uiso   1.00
C876   C     0.17532   0.51743   0.47991   0.00000  Uiso   1.00
C877   C     0.32486   0.98334   0.52035   0.00000  Uiso   1.00
C878   C     0.28179   0.93019   0.97950   0.00000  Uiso   1.00
C879   C     0.21844   0.56990   0.01991   0.00000  Uiso   1.00
C880   C     0.06990   0.71842   0.98009   0.00000  Uiso   1.00
H881   H     0.47609   0.64604   0.46504   0.00000  Uiso   1.00
H882   H     0.20682   0.59767   0.03468   0.00000  Uiso   1.00
H883   H     0.13423   0.79365   0.17440   0.00000  Uiso   1.00
H884   H     0.22234   0.92031   0.87599   0.00000  Uiso   1.00
H885   H     0.24306   0.88271   0.91056   0.00000  Uiso   1.00
H886   H     0.27796   0.89797   0.82803   0.00000  Uiso   1.00
H887   H     0.29521   0.85819   0.86184   0.00000  Uiso   1.00
H888   H     0.22313   0.82565   0.86024   0.00000  Uiso   1.00
H889   H     0.24673   0.82815   0.81256   0.00000  Uiso   1.00
H890   H     0.20636   0.86546   0.82578   0.00000  Uiso   1.00
H891   H     0.16289   0.53633   0.12035   0.00000  Uiso   1.00
H892   H     0.15719   0.56733   0.07674   0.00000  Uiso   1.00
H893   H     0.09766   0.70679   0.96532   0.00000  Uiso   1.00
H894   H     0.17295   0.60275   0.15887   0.00000  Uiso   1.00
H895   H     0.16623   0.63314   0.11508   0.00000  Uiso   1.00
H896   H     0.09343   0.60400   0.10713   0.00000  Uiso   1.00
H897   H     0.09990   0.63016   0.15330   0.00000  Uiso   1.00
H898   H     0.10022   0.57341   0.15121   0.00000  Uiso   1.00
H899   H     0.03630   0.66288   0.87966   0.00000  Uiso   1.00
H900   H     0.06729   0.65716   0.92327   0.00000  Uiso   1.00
H901   H     0.10274   0.67292   0.84113   0.00000  Uiso   1.00
H902   H     0.13311   0.66616   0.88493   0.00000  Uiso   1.00
H903   H     0.10390   0.59338   0.89285   0.00000  Uiso   1.00
H904   H     0.40281   0.79411   0.03544   0.00000  Uiso   1.00
H905   H     0.13010   0.59985   0.84670   0.00000  Uiso   1.00
H906   H     0.07335   0.60021   0.84875   0.00000  Uiso   1.00
H907   H     0.42032   0.72229   0.12381   0.00000  Uiso   1.00
H908   H     0.38245   0.74339   0.08969   0.00000  Uiso   1.00
H909   H     0.39875   0.77772   0.17226   0.00000  Uiso   1.00
H910   H     0.35866   0.79534   0.13892   0.00000  Uiso   1.00
H911   H     0.32584   0.72340   0.14045   0.00000  Uiso   1.00
H912   H     0.32898   0.74667   0.18823   0.00000  Uiso   1.00
H913   H     0.36597   0.70624   0.17443   0.00000  Uiso   1.00
H914   H     0.20591   0.59720   0.96456   0.00000  Uiso   1.00
H915   H     0.29318   0.90233   0.03468   0.00000  Uiso   1.00
H916   H     0.40234   0.79321   0.96532   0.00000  Uiso   1.00
H917   H     0.09719   0.70589   0.03544   0.00000  Uiso   1.00
H918   H     0.07923   0.79660   0.38155   0.00000  Uiso   1.00
H919   H     0.08028   0.83247   0.42234   0.00000  Uiso   1.00
H920   H     0.06010   0.85669   0.33756   0.00000  Uiso   1.00
H921   H     0.02295   0.85417   0.53528   0.00000  Uiso   1.00
H922   H     0.06290   0.89219   0.37836   0.00000  Uiso   1.00
H923   H     0.13901   0.87277   0.38800   0.00000  Uiso   1.00
H924   H     0.12909   0.89395   0.34022   0.00000  Uiso   1.00
H925   H     0.13592   0.83796   0.34633   0.00000  Uiso   1.00
H926   H     0.04664   0.67641   0.62550   0.00000  Uiso   1.00
H927   H     0.03932   0.64469   0.58221   0.00000  Uiso   1.00
H928   H     0.00037   0.62630   0.66257   0.00000  Uiso   1.00
H929   H     0.49596   0.59406   0.61960   0.00000  Uiso   1.00
H930   H     0.07455   0.58419   0.61924   0.00000  Uiso   1.00
H931   H     0.05092   0.56618   0.66395   0.00000  Uiso   1.00
H932   H     0.35400   0.97605   0.46504   0.00000  Uiso   1.00
H933   H     0.07839   0.61585   0.66290   0.00000  Uiso   1.00
H934   H     0.20325   0.57920   0.38152   0.00000  Uiso   1.00
H935   H     0.16733   0.58028   0.42229   0.00000  Uiso   1.00
H936   H     0.14324   0.56003   0.33750   0.00000  Uiso   1.00
H937   H     0.10769   0.56286   0.37826   0.00000  Uiso   1.00
H938   H     0.12694   0.63898   0.38787   0.00000  Uiso   1.00
H939   H     0.10582   0.62901   0.34007   0.00000  Uiso   1.00
H940   H     0.16180   0.63587   0.34623   0.00000  Uiso   1.00
H941   H     0.32357   0.54659   0.62553   0.00000  Uiso   1.00
H942   H     0.35519   0.53929   0.58216   0.00000  Uiso   1.00
H943   H     0.14579   0.52299   0.53527   0.00000  Uiso   1.00
H944   H     0.37386   0.50029   0.66247   0.00000  Uiso   1.00
H945   H     0.40599   0.99587   0.61942   0.00000  Uiso   1.00
H946   H     0.41578   0.57443   0.61904   0.00000  Uiso   1.00
H947   H     0.43391   0.55079   0.66372   0.00000  Uiso   1.00
H948   H     0.38422   0.57831   0.66277   0.00000  Uiso   1.00
H949   H     0.42077   0.70340   0.38155   0.00000  Uiso   1.00
H950   H     0.41972   0.66752   0.42234   0.00000  Uiso   1.00
H951   H     0.43990   0.64331   0.33756   0.00000  Uiso   1.00
H952   H     0.43710   0.60781   0.37835   0.00000  Uiso   1.00
H953   H     0.36100   0.62722   0.38800   0.00000  Uiso   1.00
H954   H     0.02392   0.85396   0.46504   0.00000  Uiso   1.00
H955   H     0.37091   0.60604   0.34021   0.00000  Uiso   1.00
H956   H     0.36408   0.66204   0.34633   0.00000  Uiso   1.00
H957   H     0.45336   0.82359   0.62550   0.00000  Uiso   1.00
H958   H     0.46068   0.85531   0.58221   0.00000  Uiso   1.00
H959   H     0.49963   0.87370   0.66257   0.00000  Uiso   1.00
H960   H     0.00404   0.90594   0.61960   0.00000  Uiso   1.00
H961   H     0.42545   0.91581   0.61924   0.00000  Uiso   1.00
H962   H     0.44908   0.93382   0.66395   0.00000  Uiso   1.00
H963   H     0.42161   0.88416   0.66290   0.00000  Uiso   1.00
H964   H     0.29675   0.92080   0.38152   0.00000  Uiso   1.00
H965   H     0.47705   0.64583   0.53528   0.00000  Uiso   1.00
H966   H     0.33267   0.91972   0.42229   0.00000  Uiso   1.00
H967   H     0.35676   0.93997   0.33750   0.00000  Uiso   1.00
H968   H     0.39231   0.93714   0.37826   0.00000  Uiso   1.00
H969   H     0.37307   0.86102   0.38786   0.00000  Uiso   1.00
H970   H     0.39418   0.87099   0.34007   0.00000  Uiso   1.00
H971   H     0.33821   0.86413   0.34623   0.00000  Uiso   1.00
H972   H     0.17643   0.95341   0.62554   0.00000  Uiso   1.00
H973   H     0.14481   0.96071   0.58217   0.00000  Uiso   1.00
H974   H     0.12614   0.99971   0.66247   0.00000  Uiso   1.00
H975   H     0.09401   0.50413   0.61941   0.00000  Uiso   1.00
H976   H     0.14600   0.52395   0.46503   0.00000  Uiso   1.00
H977   H     0.08422   0.92557   0.61904   0.00000  Uiso   1.00
H978   H     0.06609   0.94921   0.66372   0.00000  Uiso   1.00
H979   H     0.11578   0.92169   0.66277   0.00000  Uiso   1.00
H980   H     0.27769   0.57969   0.87607   0.00000  Uiso   1.00
H981   H     0.25683   0.61738   0.91049   0.00000  Uiso   1.00
H982   H     0.22216   0.60177   0.82792   0.00000  Uiso   1.00
H983   H     0.20474   0.64164   0.86158   0.00000  Uiso   1.00
H984   H     0.27676   0.67431   0.86005   0.00000  Uiso   1.00
H985   H     0.25330   0.67159   0.81232   0.00000  Uiso   1.00
H986   H     0.29371   0.63441   0.82576   0.00000  Uiso   1.00
H987   H     0.35421   0.97701   0.53527   0.00000  Uiso   1.00
H988   H     0.33711   0.96368   0.12034   0.00000  Uiso   1.00
H989   H     0.34282   0.93267   0.07674   0.00000  Uiso   1.00
H990   H     0.32705   0.89726   0.15888   0.00000  Uiso   1.00
H991   H     0.33380   0.86686   0.11509   0.00000  Uiso   1.00
H992   H     0.40659   0.89605   0.10717   0.00000  Uiso   1.00
H993   H     0.40011   0.86988   0.15333   0.00000  Uiso   1.00
H994   H     0.39977   0.92663   0.15124   0.00000  Uiso   1.00
H995   H     0.46369   0.83712   0.87965   0.00000  Uiso   1.00
H996   H     0.43271   0.84284   0.92327   0.00000  Uiso   1.00
H997   H     0.39725   0.82708   0.84114   0.00000  Uiso   1.00
H998   H     0.29409   0.90280   0.96456   0.00000  Uiso   1.00
H999   H     0.36689   0.83382   0.88495   0.00000  Uiso   1.00
H1000  H     0.39608   0.90661   0.89287   0.00000  Uiso   1.00
H1001  H     0.36987   0.90014   0.84673   0.00000  Uiso   1.00
H1002  H     0.42662   0.89979   0.84877   0.00000  Uiso   1.00
H1003  H     0.07968   0.77766   0.12394   0.00000  Uiso   1.00
H1004  H     0.11741   0.75678   0.08959   0.00000  Uiso   1.00
H1005  H     0.10164   0.72209   0.17212   0.00000  Uiso   1.00
H1006  H     0.14160   0.70472   0.13853   0.00000  Uiso   1.00
H1007  H     0.17422   0.77677   0.14016   0.00000  Uiso   1.00
H1008  H     0.17142   0.75326   0.18787   0.00000  Uiso   1.00
O1009  O     0.25000   0.50000   0.25000   0.00000  Uiso   1.00
O1010  O     0.25000   0.96538   0.66251   0.00000  Uiso   1.00
O1011  O     0.46539   0.75000   0.33749   0.00000  Uiso   1.00
O1012  O     0.03462   0.75000   0.66251   0.00000  Uiso   1.00
O1013  O     0.00000   0.71538   0.83749   0.00000  Uiso   1.00
O1014  O     0.00000   0.78461   0.16251   0.00000  Uiso   1.00
O1015  O     0.28462   0.50000   0.83749   0.00000  Uiso   1.00
O1016  O     0.21539   0.50000   0.16251   0.00000  Uiso   1.00
O1017  O     0.00000   0.78461   0.83749   0.00000  Uiso   1.00
O1018  O     0.00000   0.71538   0.16251   0.00000  Uiso   1.00
O1019  O     0.21539   0.50000   0.83749   0.00000  Uiso   1.00
O1020  O     0.25000   0.50000   0.75000   0.00000  Uiso   1.00
O1021  O     0.28462   0.50000   0.16251   0.00000  Uiso   1.00
O1022  O     0.20127   0.58332   0.27298   0.00000  Uiso   1.00
O1023  O     0.29874   0.91668   0.72702   0.00000  Uiso   1.00
O1024  O     0.41668   0.70126   0.27298   0.00000  Uiso   1.00
O1025  O     0.08332   0.79873   0.72702   0.00000  Uiso   1.00
O1026  O     0.29874   0.91668   0.27298   0.00000  Uiso   1.00
O1027  O     0.20127   0.58332   0.72702   0.00000  Uiso   1.00
O1028  O     0.08332   0.79873   0.27298   0.00000  Uiso   1.00
O1029  O     0.41668   0.70126   0.72702   0.00000  Uiso   1.00
O1030  O     0.20127   0.91668   0.72702   0.00000  Uiso   1.00
O1031  O     0.00000   0.75000   0.25000   0.00000  Uiso   1.00
O1032  O     0.29874   0.58332   0.27298   0.00000  Uiso   1.00
O1033  O     0.41668   0.79873   0.72702   0.00000  Uiso   1.00
O1034  O     0.08332   0.70126   0.27298   0.00000  Uiso   1.00
O1035  O     0.29874   0.58332   0.72702   0.00000  Uiso   1.00
O1036  O     0.20127   0.91668   0.27298   0.00000  Uiso   1.00
O1037  O     0.08332   0.70126   0.72702   0.00000  Uiso   1.00
O1038  O     0.41668   0.79873   0.27298   0.00000  Uiso   1.00
O1039  O     0.45127   0.83332   0.77298   0.00000  Uiso   1.00
O1040  O     0.04874   0.66668   0.22702   0.00000  Uiso   1.00
O1041  O     0.16668   0.95126   0.77298   0.00000  Uiso   1.00
O1042  O     0.00000   0.75000   0.75000   0.00000  Uiso   1.00
O1043  O     0.33332   0.54873   0.22702   0.00000  Uiso   1.00
O1044  O     0.04874   0.66668   0.77298   0.00000  Uiso   1.00
O1045  O     0.45127   0.83332   0.22702   0.00000  Uiso   1.00
O1046  O     0.33332   0.54873   0.77298   0.00000  Uiso   1.00
O1047  O     0.16668   0.95126   0.22702   0.00000  Uiso   1.00
O1048  O     0.45127   0.66668   0.22702   0.00000  Uiso   1.00
O1049  O     0.04874   0.83332   0.77298   0.00000  Uiso   1.00
O1050  O     0.16668   0.54873   0.22702   0.00000  Uiso   1.00
O1051  O     0.33332   0.95126   0.77298   0.00000  Uiso   1.00
O1052  O     0.04874   0.83332   0.22702   0.00000  Uiso   1.00
O1053  O     0.25000   0.96538   0.33749   0.00000  Uiso   1.00
O1054  O     0.45127   0.66668   0.77298   0.00000  Uiso   1.00
O1055  O     0.33332   0.95126   0.22702   0.00000  Uiso   1.00
O1056  O     0.16668   0.54873   0.77298   0.00000  Uiso   1.00
O1057  O     0.02119   0.82290   0.39757   0.00000  Uiso   1.00
O1058  O     0.48564   0.67536   0.60252   0.00000  Uiso   1.00
O1059  O     0.17706   0.52117   0.39756   0.00000  Uiso   1.00
O1060  O     0.32467   0.98561   0.60252   0.00000  Uiso   1.00
O1061  O     0.47882   0.67710   0.39757   0.00000  Uiso   1.00
O1062  O     0.01436   0.82464   0.60252   0.00000  Uiso   1.00
O1063  O     0.32294   0.97883   0.39756   0.00000  Uiso   1.00
O1064  O     0.25000   0.53461   0.66251   0.00000  Uiso   1.00
O1065  O     0.17533   0.51439   0.60252   0.00000  Uiso   1.00
O1066  O     0.21639   0.56827   0.89748   0.00000  Uiso   1.00
O1067  O     0.28306   0.93154   0.10231   0.00000  Uiso   1.00
O1068  O     0.43156   0.78308   0.89769   0.00000  Uiso   1.00
O1069  O     0.06827   0.71636   0.10252   0.00000  Uiso   1.00
O1070  O     0.28360   0.93172   0.89748   0.00000  Uiso   1.00
O1071  O     0.21695   0.56846   0.10231   0.00000  Uiso   1.00
O1072  O     0.06845   0.71692   0.89769   0.00000  Uiso   1.00
O1073  O     0.43174   0.78366   0.10252   0.00000  Uiso   1.00
O1074  O     0.03462   0.75000   0.33749   0.00000  Uiso   1.00
O1075  O     0.46539   0.75000   0.66251   0.00000  Uiso   1.00
O1076  O     0.25000   0.53461   0.33749   0.00000  Uiso   1.00
Zn1077 Zn    0.20053   0.50000   0.21730   0.00000  Uiso   1.00
Zn1078 Zn    0.04948   0.75000   0.28270   0.00000  Uiso   1.00
Zn1079 Zn    0.25000   0.95052   0.71730   0.00000  Uiso   1.00
Zn1080 Zn    0.25000   0.54947   0.28270   0.00000  Uiso   1.00
Zn1081 Zn    0.04948   0.75000   0.71730   0.00000  Uiso   1.00
Zn1082 Zn    0.45053   0.75000   0.28270   0.00000  Uiso   1.00
Zn1083 Zn    0.25000   0.54947   0.71730   0.00000  Uiso   1.00
Zn1084 Zn    0.25000   0.95052   0.28270   0.00000  Uiso   1.00
Zn1085 Zn    0.29948   0.50000   0.78270   0.00000  Uiso   1.00
Zn1086 Zn    0.00000   0.70052   0.21730   0.00000  Uiso   1.00
Zn1087 Zn    0.00000   0.79947   0.78270   0.00000  Uiso   1.00
Zn1088 Zn    0.29948   0.50000   0.21730   0.00000  Uiso   1.00
Zn1089 Zn    0.20053   0.50000   0.78270   0.00000  Uiso   1.00
Zn1090 Zn    0.00000   0.79947   0.21730   0.00000  Uiso   1.00
Zn1091 Zn    0.00000   0.70052   0.78270   0.00000  Uiso   1.00
Zn1092 Zn    0.45053   0.75000   0.71730   0.00000  Uiso   1.00
C1093  C     0.75000   0.50000   0.35591   0.00000  Uiso   1.00
C1094  C     0.83002   0.91996   0.75002   0.00000  Uiso   1.00
C1095  C     0.93021   0.78181   0.02050   0.00000  Uiso   1.00
C1096  C     0.71821   0.56980   0.97950   0.00000  Uiso   1.00
C1097  C     0.78157   0.93009   0.01991   0.00000  Uiso   1.00
C1098  C     0.93011   0.78158   0.98009   0.00000  Uiso   1.00
C1099  C     0.56980   0.71819   0.02050   0.00000  Uiso   1.00
C1100  C     0.56539   0.82605   0.39367   0.00000  Uiso   1.00
C1101  C     0.57553   0.86237   0.36609   0.00000  Uiso   1.00
C1102  C     0.62288   0.86693   0.35986   0.00000  Uiso   1.00
C1103  C     0.52447   0.65511   0.60993   0.00000  Uiso   1.00
C1104  C     0.51663   0.61649   0.63541   0.00000  Uiso   1.00
C1105  C     0.91995   0.66999   0.24999   0.00000  Uiso   1.00
C1106  C     0.55777   0.59438   0.64596   0.00000  Uiso   1.00
C1107  C     0.67382   0.56537   0.39362   0.00000  Uiso   1.00
C1108  C     0.63750   0.57548   0.36601   0.00000  Uiso   1.00
C1109  C     0.63284   0.62283   0.35974   0.00000  Uiso   1.00
C1110  C     0.84487   0.52443   0.60991   0.00000  Uiso   1.00
C1111  C     0.88358   0.51654   0.63528   0.00000  Uiso   1.00
C1112  C     0.90566   0.55767   0.64579   0.00000  Uiso   1.00
C1113  C     0.93461   0.67395   0.39366   0.00000  Uiso   1.00
C1114  C     0.92447   0.63763   0.36608   0.00000  Uiso   1.00
C1115  C     0.87712   0.63307   0.35986   0.00000  Uiso   1.00
C1116  C     0.58001   0.83005   0.74997   0.00000  Uiso   1.00
C1117  C     0.97553   0.84489   0.60993   0.00000  Uiso   1.00
C1118  C     0.98337   0.88351   0.63541   0.00000  Uiso   1.00
C1119  C     0.94223   0.90562   0.64596   0.00000  Uiso   1.00
C1120  C     0.82619   0.93463   0.39363   0.00000  Uiso   1.00
C1121  C     0.86250   0.92452   0.36601   0.00000  Uiso   1.00
C1122  C     0.86716   0.87717   0.35974   0.00000  Uiso   1.00
C1123  C     0.65513   0.97557   0.60991   0.00000  Uiso   1.00
C1124  C     0.61642   0.98346   0.63528   0.00000  Uiso   1.00
C1125  C     0.59434   0.94233   0.64579   0.00000  Uiso   1.00
C1126  C     0.74856   0.59632   0.88581   0.00000  Uiso   1.00
C1127  C     0.83001   0.91996   0.24997   0.00000  Uiso   1.00
C1128  C     0.73236   0.62289   0.85191   0.00000  Uiso   1.00
C1129  C     0.76626   0.65262   0.83666   0.00000  Uiso   1.00
C1130  C     0.82737   0.93399   0.10574   0.00000  Uiso   1.00
C1131  C     0.84266   0.89663   0.12997   0.00000  Uiso   1.00
C1132  C     0.89028   0.89749   0.13570   0.00000  Uiso   1.00
C1133  C     0.93401   0.82739   0.89426   0.00000  Uiso   1.00
C1134  C     0.89664   0.84268   0.87006   0.00000  Uiso   1.00
C1135  C     0.89749   0.89031   0.86433   0.00000  Uiso   1.00
C1136  C     0.59630   0.74853   0.11423   0.00000  Uiso   1.00
C1137  C     0.62280   0.73233   0.14817   0.00000  Uiso   1.00
C1138  C     0.66998   0.58004   0.75002   0.00000  Uiso   1.00
C1139  C     0.65248   0.76622   0.16351   0.00000  Uiso   1.00
C1140  C     0.75142   0.90368   0.88584   0.00000  Uiso   1.00
C1141  C     0.76765   0.87696   0.85205   0.00000  Uiso   1.00
C1142  C     0.73374   0.84724   0.83681   0.00000  Uiso   1.00
C1143  C     0.67264   0.56601   0.10574   0.00000  Uiso   1.00
C1144  C     0.65735   0.60339   0.12995   0.00000  Uiso   1.00
C1145  C     0.60973   0.60255   0.13567   0.00000  Uiso   1.00
C1146  C     0.56599   0.67261   0.89426   0.00000  Uiso   1.00
C1147  C     0.60335   0.65731   0.87005   0.00000  Uiso   1.00
C1148  C     0.60248   0.60969   0.86431   0.00000  Uiso   1.00
C1149  C     0.58005   0.83001   0.24999   0.00000  Uiso   1.00
C1150  C     0.90371   0.75151   0.11427   0.00000  Uiso   1.00
C1151  C     0.87743   0.76764   0.14838   0.00000  Uiso   1.00
C1152  C     0.84773   0.73377   0.16373   0.00000  Uiso   1.00
C1153  C     0.91999   0.66995   0.74997   0.00000  Uiso   1.00
C1154  C     0.66996   0.91998   0.74999   0.00000  Uiso   1.00
C1155  C     0.83003   0.58004   0.25000   0.00000  Uiso   1.00
C1156  C     0.91998   0.83004   0.75000   0.00000  Uiso   1.00
C1157  C     0.75000   0.50000   0.64416   0.00000  Uiso   1.00
C1158  C     0.58006   0.67000   0.24995   0.00000  Uiso   1.00
C1159  C     0.83004   0.58002   0.74999   0.00000  Uiso   1.00
C1160  C     0.66997   0.91996   0.25000   0.00000  Uiso   1.00
C1161  C     0.58002   0.66996   0.75000   0.00000  Uiso   1.00
C1162  C     0.91994   0.83000   0.24995   0.00000  Uiso   1.00
C1163  C     0.63835   0.88830   0.24998   0.00000  Uiso   1.00
C1164  C     0.86169   0.61165   0.74997   0.00000  Uiso   1.00
C1165  C     0.61173   0.63839   0.24989   0.00000  Uiso   1.00
C1166  C     0.88833   0.86167   0.75004   0.00000  Uiso   1.00
C1167  C     0.86165   0.61170   0.24998   0.00000  Uiso   1.00
C1168  C     0.50000   0.75000   0.35591   0.00000  Uiso   1.00
C1169  C     0.63831   0.88835   0.74997   0.00000  Uiso   1.00
C1170  C     0.88827   0.86161   0.24989   0.00000  Uiso   1.00
C1171  C     0.61167   0.63833   0.75004   0.00000  Uiso   1.00
C1172  C     0.63834   0.61168   0.75005   0.00000  Uiso   1.00
C1173  C     0.86162   0.88828   0.24991   0.00000  Uiso   1.00
C1174  C     0.61165   0.86170   0.74996   0.00000  Uiso   1.00
C1175  C     0.88831   0.63836   0.24998   0.00000  Uiso   1.00
C1176  C     0.86166   0.88832   0.75005   0.00000  Uiso   1.00
C1177  C     0.63838   0.61172   0.24991   0.00000  Uiso   1.00
C1178  C     0.88835   0.63830   0.74996   0.00000  Uiso   1.00
C1179  C     0.50000   0.75000   0.64416   0.00000  Uiso   1.00
C1180  C     0.61169   0.86164   0.24998   0.00000  Uiso   1.00
C1181  C     0.51162   0.78674   0.41830   0.00000  Uiso   1.00
C1182  C     0.99328   0.71206   0.58192   0.00000  Uiso   1.00
C1183  C     0.71323   0.51162   0.41829   0.00000  Uiso   1.00
C1184  C     0.78795   0.99326   0.58192   0.00000  Uiso   1.00
C1185  C     0.98838   0.71326   0.41830   0.00000  Uiso   1.00
C1186  C     0.50672   0.78794   0.58192   0.00000  Uiso   1.00
C1187  C     0.78677   0.98838   0.41829   0.00000  Uiso   1.00
C1188  C     0.71205   0.50674   0.58192   0.00000  Uiso   1.00
C1189  C     0.73398   0.53509   0.91801   0.00000  Uiso   1.00
C1190  C     0.50000   0.75000   0.85594   0.00000  Uiso   1.00
C1191  C     0.76832   0.96600   0.08162   0.00000  Uiso   1.00
C1192  C     0.96601   0.76833   0.91839   0.00000  Uiso   1.00
C1193  C     0.53509   0.73397   0.08199   0.00000  Uiso   1.00
C1194  C     0.76602   0.96491   0.91801   0.00000  Uiso   1.00
C1195  C     0.73168   0.53400   0.08162   0.00000  Uiso   1.00
C1196  C     0.53400   0.73167   0.91839   0.00000  Uiso   1.00
C1197  C     0.96492   0.76604   0.08199   0.00000  Uiso   1.00
C1198  C     0.50000   0.75000   0.39823   0.00000  Uiso   1.00
C1199  C     0.50000   0.75000   0.60194   0.00000  Uiso   1.00
C1200  C     0.75000   0.50000   0.39823   0.00000  Uiso   1.00
C1201  C     0.50000   0.75000   0.14419   0.00000  Uiso   1.00
C1202  C     0.75000   0.50000   0.60194   0.00000  Uiso   1.00
C1203  C     0.75000   0.50000   0.89801   0.00000  Uiso   1.00
C1204  C     0.75000   0.50000   0.10169   0.00000  Uiso   1.00
C1205  C     0.50000   0.75000   0.89831   0.00000  Uiso   1.00
C1206  C     0.50000   0.75000   0.10199   0.00000  Uiso   1.00
C1207  C     0.99031   0.71260   0.45914   0.00000  Uiso   1.00
C1208  C     0.50798   0.78780   0.54110   0.00000  Uiso   1.00
C1209  C     0.78741   0.99030   0.45914   0.00000  Uiso   1.00
C1210  C     0.71218   0.50800   0.54109   0.00000  Uiso   1.00
C1211  C     0.50969   0.78740   0.45914   0.00000  Uiso   1.00
C1212  C     0.75000   0.50000   0.85582   0.00000  Uiso   1.00
C1213  C     0.99202   0.71220   0.54110   0.00000  Uiso   1.00
C1214  C     0.71259   0.50970   0.45914   0.00000  Uiso   1.00
C1215  C     0.78782   0.99200   0.54110   0.00000  Uiso   1.00
C1216  C     0.76622   0.96489   0.95880   0.00000  Uiso   1.00
C1217  C     0.73326   0.53486   0.04075   0.00000  Uiso   1.00
C1218  C     0.53486   0.73325   0.95926   0.00000  Uiso   1.00
C1219  C     0.96490   0.76623   0.04120   0.00000  Uiso   1.00
C1220  C     0.73378   0.53510   0.95880   0.00000  Uiso   1.00
C1221  C     0.76674   0.96514   0.04075   0.00000  Uiso   1.00
C1222  C     0.96515   0.76675   0.95926   0.00000  Uiso   1.00
C1223  C     0.75000   0.50000   0.14406   0.00000  Uiso   1.00
C1224  C     0.53510   0.73377   0.04120   0.00000  Uiso   1.00
C1225  C     0.50000   0.75000   0.47960   0.00000  Uiso   1.00
C1226  C     0.50000   0.75000   0.52064   0.00000  Uiso   1.00
C1227  C     0.75000   0.50000   0.47959   0.00000  Uiso   1.00
C1228  C     0.75000   0.50000   0.52063   0.00000  Uiso   1.00
C1229  C     0.75000   0.50000   0.97926   0.00000  Uiso   1.00
C1230  C     0.75000   0.50000   0.02030   0.00000  Uiso   1.00
C1231  C     0.50000   0.75000   0.97970   0.00000  Uiso   1.00
C1232  C     0.50000   0.75000   0.02074   0.00000  Uiso   1.00
C1233  C     0.98260   0.67535   0.47992   0.00000  Uiso   1.00
C1234  C     0.66999   0.58004   0.24997   0.00000  Uiso   1.00
C1235  C     0.51663   0.82483   0.52035   0.00000  Uiso   1.00
C1236  C     0.82468   0.98257   0.47992   0.00000  Uiso   1.00
C1237  C     0.67514   0.51666   0.52035   0.00000  Uiso   1.00
C1238  C     0.51740   0.82465   0.47992   0.00000  Uiso   1.00
C1239  C     0.98337   0.67517   0.52035   0.00000  Uiso   1.00
C1240  C     0.67532   0.51743   0.47991   0.00000  Uiso   1.00
C1241  C     0.82486   0.98334   0.52035   0.00000  Uiso   1.00
C1242  C     0.78179   0.93019   0.97950   0.00000  Uiso   1.00
C1243  C     0.71844   0.56990   0.01991   0.00000  Uiso   1.00
C1244  C     0.56990   0.71842   0.98009   0.00000  Uiso   1.00
H1245  H     0.97609   0.64604   0.46504   0.00000  Uiso   1.00
H1246  H     0.70682   0.59767   0.03468   0.00000  Uiso   1.00
H1247  H     0.63423   0.79365   0.17440   0.00000  Uiso   1.00
H1248  H     0.72234   0.92031   0.87599   0.00000  Uiso   1.00
H1249  H     0.74306   0.88271   0.91056   0.00000  Uiso   1.00
H1250  H     0.77796   0.89797   0.82803   0.00000  Uiso   1.00
H1251  H     0.79521   0.85819   0.86184   0.00000  Uiso   1.00
H1252  H     0.72313   0.82565   0.86024   0.00000  Uiso   1.00
H1253  H     0.74673   0.82815   0.81256   0.00000  Uiso   1.00
H1254  H     0.70636   0.86546   0.82578   0.00000  Uiso   1.00
H1255  H     0.66289   0.53633   0.12035   0.00000  Uiso   1.00
H1256  H     0.65719   0.56733   0.07674   0.00000  Uiso   1.00
H1257  H     0.59766   0.70679   0.96532   0.00000  Uiso   1.00
H1258  H     0.67295   0.60275   0.15887   0.00000  Uiso   1.00
H1259  H     0.66623   0.63314   0.11508   0.00000  Uiso   1.00
H1260  H     0.59343   0.60400   0.10713   0.00000  Uiso   1.00
H1261  H     0.59990   0.63016   0.15330   0.00000  Uiso   1.00
H1262  H     0.60022   0.57341   0.15121   0.00000  Uiso   1.00
H1263  H     0.53630   0.66288   0.87966   0.00000  Uiso   1.00
H1264  H     0.56729   0.65716   0.92327   0.00000  Uiso   1.00
H1265  H     0.60274   0.67292   0.84113   0.00000  Uiso   1.00
H1266  H     0.63311   0.66616   0.88493   0.00000  Uiso   1.00
H1267  H     0.60390   0.59338   0.89285   0.00000  Uiso   1.00
H1268  H     0.90281   0.79411   0.03544   0.00000  Uiso   1.00
H1269  H     0.63010   0.59985   0.84670   0.00000  Uiso   1.00
H1270  H     0.57335   0.60021   0.84875   0.00000  Uiso   1.00
H1271  H     0.92032   0.72229   0.12381   0.00000  Uiso   1.00
H1272  H     0.88245   0.74339   0.08969   0.00000  Uiso   1.00
H1273  H     0.89875   0.77772   0.17226   0.00000  Uiso   1.00
H1274  H     0.85866   0.79534   0.13892   0.00000  Uiso   1.00
H1275  H     0.82584   0.72340   0.14045   0.00000  Uiso   1.00
H1276  H     0.82898   0.74667   0.18823   0.00000  Uiso   1.00
H1277  H     0.86597   0.70624   0.17443   0.00000  Uiso   1.00
H1278  H     0.70591   0.59720   0.96456   0.00000  Uiso   1.00
H1279  H     0.79318   0.90233   0.03468   0.00000  Uiso   1.00
H1280  H     0.90234   0.79321   0.96532   0.00000  Uiso   1.00
H1281  H     0.59719   0.70589   0.03544   0.00000  Uiso   1.00
H1282  H     0.57923   0.79660   0.38155   0.00000  Uiso   1.00
H1283  H     0.58028   0.83247   0.42234   0.00000  Uiso   1.00
H1284  H     0.56010   0.85669   0.33756   0.00000  Uiso   1.00
H1285  H     0.52295   0.85417   0.53528   0.00000  Uiso   1.00
H1286  H     0.56290   0.89219   0.37836   0.00000  Uiso   1.00
H1287  H     0.63901   0.87277   0.38800   0.00000  Uiso   1.00
H1288  H     0.62909   0.89395   0.34022   0.00000  Uiso   1.00
H1289  H     0.63592   0.83796   0.34633   0.00000  Uiso   1.00
H1290  H     0.54664   0.67641   0.62550   0.00000  Uiso   1.00
H1291  H     0.53932   0.64469   0.58221   0.00000  Uiso   1.00
H1292  H     0.50037   0.62630   0.66257   0.00000  Uiso   1.00
H1293  H     0.99596   0.59406   0.61960   0.00000  Uiso   1.00
H1294  H     0.57455   0.58419   0.61924   0.00000  Uiso   1.00
H1295  H     0.55092   0.56618   0.66395   0.00000  Uiso   1.00
H1296  H     0.85400   0.97605   0.46504   0.00000  Uiso   1.00
H1297  H     0.57839   0.61585   0.66290   0.00000  Uiso   1.00
H1298  H     0.70325   0.57920   0.38152   0.00000  Uiso   1.00
H1299  H     0.66733   0.58028   0.42229   0.00000  Uiso   1.00
H1300  H     0.64324   0.56003   0.33750   0.00000  Uiso   1.00
H1301  H     0.60769   0.56286   0.37826   0.00000  Uiso   1.00
H1302  H     0.62694   0.63898   0.38787   0.00000  Uiso   1.00
H1303  H     0.60582   0.62901   0.34007   0.00000  Uiso   1.00
H1304  H     0.66180   0.63587   0.34623   0.00000  Uiso   1.00
H1305  H     0.82357   0.54659   0.62553   0.00000  Uiso   1.00
H1306  H     0.85519   0.53929   0.58216   0.00000  Uiso   1.00
H1307  H     0.64579   0.52299   0.53527   0.00000  Uiso   1.00
H1308  H     0.87386   0.50029   0.66247   0.00000  Uiso   1.00
H1309  H     0.90599   0.99587   0.61942   0.00000  Uiso   1.00
H1310  H     0.91578   0.57443   0.61904   0.00000  Uiso   1.00
H1311  H     0.93391   0.55079   0.66372   0.00000  Uiso   1.00
H1312  H     0.88422   0.57831   0.66277   0.00000  Uiso   1.00
H1313  H     0.92077   0.70340   0.38155   0.00000  Uiso   1.00
H1314  H     0.91972   0.66752   0.42234   0.00000  Uiso   1.00
H1315  H     0.93990   0.64331   0.33756   0.00000  Uiso   1.00
H1316  H     0.93710   0.60781   0.37835   0.00000  Uiso   1.00
H1317  H     0.86100   0.62722   0.38800   0.00000  Uiso   1.00
H1318  H     0.52392   0.85396   0.46504   0.00000  Uiso   1.00
H1319  H     0.87091   0.60604   0.34021   0.00000  Uiso   1.00
H1320  H     0.86408   0.66204   0.34633   0.00000  Uiso   1.00
H1321  H     0.95336   0.82359   0.62550   0.00000  Uiso   1.00
H1322  H     0.96068   0.85531   0.58221   0.00000  Uiso   1.00
H1323  H     0.99963   0.87370   0.66257   0.00000  Uiso   1.00
H1324  H     0.50404   0.90594   0.61960   0.00000  Uiso   1.00
H1325  H     0.92545   0.91581   0.61924   0.00000  Uiso   1.00
H1326  H     0.94908   0.93382   0.66395   0.00000  Uiso   1.00
H1327  H     0.92161   0.88416   0.66290   0.00000  Uiso   1.00
H1328  H     0.79675   0.92080   0.38152   0.00000  Uiso   1.00
H1329  H     0.97705   0.64583   0.53528   0.00000  Uiso   1.00
H1330  H     0.83267   0.91972   0.42229   0.00000  Uiso   1.00
H1331  H     0.85676   0.93997   0.33750   0.00000  Uiso   1.00
H1332  H     0.89231   0.93714   0.37826   0.00000  Uiso   1.00
H1333  H     0.87307   0.86102   0.38786   0.00000  Uiso   1.00
H1334  H     0.89418   0.87099   0.34007   0.00000  Uiso   1.00
H1335  H     0.83821   0.86413   0.34623   0.00000  Uiso   1.00
H1336  H     0.67643   0.95341   0.62554   0.00000  Uiso   1.00
H1337  H     0.64481   0.96071   0.58217   0.00000  Uiso   1.00
H1338  H     0.62614   0.99971   0.66247   0.00000  Uiso   1.00
H1339  H     0.59401   0.50413   0.61941   0.00000  Uiso   1.00
H1340  H     0.64600   0.52395   0.46503   0.00000  Uiso   1.00
H1341  H     0.58422   0.92557   0.61904   0.00000  Uiso   1.00
H1342  H     0.56609   0.94921   0.66372   0.00000  Uiso   1.00
H1343  H     0.61578   0.92169   0.66277   0.00000  Uiso   1.00
H1344  H     0.77769   0.57969   0.87607   0.00000  Uiso   1.00
H1345  H     0.75683   0.61738   0.91049   0.00000  Uiso   1.00
H1346  H     0.72216   0.60177   0.82792   0.00000  Uiso   1.00
H1347  H     0.70474   0.64164   0.86158   0.00000  Uiso   1.00
H1348  H     0.77676   0.67431   0.86005   0.00000  Uiso   1.00
H1349  H     0.75330   0.67159   0.81232   0.00000  Uiso   1.00
H1350  H     0.79371   0.63441   0.82576   0.00000  Uiso   1.00
H1351  H     0.85421   0.97701   0.53527   0.00000  Uiso   1.00
H1352  H     0.83711   0.96368   0.12034   0.00000  Uiso   1.00
H1353  H     0.84282   0.93267   0.07674   0.00000  Uiso   1.00
H1354  H     0.82705   0.89726   0.15888   0.00000  Uiso   1.00
H1355  H     0.83380   0.86686   0.11509   0.00000  Uiso   1.00
H1356  H     0.90659   0.89605   0.10717   0.00000  Uiso   1.00
H1357  H     0.90011   0.86988   0.15333   0.00000  Uiso   1.00
H1358  H     0.89977   0.92663   0.15124   0.00000  Uiso   1.00
H1359  H     0.96369   0.83712   0.87965   0.00000  Uiso   1.00
H1360  H     0.93271   0.84284   0.92327   0.00000  Uiso   1.00
H1361  H     0.89725   0.82708   0.84114   0.00000  Uiso   1.00
H1362  H     0.79409   0.90280   0.96456   0.00000  Uiso   1.00
H1363  H     0.86689   0.83382   0.88495   0.00000  Uiso   1.00
H1364  H     0.89608   0.90661   0.89287   0.00000  Uiso   1.00
H1365  H     0.86987   0.90014   0.84673   0.00000  Uiso   1.00
H1366  H     0.92662   0.89979   0.84877   0.00000  Uiso   1.00
H1367  H     0.57968   0.77766   0.12394   0.00000  Uiso   1.00
H1368  H     0.61741   0.75678   0.08959   0.00000  Uiso   1.00
H1369  H     0.60164   0.72209   0.17212   0.00000  Uiso   1.00
H1370  H     0.64160   0.70472   0.13853   0.00000  Uiso   1.00
H1371  H     0.67422   0.77677   0.14016   0.00000  Uiso   1.00
H1372  H     0.67142   0.75326   0.18787   0.00000  Uiso   1.00
O1373  O     0.75000   0.50000   0.25000   0.00000  Uiso   1.00
O1374  O     0.75000   0.96538   0.66251   0.00000  Uiso   1.00
O1375  O     0.96539   0.75000   0.33749   0.00000  Uiso   1.00
O1376  O     0.53462   0.75000   0.66251   0.00000  Uiso   1.00
O1377  O     0.50000   0.71538   0.83749   0.00000  Uiso   1.00
O1378  O     0.50000   0.78461   0.16251   0.00000  Uiso   1.00
O1379  O     0.78462   0.50000   0.83749   0.00000  Uiso   1.00
O1380  O     0.71539   0.50000   0.16251   0.00000  Uiso   1.00
O1381  O     0.50000   0.78461   0.83749   0.00000  Uiso   1.00
O1382  O     0.50000   0.71538   0.16251   0.00000  Uiso   1.00
O1383  O     0.71539   0.50000   0.83749   0.00000  Uiso   1.00
O1384  O     0.75000   0.50000   0.75000   0.00000  Uiso   1.00
O1385  O     0.78462   0.50000   0.16251   0.00000  Uiso   1.00
O1386  O     0.70127   0.58332   0.27298   0.00000  Uiso   1.00
O1387  O     0.79874   0.91668   0.72702   0.00000  Uiso   1.00
O1388  O     0.91668   0.70126   0.27298   0.00000  Uiso   1.00
O1389  O     0.58332   0.79873   0.72702   0.00000  Uiso   1.00
O1390  O     0.79874   0.91668   0.27298   0.00000  Uiso   1.00
O1391  O     0.70127   0.58332   0.72702   0.00000  Uiso   1.00
O1392  O     0.58332   0.79873   0.27298   0.00000  Uiso   1.00
O1393  O     0.91668   0.70126   0.72702   0.00000  Uiso   1.00
O1394  O     0.70127   0.91668   0.72702   0.00000  Uiso   1.00
O1395  O     0.50000   0.75000   0.25000   0.00000  Uiso   1.00
O1396  O     0.79874   0.58332   0.27298   0.00000  Uiso   1.00
O1397  O     0.91668   0.79873   0.72702   0.00000  Uiso   1.00
O1398  O     0.58332   0.70126   0.27298   0.00000  Uiso   1.00
O1399  O     0.79874   0.58332   0.72702   0.00000  Uiso   1.00
O1400  O     0.70127   0.91668   0.27298   0.00000  Uiso   1.00
O1401  O     0.58332   0.70126   0.72702   0.00000  Uiso   1.00
O1402  O     0.91668   0.79873   0.27298   0.00000  Uiso   1.00
O1403  O     0.95127   0.83332   0.77298   0.00000  Uiso   1.00
O1404  O     0.54874   0.66668   0.22702   0.00000  Uiso   1.00
O1405  O     0.66668   0.95126   0.77298   0.00000  Uiso   1.00
O1406  O     0.50000   0.75000   0.75000   0.00000  Uiso   1.00
O1407  O     0.83332   0.54873   0.22702   0.00000  Uiso   1.00
O1408  O     0.54874   0.66668   0.77298   0.00000  Uiso   1.00
O1409  O     0.95127   0.83332   0.22702   0.00000  Uiso   1.00
O1410  O     0.83332   0.54873   0.77298   0.00000  Uiso   1.00
O1411  O     0.66668   0.95126   0.22702   0.00000  Uiso   1.00
O1412  O     0.95127   0.66668   0.22702   0.00000  Uiso   1.00
O1413  O     0.54874   0.83332   0.77298   0.00000  Uiso   1.00
O1414  O     0.66668   0.54873   0.22702   0.00000  Uiso   1.00
O1415  O     0.83332   0.95126   0.77298   0.00000  Uiso   1.00
O1416  O     0.54874   0.83332   0.22702   0.00000  Uiso   1.00
O1417  O     0.75000   0.96538   0.33749   0.00000  Uiso   1.00
O1418  O     0.95127   0.66668   0.77298   0.00000  Uiso   1.00
O1419  O     0.83332   0.95126   0.22702   0.00000  Uiso   1.00
O1420  O     0.66668   0.54873   0.77298   0.00000  Uiso   1.00
O1421  O     0.52119   0.82290   0.39757   0.00000  Uiso   1.00
O1422  O     0.98564   0.67536   0.60252   0.00000  Uiso   1.00
O1423  O     0.67706   0.52117   0.39756   0.00000  Uiso   1.00
O1424  O     0.82467   0.98561   0.60252   0.00000  Uiso   1.00
O1425  O     0.97882   0.67710   0.39757   0.00000  Uiso   1.00
O1426  O     0.51436   0.82464   0.60252   0.00000  Uiso   1.00
O1427  O     0.82294   0.97883   0.39756   0.00000  Uiso   1.00
O1428  O     0.75000   0.53461   0.66251   0.00000  Uiso   1.00
O1429  O     0.67533   0.51439   0.60252   0.00000  Uiso   1.00
O1430  O     0.71639   0.56827   0.89748   0.00000  Uiso   1.00
O1431  O     0.78306   0.93154   0.10231   0.00000  Uiso   1.00
O1432  O     0.93156   0.78308   0.89769   0.00000  Uiso   1.00
O1433  O     0.56827   0.71636   0.10252   0.00000  Uiso   1.00
O1434  O     0.78360   0.93172   0.89748   0.00000  Uiso   1.00
O1435  O     0.71695   0.56846   0.10231   0.00000  Uiso   1.00
O1436  O     0.56845   0.71692   0.89769   0.00000  Uiso   1.00
O1437  O     0.93174   0.78366   0.10252   0.00000  Uiso   1.00
O1438  O     0.53462   0.75000   0.33749   0.00000  Uiso   1.00
O1439  O     0.96539   0.75000   0.66251   0.00000  Uiso   1.00
O1440  O     0.75000   0.53461   0.33749   0.00000  Uiso   1.00
Zn1441 Zn    0.70053   0.50000   0.21730   0.00000  Uiso   1.00
Zn1442 Zn    0.54948   0.75000   0.28270   0.00000  Uiso   1.00
Zn1443 Zn    0.75000   0.95052   0.71730   0.00000  Uiso   1.00
Zn1444 Zn    0.75000   0.54947   0.28270   0.00000  Uiso   1.00
Zn1445 Zn    0.54948   0.75000   0.71730   0.00000  Uiso   1.00
Zn1446 Zn    0.95053   0.75000   0.28270   0.00000  Uiso   1.00
Zn1447 Zn    0.75000   0.54947   0.71730   0.00000  Uiso   1.00
Zn1448 Zn    0.75000   0.95052   0.28270   0.00000  Uiso   1.00
Zn1449 Zn    0.79948   0.50000   0.78270   0.00000  Uiso   1.00
Zn1450 Zn    0.50000   0.70052   0.21730   0.00000  Uiso   1.00
Zn1451 Zn    0.50000   0.79947   0.78270   0.00000  Uiso   1.00
Zn1452 Zn    0.79948   0.50000   0.21730   0.00000  Uiso   1.00
Zn1453 Zn    0.70053   0.50000   0.78270   0.00000  Uiso   1.00
Zn1454 Zn    0.50000   0.79947   0.21730   0.00000  Uiso   1.00
Zn1455 Zn    0.50000   0.70052   0.78270   0.00000  Uiso   1.00
Zn1456 Zn    0.95053   0.75000   0.71730   0.00000  Uiso   1.00
loop_
_geom_bond_atom_site_label_1
_geom_bond_atom_site_label_2
_geom_bond_distance
_geom_bond_site_symmetry_2
_ccdc_geom_bond_type
C1     O348    1.269   .     A
C1     C108    1.456   .     S
C1     O1053   1.269   1_545 S
C2     O295    1.275   .     A
C2     O323    1.274   .     A
C2     C84     1.421   .     S
C3     H176    1.083   .     S
C3     C127    1.402   .     A
C3     C6      1.390   1_554 S
C4     H186    1.083   .     S
C4     C128    1.402   .     A
C4     C151    1.390   1_556 S
C5     C129    1.405   .     A
C5     H187    1.082   .     S
C5     C150    1.390   1_554 S
C6     H188    1.082   .     S
C6     C130    1.405   .     A
C6     C3      1.390   1_556 S
C7     C132    1.402   .     A
C7     H189    1.083   .     S
C7     C152    1.390   1_554 S
C8     H190    1.114   .     S
C8     O329    1.414   .     S
C8     H191    1.113   .     S
C8     C9      1.528   .     S
C9     C10     1.526   .     S
C9     H194    1.112   .     S
C9     H192    1.112   .     S
C10    H196    1.110   .     S
C10    H197    1.111   .     S
C10    H195    1.111   .     S
C11    H198    1.114   .     S
C11    H199    1.114   .     S
C11    C12     1.528   .     S
C11    O694    1.414   1_455 S
C12    H200    1.112   .     S
C12    C14     1.527   .     S
C12    H565    1.111   1_455 S
C13    O320    1.274   .     A
C13    O296    1.274   .     A
C13    C83     1.422   .     S
C14    H202    1.111   .     S
C14    H205    1.111   .     S
C14    H203    1.111   .     S
C15    H206    1.114   .     S
C15    H207    1.113   .     S
C15    O331    1.414   .     S
C15    C16     1.528   .     S
C16    C17     1.526   .     S
C16    H209    1.112   .     S
C16    H208    1.112   .     S
C17    H210    1.111   .     S
C17    H212    1.111   .     S
C17    H211    1.110   .     S
C18    H214    1.114   .     S
C18    C19     1.528   .     S
C18    H213    1.114   .     S
C18    O1060   1.414   1_545 S
C19    C20     1.527   .     S
C19    H216    1.112   .     S
C19    H945    1.111   1_545 S
C20    H219    1.110   .     S
C20    H218    1.111   .     S
C20    H220    1.111   .     S
C21    H221    1.114   .     S
C21    C22     1.528   .     S
C21    H222    1.113   .     S
C21    O333    1.414   .     S
C22    C23     1.526   .     S
C22    H224    1.112   .     S
C22    H223    1.112   .     S
C23    H225    1.111   .     S
C23    H228    1.111   .     S
C23    H227    1.110   .     S
C24    O297    1.274   .     A
C24    O321    1.274   .     A
C24    C82     1.422   .     S
C25    H230    1.114   .     S
C25    C26     1.528   .     S
C25    H229    1.114   .     S
C25    O698    1.414   .     S
C26    H231    1.112   .     S
C26    C27     1.527   .     S
C26    H596    1.111   .     S
C27    H234    1.110   .     S
C27    H235    1.111   .     S
C27    H233    1.111   .     S
C28    O335    1.414   .     S
C28    H236    1.114   .     S
C28    C29     1.528   .     S
C28    H238    1.113   .     S
C29    C30     1.526   .     S
C29    H240    1.112   .     S
C29    H239    1.112   .     S
C30    H241    1.111   .     S
C30    H242    1.110   .     S
C30    H243    1.111   .     S
C31    C32     1.528   .     S
C31    H244    1.114   .     S
C31    H245    1.114   .     S
C31    O1065   1.414   .     S
C32    C33     1.527   .     S
C32    H246    1.112   .     S
C32    H975    1.111   .     S
C33    H250    1.110   .     S
C33    H249    1.111   .     S
C33    H251    1.111   .     S
C34    H253    1.113   .     S
C34    C36     1.528   .     S
C34    O338    1.414   .     S
C34    H252    1.116   .     S
C35    O298    1.274   .     A
C35    O327    1.274   .     A
C35    C81     1.421   .     S
C36    H255    1.111   .     S
C36    C37     1.526   .     S
C36    H254    1.112   .     S
C37    H257    1.110   .     S
C37    H256    1.111   .     S
C37    H258    1.111   .     S
C38    H260    1.113   .     S
C38    C39     1.529   .     S
C38    H261    1.113   .     S
C38    O339    1.415   .     S
C39    C40     1.526   .     S
C39    H262    1.111   .     S
C39    H263    1.111   .     S
C40    H265    1.111   .     S
C40    H266    1.111   .     S
C40    H264    1.111   .     S
C41    H267    1.112   .     S
C41    C42     1.529   .     S
C41    H268    1.113   .     S
C41    O340    1.415   .     S
C42    H271    1.111   .     S
C42    H269    1.112   .     S
C42    C43     1.526   .     S
C43    H274    1.111   .     S
C43    H272    1.111   .     S
C43    H273    1.111   .     S
C44    H276    1.112   .     S
C44    C45     1.528   .     S
C44    H275    1.116   .     S
C44    O341    1.414   .     S
C45    C47     1.526   .     S
C45    H277    1.112   .     S
C45    H278    1.111   .     S
C46    C80     1.421   .     S
C46    O299    1.275   .     A
C46    O328    1.274   .     A
C47    H280    1.110   .     S
C47    H279    1.111   .     S
C47    H155    1.111   .     S
C48    O342    1.414   .     S
C48    H156    1.116   .     S
C48    C49     1.528   .     S
C48    H157    1.113   .     S
C49    C50     1.526   .     S
C49    H159    1.111   .     S
C49    H158    1.112   .     S
C50    H160    1.111   .     S
C50    H162    1.111   .     S
C50    H161    1.110   .     S
C51    C52     1.529   .     S
C51    H164    1.113   .     S
C51    O343    1.415   .     S
C51    H163    1.112   .     S
C52    C53     1.526   .     S
C52    H167    1.111   .     S
C52    H166    1.112   .     S
C53    H170    1.111   .     S
C53    H168    1.111   .     S
C53    H169    1.111   .     S
C54    H172    1.113   .     S
C54    C55     1.529   .     S
C54    O344    1.415   .     S
C54    H171    1.113   .     S
C55    H173    1.112   .     S
C55    C56     1.526   .     S
C55    H174    1.111   .     S
C56    H178    1.111   .     S
C56    H177    1.111   .     S
C56    H175    1.111   .     S
C57    O300    1.274   .     A
C57    O324    1.274   .     A
C57    C88     1.422   .     S
C58    H180    1.112   .     S
C58    O345    1.415   .     S
C58    C59     1.528   .     S
C58    H179    1.116   .     S
C59    C60     1.526   .     S
C59    H182    1.111   .     S
C59    H181    1.112   .     S
C60    H184    1.110   .     S
C60    H185    1.111   .     S
C60    H183    1.111   .     S
C61    O301    1.274   .     A
C61    C86     1.422   .     S
C61    O326    1.274   .     A
C62    C77     1.422   .     S
C62    O313    1.274   .     A
C62    O302    1.274   .     A
C63    O315    1.274   .     A
C63    O304    1.274   .     A
C63    C75     1.422   .     S
C64    O311    1.274   .     A
C64    O305    1.275   .     A
C64    C74     1.421   .     S
C65    O336    1.268   .     A
C65    C110    1.452   .     S
C65    O1010   1.268   1_545 S
C66    O306    1.275   .     A
C66    O312    1.274   .     A
C66    C73     1.421   .     S
C67    O318    1.274   .     A
C67    O307    1.274   .     A
C67    C72     1.422   .     S
C68    O308    1.274   .     A
C68    C71     1.422   .     S
C68    O319    1.274   .     A
C69    O316    1.274   .     A
C69    C79     1.421   .     S
C69    O309    1.275   .     A
C70    O310    1.275   .     A
C70    C78     1.421   .     S
C70    O317    1.274   .     A
C71    C88     1.198   .     T
C72    C86     1.198   .     T
C73    C85     1.197   .     T
C74    C84     1.197   .     T
C75    C83     1.198   .     T
C76    O346    1.269   .     A
C76    C106    1.456   .     S
C76    O647    1.269   1_455 S
C77    C82     1.198   .     T
C78    C81     1.197   .     T
C79    C80     1.197   .     T
C85    C142    1.421   .     S
C87    C107    1.452   .     S
C87    O711    1.268   1_455 A
C87    O284    1.268   .     S
C89    C106    1.406   .     A
C89    C119    1.407   .     A
C89    O329    1.386   .     S
C90    C471    1.405   .     A
C90    O330    1.386   .     S
C90    C121    1.405   .     A
C91    O331    1.386   .     S
C91    C122    1.407   .     A
C91    C108    1.406   .     A
C92    C123    1.405   .     A
C92    O332    1.386   .     S
C92    C838    1.405   .     A
C93    O333    1.386   .     S
C93    C115    1.407   .     A
C93    C470    1.406   .     S
C94    O334    1.386   .     S
C94    C116    1.405   .     A
C94    C107    1.405   .     S
C95    C117    1.407   .     A
C95    O335    1.386   .     S
C95    C836    1.406   .     S
C96    O337    1.386   .     S
C96    C118    1.405   .     A
C96    C110    1.405   .     S
C97    C128    1.403   .     A
C97    O338    1.386   .     S
C97    C111    1.405   .     S
C98    C113    1.458   .     S
C98    O285    1.270   .     S
C98    O289    1.270   .     S
C99    C129    1.407   .     A
C99    O339    1.387   .     S
C99    C840    1.407   .     A
C100   C130    1.407   .     A
C100   O340    1.387   .     S
C100   C477    1.407   .     S
C101   C132    1.403   .     A
C101   C114    1.405   .     A
C101   O341    1.386   .     S
C102   C839    1.405   .     A
C102   C124    1.403   .     A
C102   O342    1.386   .     S
C103   C125    1.407   .     A
C103   O343    1.387   .     S
C103   C112    1.407   .     S
C104   O344    1.387   .     S
C104   C113    1.407   .     A
C104   C126    1.407   .     A
C105   C127    1.403   .     A
C105   O345    1.386   .     S
C105   C478    1.405   .     S
C106   C457    1.406   1_455 S
C107   C454    1.405   1_455 A
C108   C823    1.406   1_545 S
C109   C114    1.452   .     S
C109   O286    1.267   .     S
C109   O290    1.267   .     S
C110   C820    1.405   1_545 A
C111   C830    1.405   1_545 A
C111   C120    1.452   .     S
C112   C131    1.458   .     S
C112   C827    1.407   1_545 A
C113   C464    1.407   1_455 S
C114   C469    1.405   1_455 S
C115   C141    1.404   .     A
C115   C497    1.415   .     A
C116   C143    1.403   .     A
C116   C134    1.415   .     S
C117   C863    1.415   .     A
C117   C144    1.404   .     A
C118   C145    1.403   .     A
C118   C136    1.415   .     S
C119   C146    1.404   .     A
C119   C133    1.415   .     S
C120   O287    1.267   .     S
C120   O291    1.267   .     S
C121   C147    1.403   .     A
C121   C498    1.415   .     A
C122   C148    1.404   .     A
C122   C135    1.415   .     S
C123   C149    1.403   .     A
C123   C864    1.415   .     A
C124   C865    1.415   .     A
C124   C150    1.402   .     A
C125   C151    1.405   .     A
C125   C138    1.415   .     S
C126   C152    1.405   .     A
C126   C139    1.415   .     A
C127   C504    1.415   .     S
C128   C137    1.415   .     S
C129   C866    1.415   .     A
C130   C503    1.415   .     S
C131   O288    1.270   .     S
C131   O293    1.270   .     S
C132   C140    1.415   .     A
C133   C479    1.415   1_455 A
C133   C134    1.412   .     A
C134   C485    1.415   1_455 A
C135   C845    1.415   1_545 A
C135   C136    1.412   .     A
C136   C851    1.415   1_545 A
C137   C852    1.415   1_545 A
C137   C138    1.412   1_556 S
C138   C857    1.415   1_545 A
C138   C137    1.412   1_554 S
C139   C494    1.415   1_455 S
C139   C140    1.412   1_556 S
C140   C491    1.415   1_455 S
C140   C139    1.412   1_554 S
C141   C147    1.391   .     A
C141   H153    1.083   .     S
C142   O294    1.274   .     A
C142   O322    1.274   .     A
C143   C146    1.391   .     A
C143   H193    1.083   .     S
C144   H204    1.083   .     S
C144   C149    1.391   .     A
C145   C148    1.391   .     A
C145   H215    1.083   .     S
C146   H226    1.083   .     S
C147   H237    1.083   .     S
C148   H248    1.083   .     S
C149   H259    1.083   .     S
C150   H270    1.083   .     S
C150   C5      1.390   1_556 S
C151   H154    1.082   .     S
C151   C4      1.390   1_554 S
C152   H165    1.082   .     S
C152   C7      1.390   1_556 S
H201   C376    1.111   .     S
H217   C747    1.111   .     S
H232   C390    1.111   1_455 S
H247   C760    1.111   1_545 S
O281   Zn352   1.933   .     S
O281   Zn349   1.933   .     S
O281   Zn360   1.933   .     S
O281   Zn1084  1.933   1_545 S
O282   Zn351   1.943   .     S
O282   C793    1.268   .     S
O283   Zn354   1.943   .     S
O283   C440    1.269   .     S
O284   Zn353   1.943   .     S
O285   Zn363   1.943   .     S
O286   Zn362   1.943   .     S
O287   Zn357   1.943   .     S
O288   Zn349   1.943   .     S
O289   Zn359   1.943   .     S
O290   Zn358   1.943   .     S
O291   Zn361   1.943   .     S
O292   Zn361   1.933   .     S
O292   Zn357   1.933   .     S
O292   Zn355   1.933   .     S
O292   Zn1079  1.933   1_545 S
O293   Zn360   1.943   .     S
O294   Zn352   1.913   .     S
O295   Zn351   1.913   .     S
O296   Zn354   1.915   .     S
O297   Zn353   1.915   .     S
O298   Zn356   1.913   .     S
O299   Zn355   1.913   .     S
O300   Zn350   1.915   .     S
O301   Zn364   1.915   .     S
O302   Zn351   1.915   .     S
O303   Zn718   1.933   1_455 S
O303   Zn358   1.933   .     S
O303   Zn350   1.933   .     S
O303   Zn362   1.933   .     S
O304   Zn352   1.915   .     S
O305   Zn364   1.913   .     S
O306   Zn350   1.913   .     S
O307   Zn355   1.915   .     S
O308   Zn356   1.915   .     S
O309   Zn353   1.913   .     S
O310   Zn354   1.913   .     S
O311   Zn723   1.913   .     S
O312   Zn358   1.913   .     S
O313   Zn1089  1.915   .     S
O314   Zn728   1.933   1_455 S
O314   Zn363   1.933   .     S
O314   Zn353   1.933   .     S
O314   Zn359   1.933   .     S
O315   Zn360   1.915   .     S
O316   Zn363   1.913   .     S
O317   Zn726   1.913   .     S
O318   Zn357   1.915   .     S
O319   Zn1077  1.915   .     S
O320   Zn722   1.915   .     S
O321   Zn359   1.915   .     S
O322   Zn349   1.913   .     S
O323   Zn1085  1.913   .     S
O324   Zn362   1.915   .     S
O325   Zn356   1.943   .     S
O325   C729    1.269   .     S
O326   Zn727   1.915   .     S
O327   Zn1088  1.913   .     S
O328   Zn361   1.913   .     S
O330   C375    1.414   .     S
O332   C746    1.414   .     S
O334   C389    1.414   1_455 S
O336   Zn355   1.943   .     S
O337   C759    1.414   1_545 S
O346   Zn350   1.943   .     S
O347   Zn364   1.943   .     S
O347   C451    1.268   .     A
O348   Zn352   1.943   .     S
Zn349  O1047   1.915   1_545 S
Zn351  O1020   1.933   .     S
Zn354  O667    1.933   .     S
Zn356  O1009   1.933   .     S
Zn357  O1051   1.913   1_545 S
Zn358  O684    1.915   1_455 S
Zn359  O675    1.913   1_455 S
Zn360  O1055   1.913   1_545 S
Zn361  O1041   1.915   1_545 S
Zn362  O681    1.913   1_455 S
Zn363  O690    1.915   1_455 S
Zn364  O678    1.933   .     S
C365   O712    1.269   .     A
C365   C472    1.456   .     S
C365   O1417   1.269   1_545 S
C366   O659    1.275   .     A
C366   O687    1.274   .     A
C366   C448    1.421   .     S
C367   H540    1.083   .     S
C367   C491    1.402   .     A
C367   C370    1.390   1_554 S
C368   H550    1.083   .     S
C368   C492    1.402   .     A
C368   C515    1.390   1_556 S
C369   C493    1.405   .     A
C369   H551    1.082   .     S
C369   C514    1.390   1_554 S
C370   H552    1.082   .     S
C370   C494    1.405   .     A
C370   C367    1.390   1_556 S
C371   C496    1.402   .     A
C371   H553    1.083   .     S
C371   C516    1.390   1_554 S
C372   H554    1.114   .     S
C372   O693    1.414   .     S
C372   H555    1.113   .     S
C372   C373    1.528   .     S
C373   C374    1.526   .     S
C373   H558    1.112   .     S
C373   H556    1.112   .     S
C374   H560    1.110   .     S
C374   H561    1.111   .     S
C374   H559    1.111   .     S
C375   H562    1.114   .     S
C375   H563    1.114   .     S
C375   C376    1.528   .     S
C376   H564    1.112   .     S
C376   C378    1.527   .     S
C377   O684    1.274   .     A
C377   O660    1.274   .     A
C377   C447    1.422   .     S
C378   H566    1.111   .     S
C378   H569    1.111   .     S
C378   H567    1.111   .     S
C379   H570    1.114   .     S
C379   H571    1.113   .     S
C379   O695    1.414   .     S
C379   C380    1.528   .     S
C380   C381    1.526   .     S
C380   H573    1.112   .     S
C380   H572    1.112   .     S
C381   H574    1.111   .     S
C381   H576    1.111   .     S
C381   H575    1.110   .     S
C382   H578    1.114   .     S
C382   C383    1.528   .     S
C382   H577    1.114   .     S
C382   O1424   1.414   1_545 S
C383   C384    1.527   .     S
C383   H580    1.112   .     S
C383   H1309   1.111   1_545 S
C384   H583    1.110   .     S
C384   H582    1.111   .     S
C384   H584    1.111   .     S
C385   H585    1.114   .     S
C385   C386    1.528   .     S
C385   H586    1.113   .     S
C385   O697    1.414   .     S
C386   C387    1.526   .     S
C386   H588    1.112   .     S
C386   H587    1.112   .     S
C387   H589    1.111   .     S
C387   H592    1.111   .     S
C387   H591    1.110   .     S
C388   O661    1.274   .     A
C388   O685    1.274   .     A
C388   C446    1.422   .     S
C389   H594    1.114   .     S
C389   C390    1.528   .     S
C389   H593    1.114   .     S
C389   O334    1.414   1_655 S
C390   H595    1.112   .     S
C390   C391    1.527   .     S
C390   H232    1.111   1_655 S
C391   H598    1.110   .     S
C391   H599    1.111   .     S
C391   H597    1.111   .     S
C392   O699    1.414   .     S
C392   H600    1.114   .     S
C392   C393    1.528   .     S
C392   H602    1.113   .     S
C393   C394    1.526   .     S
C393   H604    1.112   .     S
C393   H603    1.112   .     S
C394   H605    1.111   .     S
C394   H606    1.110   .     S
C394   H607    1.111   .     S
C395   C396    1.528   .     S
C395   H608    1.114   .     S
C395   H609    1.114   .     S
C395   O1429   1.414   .     S
C396   C397    1.527   .     S
C396   H610    1.112   .     S
C396   H1339   1.111   .     S
C397   H614    1.110   .     S
C397   H613    1.111   .     S
C397   H615    1.111   .     S
C398   H617    1.113   .     S
C398   C400    1.528   .     S
C398   O702    1.414   .     S
C398   H616    1.116   .     S
C399   O662    1.274   .     A
C399   O691    1.274   .     A
C399   C445    1.421   .     S
C400   H619    1.111   .     S
C400   C401    1.526   .     S
C400   H618    1.112   .     S
C401   H621    1.110   .     S
C401   H620    1.111   .     S
C401   H622    1.111   .     S
C402   H624    1.113   .     S
C402   C403    1.529   .     S
C402   H625    1.113   .     S
C402   O703    1.415   .     S
C403   C404    1.526   .     S
C403   H626    1.111   .     S
C403   H627    1.111   .     S
C404   H629    1.111   .     S
C404   H630    1.111   .     S
C404   H628    1.111   .     S
C405   H631    1.112   .     S
C405   C406    1.529   .     S
C405   H632    1.113   .     S
C405   O704    1.415   .     S
C406   H635    1.111   .     S
C406   H633    1.112   .     S
C406   C407    1.526   .     S
C407   H638    1.111   .     S
C407   H636    1.111   .     S
C407   H637    1.111   .     S
C408   H640    1.112   .     S
C408   C409    1.528   .     S
C408   H639    1.116   .     S
C408   O705    1.414   .     S
C409   C411    1.526   .     S
C409   H641    1.112   .     S
C409   H642    1.111   .     S
C410   C444    1.421   .     S
C410   O663    1.275   .     A
C410   O692    1.274   .     A
C411   H644    1.110   .     S
C411   H643    1.111   .     S
C411   H519    1.111   .     S
C412   O706    1.414   .     S
C412   H520    1.116   .     S
C412   C413    1.528   .     S
C412   H521    1.113   .     S
C413   C414    1.526   .     S
C413   H523    1.111   .     S
C413   H522    1.112   .     S
C414   H524    1.111   .     S
C414   H526    1.111   .     S
C414   H525    1.110   .     S
C415   C416    1.529   .     S
C415   H528    1.113   .     S
C415   O707    1.415   .     S
C415   H527    1.112   .     S
C416   C417    1.526   .     S
C416   H531    1.111   .     S
C416   H530    1.112   .     S
C417   H534    1.111   .     S
C417   H532    1.111   .     S
C417   H533    1.111   .     S
C418   H536    1.113   .     S
C418   C419    1.529   .     S
C418   O708    1.415   .     S
C418   H535    1.113   .     S
C419   H537    1.112   .     S
C419   C420    1.526   .     S
C419   H538    1.111   .     S
C420   H542    1.111   .     S
C420   H541    1.111   .     S
C420   H539    1.111   .     S
C421   O664    1.274   .     A
C421   O688    1.274   .     A
C421   C452    1.422   .     S
C422   H544    1.112   .     S
C422   O709    1.415   .     S
C422   C423    1.528   .     S
C422   H543    1.116   .     S
C423   C424    1.526   .     S
C423   H546    1.111   .     S
C423   H545    1.112   .     S
C424   H548    1.110   .     S
C424   H549    1.111   .     S
C424   H547    1.111   .     S
C425   O665    1.274   .     A
C425   C450    1.422   .     S
C425   O690    1.274   .     A
C426   C441    1.422   .     S
C426   O677    1.274   .     A
C426   O666    1.274   .     A
C427   O679    1.274   .     A
C427   O668    1.274   .     A
C427   C439    1.422   .     S
C428   O675    1.274   .     A
C428   O669    1.275   .     A
C428   C438    1.421   .     S
C429   O700    1.268   .     A
C429   C474    1.452   .     S
C429   O1374   1.268   1_545 S
C430   O670    1.275   .     A
C430   O676    1.274   .     A
C430   C437    1.421   .     S
C431   O682    1.274   .     A
C431   O671    1.274   .     A
C431   C436    1.422   .     S
C432   O672    1.274   .     A
C432   C435    1.422   .     S
C432   O683    1.274   .     A
C433   O680    1.274   .     A
C433   C443    1.421   .     S
C433   O673    1.275   .     A
C434   O674    1.275   .     A
C434   C442    1.421   .     S
C434   O681    1.274   .     A
C435   C452    1.198   .     T
C436   C450    1.198   .     T
C437   C449    1.197   .     T
C438   C448    1.197   .     T
C439   C447    1.198   .     T
C440   O710    1.269   .     A
C440   C470    1.456   .     S
C441   C446    1.198   .     T
C442   C445    1.197   .     T
C443   C444    1.197   .     T
C449   C506    1.421   .     S
C451   C471    1.452   .     S
C451   O648    1.268   .     S
C453   C470    1.406   .     A
C453   C483    1.407   .     A
C453   O693    1.386   .     S
C454   C107    1.405   1_655 A
C454   O694    1.386   .     S
C454   C485    1.405   .     A
C455   O695    1.386   .     S
C455   C486    1.407   .     A
C455   C472    1.406   .     A
C456   C487    1.405   .     A
C456   O696    1.386   .     S
C456   C1202   1.405   .     A
C457   O697    1.386   .     S
C457   C479    1.407   .     A
C457   C106    1.406   1_655 S
C458   O698    1.386   .     S
C458   C480    1.405   .     A
C458   C471    1.405   .     S
C459   C481    1.407   .     A
C459   O699    1.386   .     S
C459   C1200   1.406   .     S
C460   O701    1.386   .     S
C460   C482    1.405   .     A
C460   C474    1.405   .     S
C461   C492    1.403   .     A
C461   O702    1.386   .     S
C461   C475    1.405   .     S
C462   C477    1.458   .     S
C462   O649    1.270   .     S
C462   O653    1.270   .     S
C463   C493    1.407   .     A
C463   O703    1.387   .     S
C463   C1204   1.407   .     A
C464   C494    1.407   .     A
C464   O704    1.387   .     S
C464   C113    1.407   1_655 S
C465   C496    1.403   .     A
C465   C478    1.405   .     A
C465   O705    1.386   .     S
C466   C1203   1.405   .     A
C466   C488    1.403   .     A
C466   O706    1.386   .     S
C467   C489    1.407   .     A
C467   O707    1.387   .     S
C467   C476    1.407   .     S
C468   O708    1.387   .     S
C468   C477    1.407   .     A
C468   C490    1.407   .     A
C469   C491    1.403   .     A
C469   O709    1.386   .     S
C469   C114    1.405   1_655 S
C472   C1187   1.406   1_545 S
C473   C478    1.452   .     S
C473   O650    1.267   .     S
C473   O654    1.267   .     S
C474   C1184   1.405   1_545 A
C475   C1194   1.405   1_545 A
C475   C484    1.452   .     S
C476   C495    1.458   .     S
C476   C1191   1.407   1_545 A
C479   C505    1.404   .     A
C479   C133    1.415   1_655 A
C480   C507    1.403   .     A
C480   C498    1.415   .     S
C481   C1227   1.415   .     A
C481   C508    1.404   .     A
C482   C509    1.403   .     A
C482   C500    1.415   .     S
C483   C510    1.404   .     A
C483   C497    1.415   .     S
C484   O651    1.267   .     S
C484   O655    1.267   .     S
C485   C511    1.403   .     A
C485   C134    1.415   1_655 A
C486   C512    1.404   .     A
C486   C499    1.415   .     S
C487   C513    1.403   .     A
C487   C1228   1.415   .     A
C488   C1229   1.415   .     A
C488   C514    1.402   .     A
C489   C515    1.405   .     A
C489   C502    1.415   .     S
C490   C516    1.405   .     A
C490   C503    1.415   .     A
C491   C140    1.415   1_655 S
C492   C501    1.415   .     S
C493   C1230   1.415   .     A
C494   C139    1.415   1_655 S
C495   O652    1.270   .     S
C495   O657    1.270   .     S
C496   C504    1.415   .     A
C497   C498    1.412   .     A
C499   C1209   1.415   1_545 A
C499   C500    1.412   .     A
C500   C1215   1.415   1_545 A
C501   C1216   1.415   1_545 A
C501   C502    1.412   1_556 S
C502   C1221   1.415   1_545 A
C502   C501    1.412   1_554 S
C503   C504    1.412   1_556 S
C504   C503    1.412   1_554 S
C505   C511    1.391   .     A
C505   H517    1.083   .     S
C506   O658    1.274   .     A
C506   O686    1.274   .     A
C507   C510    1.391   .     A
C507   H557    1.083   .     S
C508   H568    1.083   .     S
C508   C513    1.391   .     A
C509   C512    1.391   .     A
C509   H579    1.083   .     S
C510   H590    1.083   .     S
C511   H601    1.083   .     S
C512   H612    1.083   .     S
C513   H623    1.083   .     S
C514   H634    1.083   .     S
C514   C369    1.390   1_556 S
C515   H518    1.082   .     S
C515   C368    1.390   1_554 S
C516   H529    1.082   .     S
C516   C371    1.390   1_556 S
H565   C12     1.111   1_655 S
H581   C1111   1.111   .     S
H611   C1124   1.111   1_545 S
O645   Zn716   1.933   .     S
O645   Zn713   1.933   .     S
O645   Zn724   1.933   .     S
O645   Zn1448  1.933   1_545 S
O646   Zn715   1.943   .     S
O646   C1157   1.268   .     S
O647   Zn718   1.943   .     S
O647   C76     1.269   1_655 S
O648   Zn717   1.943   .     S
O649   Zn727   1.943   .     S
O650   Zn726   1.943   .     S
O651   Zn721   1.943   .     S
O652   Zn713   1.943   .     S
O653   Zn723   1.943   .     S
O654   Zn722   1.943   .     S
O655   Zn725   1.943   .     S
O656   Zn725   1.933   .     S
O656   Zn721   1.933   .     S
O656   Zn719   1.933   .     S
O656   Zn1443  1.933   1_545 S
O657   Zn724   1.943   .     S
O658   Zn716   1.913   .     S
O659   Zn715   1.913   .     S
O660   Zn718   1.915   .     S
O661   Zn717   1.915   .     S
O662   Zn720   1.913   .     S
O663   Zn719   1.913   .     S
O664   Zn714   1.915   .     S
O665   Zn728   1.915   .     S
O666   Zn715   1.915   .     S
O667   Zn722   1.933   .     S
O667   Zn714   1.933   .     S
O667   Zn726   1.933   .     S
O668   Zn716   1.915   .     S
O669   Zn728   1.913   .     S
O670   Zn714   1.913   .     S
O671   Zn719   1.915   .     S
O672   Zn720   1.915   .     S
O673   Zn717   1.913   .     S
O674   Zn718   1.913   .     S
O675   Zn359   1.913   1_655 S
O676   Zn722   1.913   .     S
O677   Zn1453  1.915   .     S
O678   Zn727   1.933   .     S
O678   Zn717   1.933   .     S
O678   Zn723   1.933   .     S
O679   Zn724   1.915   .     S
O680   Zn727   1.913   .     S
O681   Zn362   1.913   1_655 S
O682   Zn721   1.915   .     S
O683   Zn1441  1.915   .     S
O684   Zn358   1.915   1_655 S
O685   Zn723   1.915   .     S
O686   Zn713   1.913   .     S
O687   Zn1449  1.913   .     S
O688   Zn726   1.915   .     S
O689   Zn720   1.943   .     S
O689   C1093   1.269   .     S
O690   Zn363   1.915   1_655 S
O691   Zn1452  1.913   .     S
O692   Zn725   1.913   .     S
O694   C11     1.414   1_655 S
O696   C1110   1.414   .     S
O700   Zn719   1.943   .     S
O701   C1123   1.414   1_545 S
O710   Zn714   1.943   .     S
O711   Zn728   1.943   .     S
O711   C87     1.268   1_655 A
O712   Zn716   1.943   .     S
Zn713  O1411   1.915   1_545 S
Zn715  O1384   1.933   .     S
Zn718  O303    1.933   1_655 S
Zn720  O1373   1.933   .     S
Zn721  O1415   1.913   1_545 S
Zn724  O1419   1.913   1_545 S
Zn725  O1405   1.915   1_545 S
Zn728  O314    1.933   1_655 S
C729   O1076   1.269   .     A
C729   C836    1.456   .     S
C730   O1023   1.275   .     A
C730   O1051   1.274   .     A
C730   C812    1.421   .     S
C731   H904    1.083   .     S
C731   C855    1.402   .     A
C731   C734    1.390   1_554 S
C732   H914    1.083   .     S
C732   C856    1.402   .     A
C732   C879    1.390   1_556 S
C733   C857    1.405   .     A
C733   H915    1.082   .     S
C733   C878    1.390   1_554 S
C734   H916    1.082   .     S
C734   C858    1.405   .     A
C734   C731    1.390   1_556 S
C735   C860    1.402   .     A
C735   H917    1.083   .     S
C735   C880    1.390   1_554 S
C736   H918    1.114   .     S
C736   O1057   1.414   .     S
C736   H919    1.113   .     S
C736   C737    1.528   .     S
C737   C738    1.526   .     S
C737   H922    1.112   .     S
C737   H920    1.112   .     S
C738   H924    1.110   .     S
C738   H925    1.111   .     S
C738   H923    1.111   .     S
C739   H926    1.114   .     S
C739   H927    1.114   .     S
C739   C740    1.528   .     S
C739   O1422   1.414   1_455 S
C740   H928    1.112   .     S
C740   C742    1.527   .     S
C740   H1293   1.111   1_455 S
C741   O1048   1.274   .     A
C741   O1024   1.274   .     A
C741   C811    1.422   .     S
C742   H930    1.111   .     S
C742   H933    1.111   .     S
C742   H931    1.111   .     S
C743   H934    1.114   .     S
C743   H935    1.113   .     S
C743   O1059   1.414   .     S
C743   C744    1.528   .     S
C744   C745    1.526   .     S
C744   H937    1.112   .     S
C744   H936    1.112   .     S
C745   H938    1.111   .     S
C745   H940    1.111   .     S
C745   H939    1.110   .     S
C746   H942    1.114   .     S
C746   C747    1.528   .     S
C746   H941    1.114   .     S
C747   C748    1.527   .     S
C747   H944    1.112   .     S
C748   H947    1.110   .     S
C748   H946    1.111   .     S
C748   H948    1.111   .     S
C749   H949    1.114   .     S
C749   C750    1.528   .     S
C749   H950    1.113   .     S
C749   O1061   1.414   .     S
C750   C751    1.526   .     S
C750   H952    1.112   .     S
C750   H951    1.112   .     S
C751   H953    1.111   .     S
C751   H956    1.111   .     S
C751   H955    1.110   .     S
C752   O1025   1.274   .     A
C752   O1049   1.274   .     A
C752   C810    1.422   .     S
C753   H958    1.114   .     S
C753   C754    1.528   .     S
C753   H957    1.114   .     S
C753   O1426   1.414   .     S
C754   H959    1.112   .     S
C754   C755    1.527   .     S
C754   H1324   1.111   .     S
C755   H962    1.110   .     S
C755   H963    1.111   .     S
C755   H961    1.111   .     S
C756   O1063   1.414   .     S
C756   H964    1.114   .     S
C756   C757    1.528   .     S
C756   H966    1.113   .     S
C757   C758    1.526   .     S
C757   H968    1.112   .     S
C757   H967    1.112   .     S
C758   H969    1.111   .     S
C758   H970    1.110   .     S
C758   H971    1.111   .     S
C759   C760    1.528   .     S
C759   H972    1.114   .     S
C759   H973    1.114   .     S
C759   O337    1.414   1_565 S
C760   C761    1.527   .     S
C760   H974    1.112   .     S
C760   H247    1.111   1_565 S
C761   H978    1.110   .     S
C761   H977    1.111   .     S
C761   H979    1.111   .     S
C762   H981    1.113   .     S
C762   C764    1.528   .     S
C762   O1066   1.414   .     S
C762   H980    1.116   .     S
C763   O1026   1.274   .     A
C763   O1055   1.274   .     A
C763   C809    1.421   .     S
C764   H983    1.111   .     S
C764   C765    1.526   .     S
C764   H982    1.112   .     S
C765   H985    1.110   .     S
C765   H984    1.111   .     S
C765   H986    1.111   .     S
C766   H988    1.113   .     S
C766   C767    1.529   .     S
C766   H989    1.113   .     S
C766   O1067   1.415   .     S
C767   C768    1.526   .     S
C767   H990    1.111   .     S
C767   H991    1.111   .     S
C768   H993    1.111   .     S
C768   H994    1.111   .     S
C768   H992    1.111   .     S
C769   H995    1.112   .     S
C769   C770    1.529   .     S
C769   H996    1.113   .     S
C769   O1068   1.415   .     S
C770   H999    1.111   .     S
C770   H997    1.112   .     S
C770   C771    1.526   .     S
C771   H1002   1.111   .     S
C771   H1000   1.111   .     S
C771   H1001   1.111   .     S
C772   H1004   1.112   .     S
C772   C773    1.528   .     S
C772   H1003   1.116   .     S
C772   O1069   1.414   .     S
C773   C775    1.526   .     S
C773   H1005   1.112   .     S
C773   H1006   1.111   .     S
C774   C808    1.421   .     S
C774   O1027   1.275   .     A
C774   O1056   1.274   .     A
C775   H1008   1.110   .     S
C775   H1007   1.111   .     S
C775   H883    1.111   .     S
C776   O1070   1.414   .     S
C776   H884    1.116   .     S
C776   C777    1.528   .     S
C776   H885    1.113   .     S
C777   C778    1.526   .     S
C777   H887    1.111   .     S
C777   H886    1.112   .     S
C778   H888    1.111   .     S
C778   H890    1.111   .     S
C778   H889    1.110   .     S
C779   C780    1.529   .     S
C779   H892    1.113   .     S
C779   O1071   1.415   .     S
C779   H891    1.112   .     S
C780   C781    1.526   .     S
C780   H895    1.111   .     S
C780   H894    1.112   .     S
C781   H898    1.111   .     S
C781   H896    1.111   .     S
C781   H897    1.111   .     S
C782   H900    1.113   .     S
C782   C783    1.529   .     S
C782   O1072   1.415   .     S
C782   H899    1.113   .     S
C783   H901    1.112   .     S
C783   C784    1.526   .     S
C783   H902    1.111   .     S
C784   H906    1.111   .     S
C784   H905    1.111   .     S
C784   H903    1.111   .     S
C785   O1028   1.274   .     A
C785   O1052   1.274   .     A
C785   C816    1.422   .     S
C786   H908    1.112   .     S
C786   O1073   1.415   .     S
C786   C787    1.528   .     S
C786   H907    1.116   .     S
C787   C788    1.526   .     S
C787   H910    1.111   .     S
C787   H909    1.112   .     S
C788   H912    1.110   .     S
C788   H913    1.111   .     S
C788   H911    1.111   .     S
C789   O1029   1.274   .     A
C789   C814    1.422   .     S
C789   O1054   1.274   .     A
C790   C805    1.422   .     S
C790   O1041   1.274   .     A
C790   O1030   1.274   .     A
C791   O1043   1.274   .     A
C791   O1032   1.274   .     A
C791   C803    1.422   .     S
C792   O1039   1.274   .     A
C792   O1033   1.275   .     A
C792   C802    1.421   .     S
C793   O1064   1.268   .     A
C793   C838    1.452   .     S
C794   O1034   1.275   .     A
C794   O1040   1.274   .     A
C794   C801    1.421   .     S
C795   O1046   1.274   .     A
C795   O1035   1.274   .     A
C795   C800    1.422   .     S
C796   O1036   1.274   .     A
C796   C799    1.422   .     S
C796   O1047   1.274   .     A
C797   O1044   1.274   .     A
C797   C807    1.421   .     S
C797   O1037   1.275   .     A
C798   O1038   1.275   .     A
C798   C806    1.421   .     S
C798   O1045   1.274   .     A
C799   C816    1.198   .     T
C800   C814    1.198   .     T
C801   C813    1.197   .     T
C802   C812    1.197   .     T
C803   C811    1.198   .     T
C804   O1074   1.269   .     A
C804   C834    1.456   .     S
C804   O1375   1.269   1_455 S
C805   C810    1.198   .     T
C806   C809    1.197   .     T
C807   C808    1.197   .     T
C813   C870    1.421   .     S
C815   C835    1.452   .     S
C815   O1439   1.268   1_455 A
C815   O1012   1.268   .     S
C817   C834    1.406   .     A
C817   C847    1.407   .     A
C817   O1057   1.386   .     S
C818   C1199   1.405   .     A
C818   O1058   1.386   .     S
C818   C849    1.405   .     A
C819   O1059   1.386   .     S
C819   C850    1.407   .     A
C819   C836    1.406   .     A
C820   C851    1.405   .     A
C820   O1060   1.386   .     S
C820   C110    1.405   1_565 A
C821   O1061   1.386   .     S
C821   C843    1.407   .     A
C821   C1198   1.406   .     S
C822   O1062   1.386   .     S
C822   C844    1.405   .     A
C822   C835    1.405   .     S
C823   C845    1.407   .     A
C823   O1063   1.386   .     S
C823   C108    1.406   1_565 S
C824   O1065   1.386   .     S
C824   C846    1.405   .     A
C824   C838    1.405   .     S
C825   C856    1.403   .     A
C825   O1066   1.386   .     S
C825   C839    1.405   .     S
C826   C841    1.458   .     S
C826   O1013   1.270   .     S
C826   O1017   1.270   .     S
C827   C857    1.407   .     A
C827   O1067   1.387   .     S
C827   C112    1.407   1_565 A
C828   C858    1.407   .     A
C828   O1068   1.387   .     S
C828   C1205   1.407   .     S
C829   C860    1.403   .     A
C829   C842    1.405   .     A
C829   O1069   1.386   .     S
C830   C111    1.405   1_565 A
C830   C852    1.403   .     A
C830   O1070   1.386   .     S
C831   C853    1.407   .     A
C831   O1071   1.387   .     S
C831   C840    1.407   .     S
C832   O1072   1.387   .     S
C832   C841    1.407   .     A
C832   C854    1.407   .     A
C833   C855    1.403   .     A
C833   O1073   1.386   .     S
C833   C1206   1.405   .     S
C834   C1185   1.406   1_455 S
C835   C1182   1.405   1_455 A
C837   C842    1.452   .     S
C837   O1014   1.267   .     S
C837   O1018   1.267   .     S
C839   C848    1.452   .     S
C840   C859    1.458   .     S
C841   C1192   1.407   1_455 S
C842   C1197   1.405   1_455 S
C843   C869    1.404   .     A
C843   C1225   1.415   .     A
C844   C871    1.403   .     A
C844   C862    1.415   .     S
C845   C135    1.415   1_565 A
C845   C872    1.404   .     A
C846   C873    1.403   .     A
C846   C864    1.415   .     S
C847   C874    1.404   .     A
C847   C861    1.415   .     S
C848   O1015   1.267   .     S
C848   O1019   1.267   .     S
C849   C875    1.403   .     A
C849   C1226   1.415   .     A
C850   C876    1.404   .     A
C850   C863    1.415   .     S
C851   C877    1.403   .     A
C851   C136    1.415   1_565 A
C852   C137    1.415   1_565 A
C852   C878    1.402   .     A
C853   C879    1.405   .     A
C853   C866    1.415   .     S
C854   C880    1.405   .     A
C854   C867    1.415   .     A
C855   C1232   1.415   .     S
C856   C865    1.415   .     S
C857   C138    1.415   1_565 A
C858   C1231   1.415   .     S
C859   O1016   1.270   .     S
C859   O1021   1.270   .     S
C860   C868    1.415   .     A
C861   C1207   1.415   1_455 A
C861   C862    1.412   .     A
C862   C1213   1.415   1_455 A
C863   C864    1.412   .     A
C865   C866    1.412   1_556 S
C866   C865    1.412   1_554 S
C867   C1222   1.415   1_455 S
C867   C868    1.412   1_556 S
C868   C1219   1.415   1_455 S
C868   C867    1.412   1_554 S
C869   C875    1.391   .     A
C869   H881    1.083   .     S
C870   O1022   1.274   .     A
C870   O1050   1.274   .     A
C871   C874    1.391   .     A
C871   H921    1.083   .     S
C872   H932    1.083   .     S
C872   C877    1.391   .     A
C873   C876    1.391   .     A
C873   H943    1.083   .     S
C874   H954    1.083   .     S
C875   H965    1.083   .     S
C876   H976    1.083   .     S
C877   H987    1.083   .     S
C878   H998    1.083   .     S
C878   C733    1.390   1_556 S
C879   H882    1.082   .     S
C879   C732    1.390   1_554 S
C880   H893    1.082   .     S
C880   C735    1.390   1_556 S
H929   C1104   1.111   .     S
H945   C19     1.111   1_565 S
H960   C1118   1.111   1_455 S
O1009  Zn1080  1.933   .     S
O1009  Zn1077  1.933   .     S
O1009  Zn1088  1.933   .     S
O1010  Zn1079  1.943   .     S
O1010  C65     1.268   1_565 S
O1011  Zn1082  1.943   .     S
O1011  C1168   1.269   .     S
O1012  Zn1081  1.943   .     S
O1013  Zn1091  1.943   .     S
O1014  Zn1090  1.943   .     S
O1015  Zn1085  1.943   .     S
O1016  Zn1077  1.943   .     S
O1017  Zn1087  1.943   .     S
O1018  Zn1086  1.943   .     S
O1019  Zn1089  1.943   .     S
O1020  Zn1089  1.933   .     S
O1020  Zn1085  1.933   .     S
O1020  Zn1083  1.933   .     S
O1021  Zn1088  1.943   .     S
O1022  Zn1080  1.913   .     S
O1023  Zn1079  1.913   .     S
O1024  Zn1082  1.915   .     S
O1025  Zn1081  1.915   .     S
O1026  Zn1084  1.913   .     S
O1027  Zn1083  1.913   .     S
O1028  Zn1078  1.915   .     S
O1029  Zn1092  1.915   .     S
O1030  Zn1079  1.915   .     S
O1031  Zn1446  1.933   1_455 S
O1031  Zn1086  1.933   .     S
O1031  Zn1078  1.933   .     S
O1031  Zn1090  1.933   .     S
O1032  Zn1080  1.915   .     S
O1033  Zn1092  1.913   .     S
O1034  Zn1078  1.913   .     S
O1035  Zn1083  1.915   .     S
O1036  Zn1084  1.915   .     S
O1037  Zn1081  1.913   .     S
O1038  Zn1082  1.913   .     S
O1039  Zn1451  1.913   .     S
O1040  Zn1086  1.913   .     S
O1041  Zn361   1.915   1_565 S
O1042  Zn1456  1.933   1_455 S
O1042  Zn1091  1.933   .     S
O1042  Zn1081  1.933   .     S
O1042  Zn1087  1.933   .     S
O1043  Zn1088  1.915   .     S
O1044  Zn1091  1.913   .     S
O1045  Zn1454  1.913   .     S
O1046  Zn1085  1.915   .     S
O1047  Zn349   1.915   1_565 S
O1048  Zn1450  1.915   .     S
O1049  Zn1087  1.915   .     S
O1050  Zn1077  1.913   .     S
O1051  Zn357   1.913   1_565 S
O1052  Zn1090  1.915   .     S
O1053  Zn1084  1.943   .     S
O1053  C1      1.269   1_565 S
O1054  Zn1455  1.915   .     S
O1055  Zn360   1.913   1_565 S
O1056  Zn1089  1.913   .     S
O1058  C1103   1.414   .     S
O1060  C18     1.414   1_565 S
O1062  C1117   1.414   1_455 S
O1064  Zn1083  1.943   .     S
O1074  Zn1078  1.943   .     S
O1075  Zn1092  1.943   .     S
O1075  C1179   1.268   .     A
O1076  Zn1080  1.943   .     S
Zn1079 O292    1.933   1_565 S
Zn1082 O1395   1.933   .     S
Zn1084 O281    1.933   1_565 S
Zn1086 O1412   1.915   1_455 S
Zn1087 O1403   1.913   1_455 S
Zn1090 O1409   1.913   1_455 S
Zn1091 O1418   1.915   1_455 S
Zn1092 O1406   1.933   .     S
C1093  O1440   1.269   .     A
C1093  C1200   1.456   .     S
C1094  O1387   1.275   .     A
C1094  O1415   1.274   .     A
C1094  C1176   1.421   .     S
C1095  H1268   1.083   .     S
C1095  C1219   1.402   .     A
C1095  C1098   1.390   1_554 S
C1096  H1278   1.083   .     S
C1096  C1220   1.402   .     A
C1096  C1243   1.390   1_556 S
C1097  C1221   1.405   .     A
C1097  H1279   1.082   .     S
C1097  C1242   1.390   1_554 S
C1098  H1280   1.082   .     S
C1098  C1222   1.405   .     A
C1098  C1095   1.390   1_556 S
C1099  C1224   1.402   .     A
C1099  H1281   1.083   .     S
C1099  C1244   1.390   1_554 S
C1100  H1282   1.114   .     S
C1100  O1421   1.414   .     S
C1100  H1283   1.113   .     S
C1100  C1101   1.528   .     S
C1101  C1102   1.526   .     S
C1101  H1286   1.112   .     S
C1101  H1284   1.112   .     S
C1102  H1288   1.110   .     S
C1102  H1289   1.111   .     S
C1102  H1287   1.111   .     S
C1103  H1290   1.114   .     S
C1103  H1291   1.114   .     S
C1103  C1104   1.528   .     S
C1104  H1292   1.112   .     S
C1104  C1106   1.527   .     S
C1105  O1412   1.274   .     A
C1105  O1388   1.274   .     A
C1105  C1175   1.422   .     S
C1106  H1294   1.111   .     S
C1106  H1297   1.111   .     S
C1106  H1295   1.111   .     S
C1107  H1298   1.114   .     S
C1107  H1299   1.113   .     S
C1107  O1423   1.414   .     S
C1107  C1108   1.528   .     S
C1108  C1109   1.526   .     S
C1108  H1301   1.112   .     S
C1108  H1300   1.112   .     S
C1109  H1302   1.111   .     S
C1109  H1304   1.111   .     S
C1109  H1303   1.110   .     S
C1110  H1306   1.114   .     S
C1110  C1111   1.528   .     S
C1110  H1305   1.114   .     S
C1111  C1112   1.527   .     S
C1111  H1308   1.112   .     S
C1112  H1311   1.110   .     S
C1112  H1310   1.111   .     S
C1112  H1312   1.111   .     S
C1113  H1313   1.114   .     S
C1113  C1114   1.528   .     S
C1113  H1314   1.113   .     S
C1113  O1425   1.414   .     S
C1114  C1115   1.526   .     S
C1114  H1316   1.112   .     S
C1114  H1315   1.112   .     S
C1115  H1317   1.111   .     S
C1115  H1320   1.111   .     S
C1115  H1319   1.110   .     S
C1116  O1389   1.274   .     A
C1116  O1413   1.274   .     A
C1116  C1174   1.422   .     S
C1117  H1322   1.114   .     S
C1117  C1118   1.528   .     S
C1117  H1321   1.114   .     S
C1117  O1062   1.414   1_655 S
C1118  H1323   1.112   .     S
C1118  C1119   1.527   .     S
C1118  H960    1.111   1_655 S
C1119  H1326   1.110   .     S
C1119  H1327   1.111   .     S
C1119  H1325   1.111   .     S
C1120  O1427   1.414   .     S
C1120  H1328   1.114   .     S
C1120  C1121   1.528   .     S
C1120  H1330   1.113   .     S
C1121  C1122   1.526   .     S
C1121  H1332   1.112   .     S
C1121  H1331   1.112   .     S
C1122  H1333   1.111   .     S
C1122  H1334   1.110   .     S
C1122  H1335   1.111   .     S
C1123  C1124   1.528   .     S
C1123  H1336   1.114   .     S
C1123  H1337   1.114   .     S
C1123  O701    1.414   1_565 S
C1124  C1125   1.527   .     S
C1124  H1338   1.112   .     S
C1124  H611    1.111   1_565 S
C1125  H1342   1.110   .     S
C1125  H1341   1.111   .     S
C1125  H1343   1.111   .     S
C1126  H1345   1.113   .     S
C1126  C1128   1.528   .     S
C1126  O1430   1.414   .     S
C1126  H1344   1.116   .     S
C1127  O1390   1.274   .     A
C1127  O1419   1.274   .     A
C1127  C1173   1.421   .     S
C1128  H1347   1.111   .     S
C1128  C1129   1.526   .     S
C1128  H1346   1.112   .     S
C1129  H1349   1.110   .     S
C1129  H1348   1.111   .     S
C1129  H1350   1.111   .     S
C1130  H1352   1.113   .     S
C1130  C1131   1.529   .     S
C1130  H1353   1.113   .     S
C1130  O1431   1.415   .     S
C1131  C1132   1.526   .     S
C1131  H1354   1.111   .     S
C1131  H1355   1.111   .     S
C1132  H1357   1.111   .     S
C1132  H1358   1.111   .     S
C1132  H1356   1.111   .     S
C1133  H1359   1.112   .     S
C1133  C1134   1.529   .     S
C1133  H1360   1.113   .     S
C1133  O1432   1.415   .     S
C1134  H1363   1.111   .     S
C1134  H1361   1.112   .     S
C1134  C1135   1.526   .     S
C1135  H1366   1.111   .     S
C1135  H1364   1.111   .     S
C1135  H1365   1.111   .     S
C1136  H1368   1.112   .     S
C1136  C1137   1.528   .     S
C1136  H1367   1.116   .     S
C1136  O1433   1.414   .     S
C1137  C1139   1.526   .     S
C1137  H1369   1.112   .     S
C1137  H1370   1.111   .     S
C1138  C1172   1.421   .     S
C1138  O1391   1.275   .     A
C1138  O1420   1.274   .     A
C1139  H1372   1.110   .     S
C1139  H1371   1.111   .     S
C1139  H1247   1.111   .     S
C1140  O1434   1.414   .     S
C1140  H1248   1.116   .     S
C1140  C1141   1.528   .     S
C1140  H1249   1.113   .     S
C1141  C1142   1.526   .     S
C1141  H1251   1.111   .     S
C1141  H1250   1.112   .     S
C1142  H1252   1.111   .     S
C1142  H1254   1.111   .     S
C1142  H1253   1.110   .     S
C1143  C1144   1.529   .     S
C1143  H1256   1.113   .     S
C1143  O1435   1.415   .     S
C1143  H1255   1.112   .     S
C1144  C1145   1.526   .     S
C1144  H1259   1.111   .     S
C1144  H1258   1.112   .     S
C1145  H1262   1.111   .     S
C1145  H1260   1.111   .     S
C1145  H1261   1.111   .     S
C1146  H1264   1.113   .     S
C1146  C1147   1.529   .     S
C1146  O1436   1.415   .     S
C1146  H1263   1.113   .     S
C1147  H1265   1.112   .     S
C1147  C1148   1.526   .     S
C1147  H1266   1.111   .     S
C1148  H1270   1.111   .     S
C1148  H1269   1.111   .     S
C1148  H1267   1.111   .     S
C1149  O1392   1.274   .     A
C1149  O1416   1.274   .     A
C1149  C1180   1.422   .     S
C1150  H1272   1.112   .     S
C1150  O1437   1.415   .     S
C1150  C1151   1.528   .     S
C1150  H1271   1.116   .     S
C1151  C1152   1.526   .     S
C1151  H1274   1.111   .     S
C1151  H1273   1.112   .     S
C1152  H1276   1.110   .     S
C1152  H1277   1.111   .     S
C1152  H1275   1.111   .     S
C1153  O1393   1.274   .     A
C1153  C1178   1.422   .     S
C1153  O1418   1.274   .     A
C1154  C1169   1.422   .     S
C1154  O1405   1.274   .     A
C1154  O1394   1.274   .     A
C1155  O1407   1.274   .     A
C1155  O1396   1.274   .     A
C1155  C1167   1.422   .     S
C1156  O1403   1.274   .     A
C1156  O1397   1.275   .     A
C1156  C1166   1.421   .     S
C1157  O1428   1.268   .     A
C1157  C1202   1.452   .     S
C1158  O1398   1.275   .     A
C1158  O1404   1.274   .     A
C1158  C1165   1.421   .     S
C1159  O1410   1.274   .     A
C1159  O1399   1.274   .     A
C1159  C1164   1.422   .     S
C1160  O1400   1.274   .     A
C1160  C1163   1.422   .     S
C1160  O1411   1.274   .     A
C1161  O1408   1.274   .     A
C1161  C1171   1.421   .     S
C1161  O1401   1.275   .     A
C1162  O1402   1.275   .     A
C1162  C1170   1.421   .     S
C1162  O1409   1.274   .     A
C1163  C1180   1.198   .     T
C1164  C1178   1.198   .     T
C1165  C1177   1.197   .     T
C1166  C1176   1.197   .     T
C1167  C1175   1.198   .     T
C1168  O1438   1.269   .     A
C1168  C1198   1.456   .     S
C1169  C1174   1.198   .     T
C1170  C1173   1.197   .     T
C1171  C1172   1.197   .     T
C1177  C1234   1.421   .     S
C1179  C1199   1.452   .     S
C1179  O1376   1.268   .     S
C1181  C1198   1.406   .     A
C1181  C1211   1.407   .     A
C1181  O1421   1.386   .     S
C1182  C835    1.405   1_655 A
C1182  O1422   1.386   .     S
C1182  C1213   1.405   .     A
C1183  O1423   1.386   .     S
C1183  C1214   1.407   .     A
C1183  C1200   1.406   .     A
C1184  C1215   1.405   .     A
C1184  O1424   1.386   .     S
C1184  C474    1.405   1_565 A
C1185  O1425   1.386   .     S
C1185  C1207   1.407   .     A
C1185  C834    1.406   1_655 S
C1186  O1426   1.386   .     S
C1186  C1208   1.405   .     A
C1186  C1199   1.405   .     S
C1187  C1209   1.407   .     A
C1187  O1427   1.386   .     S
C1187  C472    1.406   1_565 S
C1188  O1429   1.386   .     S
C1188  C1210   1.405   .     A
C1188  C1202   1.405   .     S
C1189  C1220   1.403   .     A
C1189  O1430   1.386   .     S
C1189  C1203   1.405   .     S
C1190  C1205   1.458   .     S
C1190  O1377   1.270   .     S
C1190  O1381   1.270   .     S
C1191  C1221   1.407   .     A
C1191  O1431   1.387   .     S
C1191  C476    1.407   1_565 A
C1192  C1222   1.407   .     A
C1192  O1432   1.387   .     S
C1192  C841    1.407   1_655 S
C1193  C1224   1.403   .     A
C1193  C1206   1.405   .     A
C1193  O1433   1.386   .     S
C1194  C475    1.405   1_565 A
C1194  C1216   1.403   .     A
C1194  O1434   1.386   .     S
C1195  C1217   1.407   .     A
C1195  O1435   1.387   .     S
C1195  C1204   1.407   .     S
C1196  O1436   1.387   .     S
C1196  C1205   1.407   .     A
C1196  C1218   1.407   .     A
C1197  C1219   1.403   .     A
C1197  O1437   1.386   .     S
C1197  C842    1.405   1_655 S
C1201  C1206   1.452   .     S
C1201  O1378   1.267   .     S
C1201  O1382   1.267   .     S
C1203  C1212   1.452   .     S
C1204  C1223   1.458   .     S
C1207  C1233   1.404   .     A
C1207  C861    1.415   1_655 A
C1208  C1235   1.403   .     A
C1208  C1226   1.415   .     S
C1209  C499    1.415   1_565 A
C1209  C1236   1.404   .     A
C1210  C1237   1.403   .     A
C1210  C1228   1.415   .     S
C1211  C1238   1.404   .     A
C1211  C1225   1.415   .     S
C1212  O1379   1.267   .     S
C1212  O1383   1.267   .     S
C1213  C1239   1.403   .     A
C1213  C862    1.415   1_655 A
C1214  C1240   1.404   .     A
C1214  C1227   1.415   .     S
C1215  C1241   1.403   .     A
C1215  C500    1.415   1_565 A
C1216  C501    1.415   1_565 A
C1216  C1242   1.402   .     A
C1217  C1243   1.405   .     A
C1217  C1230   1.415   .     S
C1218  C1244   1.405   .     A
C1218  C1231   1.415   .     A
C1219  C868    1.415   1_655 S
C1220  C1229   1.415   .     S
C1221  C502    1.415   1_565 A
C1222  C867    1.415   1_655 S
C1223  O1380   1.270   .     S
C1223  O1385   1.270   .     S
C1224  C1232   1.415   .     A
C1225  C1226   1.412   .     A
C1227  C1228   1.412   .     A
C1229  C1230   1.412   1_556 S
C1230  C1229   1.412   1_554 S
C1231  C1232   1.412   1_556 S
C1232  C1231   1.412   1_554 S
C1233  C1239   1.391   .     A
C1233  H1245   1.083   .     S
C1234  O1386   1.274   .     A
C1234  O1414   1.274   .     A
C1235  C1238   1.391   .     A
C1235  H1285   1.083   .     S
C1236  H1296   1.083   .     S
C1236  C1241   1.391   .     A
C1237  C1240   1.391   .     A
C1237  H1307   1.083   .     S
C1238  H1318   1.083   .     S
C1239  H1329   1.083   .     S
C1240  H1340   1.083   .     S
C1241  H1351   1.083   .     S
C1242  H1362   1.083   .     S
C1242  C1097   1.390   1_556 S
C1243  H1246   1.082   .     S
C1243  C1096   1.390   1_554 S
C1244  H1257   1.082   .     S
C1244  C1099   1.390   1_556 S
H1293  C740    1.111   1_655 S
H1309  C383    1.111   1_565 S
O1373  Zn1444  1.933   .     S
O1373  Zn1441  1.933   .     S
O1373  Zn1452  1.933   .     S
O1374  Zn1443  1.943   .     S
O1374  C429    1.268   1_565 S
O1375  Zn1446  1.943   .     S
O1375  C804    1.269   1_655 S
O1376  Zn1445  1.943   .     S
O1377  Zn1455  1.943   .     S
O1378  Zn1454  1.943   .     S
O1379  Zn1449  1.943   .     S
O1380  Zn1441  1.943   .     S
O1381  Zn1451  1.943   .     S
O1382  Zn1450  1.943   .     S
O1383  Zn1453  1.943   .     S
O1384  Zn1453  1.933   .     S
O1384  Zn1449  1.933   .     S
O1384  Zn1447  1.933   .     S
O1385  Zn1452  1.943   .     S
O1386  Zn1444  1.913   .     S
O1387  Zn1443  1.913   .     S
O1388  Zn1446  1.915   .     S
O1389  Zn1445  1.915   .     S
O1390  Zn1448  1.913   .     S
O1391  Zn1447  1.913   .     S
O1392  Zn1442  1.915   .     S
O1393  Zn1456  1.915   .     S
O1394  Zn1443  1.915   .     S
O1395  Zn1450  1.933   .     S
O1395  Zn1442  1.933   .     S
O1395  Zn1454  1.933   .     S
O1396  Zn1444  1.915   .     S
O1397  Zn1456  1.913   .     S
O1398  Zn1442  1.913   .     S
O1399  Zn1447  1.915   .     S
O1400  Zn1448  1.915   .     S
O1401  Zn1445  1.913   .     S
O1402  Zn1446  1.913   .     S
O1403  Zn1087  1.913   1_655 S
O1404  Zn1450  1.913   .     S
O1405  Zn725   1.915   1_565 S
O1406  Zn1455  1.933   .     S
O1406  Zn1445  1.933   .     S
O1406  Zn1451  1.933   .     S
O1407  Zn1452  1.915   .     S
O1408  Zn1455  1.913   .     S
O1409  Zn1090  1.913   1_655 S
O1410  Zn1449  1.915   .     S
O1411  Zn713   1.915   1_565 S
O1412  Zn1086  1.915   1_655 S
O1413  Zn1451  1.915   .     S
O1414  Zn1441  1.913   .     S
O1415  Zn721   1.913   1_565 S
O1416  Zn1454  1.915   .     S
O1417  Zn1448  1.943   .     S
O1417  C365    1.269   1_565 S
O1418  Zn1091  1.915   1_655 S
O1419  Zn724   1.913   1_565 S
O1420  Zn1453  1.913   .     S
O1422  C739    1.414   1_655 S
O1424  C382    1.414   1_565 S
O1428  Zn1447  1.943   .     S
O1438  Zn1442  1.943   .     S
O1439  Zn1456  1.943   .     S
O1439  C815    1.268   1_655 A
O1440  Zn1444  1.943   .     S
Zn1443 O656    1.933   1_565 S
Zn1446 O1031   1.933   1_655 S
Zn1448 O645    1.933   1_565 S
Zn1456 O1042   1.933   1_655 S
