data_str_m2_o10_o17_pcu_sym.225
_audit_creation_date              2020-01-03
_audit_creation_method            'Materials Studio'
_symmetry_space_group_name_H-M    'P1'
_symmetry_Int_Tables_number       1
_symmetry_cell_setting            triclinic
loop_
_symmetry_equiv_pos_as_xyz
  x,y,z
_cell_length_a                    29.9505
_cell_length_b                    26.0250
_cell_length_c                    22.4111
_cell_angle_alpha                 102.7812
_cell_angle_beta                  94.3317
_cell_angle_gamma                 93.0129
loop_
_atom_site_label
_atom_site_type_symbol
_atom_site_fract_x
_atom_site_fract_y
_atom_site_fract_z
_atom_site_U_iso_or_equiv
_atom_site_adp_type
_atom_site_occupancy
C1     C     0.24863   0.06662   0.15113   0.00000  Uiso   1.00
C2     C     0.25137   0.26672   0.18221   0.00000  Uiso   1.00
C3     C     0.01585   0.07085   0.11786   0.00000  Uiso   1.00
C4     C     0.48431   0.26117   0.21951   0.00000  Uiso   1.00
C5     C     0.24799   0.01064   0.14240   0.00000  Uiso   1.00
C6     C     0.25200   0.32269   0.19093   0.00000  Uiso   1.00
C7     C     0.16456   0.16583   0.16727   0.00000  Uiso   1.00
C8     C     0.33542   0.16752   0.16609   0.00000  Uiso   1.00
C9     C     0.40995   0.21377   0.19034   0.00000  Uiso   1.00
C10    C     0.08982   0.12026   0.13963   0.00000  Uiso   1.00
C11    C     0.38349   0.16770   0.16484   0.00000  Uiso   1.00
C12    C     0.11647   0.16533   0.16879   0.00000  Uiso   1.00
C13    C     0.40246   0.12114   0.14071   0.00000  Uiso   1.00
C14    C     0.09766   0.21043   0.19826   0.00000  Uiso   1.00
C15    C     0.44919   0.11948   0.14104   0.00000  Uiso   1.00
C16    C     0.05093   0.21279   0.19577   0.00000  Uiso   1.00
C17    C     0.47664   0.16642   0.16799   0.00000  Uiso   1.00
C18    C     0.02347   0.16577   0.16904   0.00000  Uiso   1.00
C19    C     0.45695   0.21410   0.19343   0.00000  Uiso   1.00
C20    C     0.04315   0.11831   0.14253   0.00000  Uiso   1.00
C21    C     0.46864   0.07167   0.11673   0.00000  Uiso   1.00
C22    C     0.03153   0.26076   0.21988   0.00000  Uiso   1.00
Cu23   Cu    0.25500   0.17246   0.22813   0.00000  Uiso   1.00
Cu24   Cu    0.24499   0.16087   0.10521   0.00000  Uiso   1.00
H25    H     0.39290   0.24901   0.20690   0.00000  Uiso   1.00
H26    H     0.10645   0.08718   0.11523   0.00000  Uiso   1.00
H27    H     0.37990   0.08636   0.12312   0.00000  Uiso   1.00
H28    H     0.12035   0.24370   0.22154   0.00000  Uiso   1.00
H29    H     0.24421   0.32016   0.09562   0.00000  Uiso   1.00
H30    H     0.25577   0.01317   0.23772   0.00000  Uiso   1.00
H31    H     0.21489   0.12563   0.31629   0.00000  Uiso   1.00
H32    H     0.28511   0.20771   0.01704   0.00000  Uiso   1.00
N33    N     0.23744   0.15214   0.01284   0.00000  Uiso   1.00
N34    N     0.26255   0.18119   0.32049   0.00000  Uiso   1.00
O35    O     0.25325   0.09538   0.20659   0.00000  Uiso   1.00
O36    O     0.24674   0.23796   0.12674   0.00000  Uiso   1.00
O37    O     0.24480   0.08559   0.10279   0.00000  Uiso   1.00
O38    O     0.25520   0.24774   0.23055   0.00000  Uiso   1.00
O39    O     0.18935   0.17155   0.21857   0.00000  Uiso   1.00
O40    O     0.31064   0.16179   0.11476   0.00000  Uiso   1.00
O41    O     0.18090   0.16176   0.11477   0.00000  Uiso   1.00
O42    O     0.31910   0.17157   0.21857   0.00000  Uiso   1.00
C43    C     0.43932   0.02245   0.09022   0.00000  Uiso   1.00
H44    H     0.40975   0.02349   0.05958   0.00000  Uiso   1.00
O45    O     0.44748   0.31387   0.10314   0.00000  Uiso   1.00
C46    C     0.06084   0.31069   0.24356   0.00000  Uiso   1.00
H47    H     0.09094   0.31801   0.22192   0.00000  Uiso   1.00
O48    O     0.05210   0.01077   0.28775   0.00000  Uiso   1.00
C49    C     0.03554   0.02010   0.09157   0.00000  Uiso   1.00
H50    H     0.01888   0.32674   0.05095   0.00000  Uiso   1.00
O51    O     0.06889   0.00613   0.11657   0.00000  Uiso   1.00
C52    C     0.46405   0.31176   0.24385   0.00000  Uiso   1.00
H53    H     0.47476   0.01394   0.22943   0.00000  Uiso   1.00
O54    O     0.43697   0.31470   0.28227   0.00000  Uiso   1.00
C55    C     0.74863   0.06662   0.15113   0.00000  Uiso   1.00
C56    C     0.75137   0.26672   0.18221   0.00000  Uiso   1.00
C57    C     0.51585   0.07085   0.11786   0.00000  Uiso   1.00
C58    C     0.98431   0.26117   0.21951   0.00000  Uiso   1.00
C59    C     0.74799   0.01064   0.14240   0.00000  Uiso   1.00
C60    C     0.75200   0.32269   0.19093   0.00000  Uiso   1.00
C61    C     0.66456   0.16583   0.16727   0.00000  Uiso   1.00
C62    C     0.83542   0.16752   0.16609   0.00000  Uiso   1.00
C63    C     0.90995   0.21377   0.19034   0.00000  Uiso   1.00
C64    C     0.58982   0.12026   0.13963   0.00000  Uiso   1.00
C65    C     0.88349   0.16770   0.16484   0.00000  Uiso   1.00
C66    C     0.61647   0.16533   0.16879   0.00000  Uiso   1.00
C67    C     0.90246   0.12114   0.14071   0.00000  Uiso   1.00
C68    C     0.59766   0.21043   0.19826   0.00000  Uiso   1.00
C69    C     0.94919   0.11948   0.14104   0.00000  Uiso   1.00
C70    C     0.55093   0.21279   0.19577   0.00000  Uiso   1.00
C71    C     0.97664   0.16642   0.16799   0.00000  Uiso   1.00
C72    C     0.52347   0.16577   0.16904   0.00000  Uiso   1.00
C73    C     0.95695   0.21410   0.19343   0.00000  Uiso   1.00
C74    C     0.54315   0.11831   0.14253   0.00000  Uiso   1.00
C75    C     0.96864   0.07167   0.11673   0.00000  Uiso   1.00
C76    C     0.53153   0.26076   0.21988   0.00000  Uiso   1.00
Cu77   Cu    0.75500   0.17246   0.22813   0.00000  Uiso   1.00
Cu78   Cu    0.74499   0.16087   0.10521   0.00000  Uiso   1.00
H79    H     0.89290   0.24901   0.20690   0.00000  Uiso   1.00
H80    H     0.60645   0.08718   0.11523   0.00000  Uiso   1.00
H81    H     0.87990   0.08636   0.12312   0.00000  Uiso   1.00
H82    H     0.62035   0.24370   0.22154   0.00000  Uiso   1.00
H83    H     0.74421   0.32016   0.09562   0.00000  Uiso   1.00
H84    H     0.75577   0.01317   0.23772   0.00000  Uiso   1.00
H85    H     0.71489   0.12563   0.31629   0.00000  Uiso   1.00
H86    H     0.78511   0.20771   0.01704   0.00000  Uiso   1.00
N87    N     0.73744   0.15214   0.01284   0.00000  Uiso   1.00
N88    N     0.76255   0.18119   0.32049   0.00000  Uiso   1.00
O89    O     0.75325   0.09538   0.20659   0.00000  Uiso   1.00
O90    O     0.74674   0.23796   0.12674   0.00000  Uiso   1.00
O91    O     0.74480   0.08559   0.10279   0.00000  Uiso   1.00
O92    O     0.75520   0.24774   0.23055   0.00000  Uiso   1.00
O93    O     0.68935   0.17155   0.21857   0.00000  Uiso   1.00
O94    O     0.81064   0.16179   0.11476   0.00000  Uiso   1.00
O95    O     0.68090   0.16176   0.11477   0.00000  Uiso   1.00
O96    O     0.81910   0.17157   0.21857   0.00000  Uiso   1.00
C97    C     0.93932   0.02245   0.09022   0.00000  Uiso   1.00
H98    H     0.90975   0.02349   0.05958   0.00000  Uiso   1.00
O99    O     0.94748   0.31387   0.10314   0.00000  Uiso   1.00
C100   C     0.56084   0.31069   0.24356   0.00000  Uiso   1.00
H101   H     0.59094   0.31801   0.22192   0.00000  Uiso   1.00
O102   O     0.55210   0.01077   0.28775   0.00000  Uiso   1.00
C103   C     0.53554   0.02010   0.09157   0.00000  Uiso   1.00
H104   H     0.51888   0.32674   0.05095   0.00000  Uiso   1.00
O105   O     0.56889   0.00613   0.11657   0.00000  Uiso   1.00
C106   C     0.96405   0.31176   0.24385   0.00000  Uiso   1.00
H107   H     0.97476   0.01394   0.22943   0.00000  Uiso   1.00
O108   O     0.93697   0.31470   0.28227   0.00000  Uiso   1.00
C109   C     0.24863   0.39995   0.15113   0.00000  Uiso   1.00
C110   C     0.25137   0.60005   0.18221   0.00000  Uiso   1.00
C111   C     0.01585   0.40418   0.11786   0.00000  Uiso   1.00
C112   C     0.48431   0.59450   0.21951   0.00000  Uiso   1.00
C113   C     0.24799   0.34397   0.14240   0.00000  Uiso   1.00
C114   C     0.25200   0.65603   0.19093   0.00000  Uiso   1.00
C115   C     0.16456   0.49917   0.16727   0.00000  Uiso   1.00
C116   C     0.33542   0.50085   0.16609   0.00000  Uiso   1.00
C117   C     0.40995   0.54710   0.19034   0.00000  Uiso   1.00
C118   C     0.08982   0.45360   0.13963   0.00000  Uiso   1.00
C119   C     0.38349   0.50103   0.16484   0.00000  Uiso   1.00
C120   C     0.11647   0.49866   0.16879   0.00000  Uiso   1.00
C121   C     0.40246   0.45448   0.14071   0.00000  Uiso   1.00
C122   C     0.09766   0.54377   0.19826   0.00000  Uiso   1.00
C123   C     0.44919   0.45281   0.14104   0.00000  Uiso   1.00
C124   C     0.05093   0.54612   0.19577   0.00000  Uiso   1.00
C125   C     0.47664   0.49975   0.16799   0.00000  Uiso   1.00
C126   C     0.02347   0.49910   0.16904   0.00000  Uiso   1.00
C127   C     0.45695   0.54744   0.19343   0.00000  Uiso   1.00
C128   C     0.04315   0.45164   0.14253   0.00000  Uiso   1.00
C129   C     0.46864   0.40501   0.11673   0.00000  Uiso   1.00
C130   C     0.03153   0.59410   0.21988   0.00000  Uiso   1.00
Cu131  Cu    0.25500   0.50579   0.22813   0.00000  Uiso   1.00
Cu132  Cu    0.24499   0.49421   0.10521   0.00000  Uiso   1.00
H133   H     0.39290   0.58234   0.20690   0.00000  Uiso   1.00
H134   H     0.10645   0.42051   0.11523   0.00000  Uiso   1.00
H135   H     0.37990   0.41969   0.12312   0.00000  Uiso   1.00
H136   H     0.12035   0.57704   0.22154   0.00000  Uiso   1.00
H137   H     0.24421   0.65349   0.09562   0.00000  Uiso   1.00
H138   H     0.25577   0.34651   0.23772   0.00000  Uiso   1.00
H139   H     0.21489   0.45896   0.31629   0.00000  Uiso   1.00
H140   H     0.28511   0.54104   0.01704   0.00000  Uiso   1.00
N141   N     0.23744   0.48547   0.01284   0.00000  Uiso   1.00
N142   N     0.26255   0.51453   0.32049   0.00000  Uiso   1.00
O143   O     0.25325   0.42871   0.20659   0.00000  Uiso   1.00
O144   O     0.24674   0.57129   0.12674   0.00000  Uiso   1.00
O145   O     0.24480   0.41892   0.10279   0.00000  Uiso   1.00
O146   O     0.25520   0.58108   0.23055   0.00000  Uiso   1.00
O147   O     0.18935   0.50488   0.21857   0.00000  Uiso   1.00
O148   O     0.31064   0.49512   0.11476   0.00000  Uiso   1.00
O149   O     0.18090   0.49510   0.11477   0.00000  Uiso   1.00
O150   O     0.31910   0.50490   0.21857   0.00000  Uiso   1.00
C151   C     0.43932   0.35578   0.09022   0.00000  Uiso   1.00
H152   H     0.40975   0.35683   0.05958   0.00000  Uiso   1.00
O153   O     0.44748   0.64720   0.10314   0.00000  Uiso   1.00
C154   C     0.06084   0.64403   0.24356   0.00000  Uiso   1.00
H155   H     0.09094   0.65135   0.22192   0.00000  Uiso   1.00
O156   O     0.05210   0.34410   0.28775   0.00000  Uiso   1.00
C157   C     0.03554   0.35343   0.09157   0.00000  Uiso   1.00
H158   H     0.01888   0.66008   0.05095   0.00000  Uiso   1.00
O159   O     0.06889   0.33946   0.11657   0.00000  Uiso   1.00
C160   C     0.46405   0.64510   0.24385   0.00000  Uiso   1.00
H161   H     0.47476   0.34727   0.22943   0.00000  Uiso   1.00
O162   O     0.43697   0.64803   0.28227   0.00000  Uiso   1.00
C163   C     0.74863   0.39995   0.15113   0.00000  Uiso   1.00
C164   C     0.75137   0.60005   0.18221   0.00000  Uiso   1.00
C165   C     0.51585   0.40418   0.11786   0.00000  Uiso   1.00
C166   C     0.98431   0.59450   0.21951   0.00000  Uiso   1.00
C167   C     0.74799   0.34397   0.14240   0.00000  Uiso   1.00
C168   C     0.75200   0.65603   0.19093   0.00000  Uiso   1.00
C169   C     0.66456   0.49917   0.16727   0.00000  Uiso   1.00
C170   C     0.83542   0.50085   0.16609   0.00000  Uiso   1.00
C171   C     0.90995   0.54710   0.19034   0.00000  Uiso   1.00
C172   C     0.58982   0.45360   0.13963   0.00000  Uiso   1.00
C173   C     0.88349   0.50103   0.16484   0.00000  Uiso   1.00
C174   C     0.61647   0.49866   0.16879   0.00000  Uiso   1.00
C175   C     0.90246   0.45448   0.14071   0.00000  Uiso   1.00
C176   C     0.59766   0.54377   0.19826   0.00000  Uiso   1.00
C177   C     0.94919   0.45281   0.14104   0.00000  Uiso   1.00
C178   C     0.55093   0.54612   0.19577   0.00000  Uiso   1.00
C179   C     0.97664   0.49975   0.16799   0.00000  Uiso   1.00
C180   C     0.52347   0.49910   0.16904   0.00000  Uiso   1.00
C181   C     0.95695   0.54744   0.19343   0.00000  Uiso   1.00
C182   C     0.54315   0.45164   0.14253   0.00000  Uiso   1.00
C183   C     0.96864   0.40501   0.11673   0.00000  Uiso   1.00
C184   C     0.53153   0.59410   0.21988   0.00000  Uiso   1.00
Cu185  Cu    0.75500   0.50579   0.22813   0.00000  Uiso   1.00
Cu186  Cu    0.74499   0.49421   0.10521   0.00000  Uiso   1.00
H187   H     0.89290   0.58234   0.20690   0.00000  Uiso   1.00
H188   H     0.60645   0.42051   0.11523   0.00000  Uiso   1.00
H189   H     0.87990   0.41969   0.12312   0.00000  Uiso   1.00
H190   H     0.62035   0.57704   0.22154   0.00000  Uiso   1.00
H191   H     0.74421   0.65349   0.09562   0.00000  Uiso   1.00
H192   H     0.75577   0.34651   0.23772   0.00000  Uiso   1.00
H193   H     0.71489   0.45896   0.31629   0.00000  Uiso   1.00
H194   H     0.78511   0.54104   0.01704   0.00000  Uiso   1.00
N195   N     0.73744   0.48547   0.01284   0.00000  Uiso   1.00
N196   N     0.76255   0.51453   0.32049   0.00000  Uiso   1.00
O197   O     0.75325   0.42871   0.20659   0.00000  Uiso   1.00
O198   O     0.74674   0.57129   0.12674   0.00000  Uiso   1.00
O199   O     0.74480   0.41892   0.10279   0.00000  Uiso   1.00
O200   O     0.75520   0.58108   0.23055   0.00000  Uiso   1.00
O201   O     0.68935   0.50488   0.21857   0.00000  Uiso   1.00
O202   O     0.81064   0.49512   0.11476   0.00000  Uiso   1.00
O203   O     0.68090   0.49510   0.11477   0.00000  Uiso   1.00
O204   O     0.81910   0.50490   0.21857   0.00000  Uiso   1.00
C205   C     0.93932   0.35578   0.09022   0.00000  Uiso   1.00
H206   H     0.90975   0.35683   0.05958   0.00000  Uiso   1.00
O207   O     0.94748   0.64720   0.10314   0.00000  Uiso   1.00
C208   C     0.56084   0.64403   0.24356   0.00000  Uiso   1.00
H209   H     0.59094   0.65135   0.22192   0.00000  Uiso   1.00
O210   O     0.55210   0.34410   0.28775   0.00000  Uiso   1.00
C211   C     0.53554   0.35343   0.09157   0.00000  Uiso   1.00
H212   H     0.51888   0.66008   0.05095   0.00000  Uiso   1.00
O213   O     0.56889   0.33946   0.11657   0.00000  Uiso   1.00
C214   C     0.96405   0.64510   0.24385   0.00000  Uiso   1.00
H215   H     0.97476   0.34727   0.22943   0.00000  Uiso   1.00
O216   O     0.93697   0.64803   0.28227   0.00000  Uiso   1.00
C217   C     0.24863   0.73328   0.15113   0.00000  Uiso   1.00
C218   C     0.25137   0.93338   0.18221   0.00000  Uiso   1.00
C219   C     0.01585   0.73752   0.11786   0.00000  Uiso   1.00
C220   C     0.48431   0.92784   0.21951   0.00000  Uiso   1.00
C221   C     0.24799   0.67731   0.14240   0.00000  Uiso   1.00
C222   C     0.25200   0.98936   0.19093   0.00000  Uiso   1.00
C223   C     0.16456   0.83250   0.16727   0.00000  Uiso   1.00
C224   C     0.33542   0.83418   0.16609   0.00000  Uiso   1.00
C225   C     0.40995   0.88044   0.19034   0.00000  Uiso   1.00
C226   C     0.08982   0.78693   0.13963   0.00000  Uiso   1.00
C227   C     0.38349   0.83437   0.16484   0.00000  Uiso   1.00
C228   C     0.11647   0.83199   0.16879   0.00000  Uiso   1.00
C229   C     0.40246   0.78781   0.14071   0.00000  Uiso   1.00
C230   C     0.09766   0.87710   0.19826   0.00000  Uiso   1.00
C231   C     0.44919   0.78615   0.14104   0.00000  Uiso   1.00
C232   C     0.05093   0.87945   0.19577   0.00000  Uiso   1.00
C233   C     0.47664   0.83309   0.16799   0.00000  Uiso   1.00
C234   C     0.02347   0.83244   0.16904   0.00000  Uiso   1.00
C235   C     0.45695   0.88077   0.19343   0.00000  Uiso   1.00
C236   C     0.04315   0.78498   0.14253   0.00000  Uiso   1.00
C237   C     0.46864   0.73834   0.11673   0.00000  Uiso   1.00
C238   C     0.03153   0.92743   0.21988   0.00000  Uiso   1.00
Cu239  Cu    0.25500   0.83913   0.22813   0.00000  Uiso   1.00
Cu240  Cu    0.24499   0.82754   0.10521   0.00000  Uiso   1.00
H241   H     0.39290   0.91567   0.20690   0.00000  Uiso   1.00
H242   H     0.10645   0.75385   0.11523   0.00000  Uiso   1.00
H243   H     0.37990   0.75302   0.12312   0.00000  Uiso   1.00
H244   H     0.12035   0.91037   0.22154   0.00000  Uiso   1.00
H245   H     0.24421   0.98683   0.09562   0.00000  Uiso   1.00
H246   H     0.25577   0.67984   0.23772   0.00000  Uiso   1.00
H247   H     0.21489   0.79229   0.31629   0.00000  Uiso   1.00
H248   H     0.28511   0.87437   0.01704   0.00000  Uiso   1.00
N249   N     0.23744   0.81881   0.01284   0.00000  Uiso   1.00
N250   N     0.26255   0.84786   0.32049   0.00000  Uiso   1.00
O251   O     0.25325   0.76204   0.20659   0.00000  Uiso   1.00
O252   O     0.24674   0.90462   0.12674   0.00000  Uiso   1.00
O253   O     0.24480   0.75226   0.10279   0.00000  Uiso   1.00
O254   O     0.25520   0.91441   0.23055   0.00000  Uiso   1.00
O255   O     0.18935   0.83821   0.21857   0.00000  Uiso   1.00
O256   O     0.31064   0.82845   0.11476   0.00000  Uiso   1.00
O257   O     0.18090   0.82843   0.11477   0.00000  Uiso   1.00
O258   O     0.31910   0.83824   0.21857   0.00000  Uiso   1.00
C259   C     0.43932   0.68912   0.09022   0.00000  Uiso   1.00
H260   H     0.40975   0.69016   0.05958   0.00000  Uiso   1.00
O261   O     0.44748   0.98054   0.10314   0.00000  Uiso   1.00
C262   C     0.06084   0.97736   0.24356   0.00000  Uiso   1.00
H263   H     0.09094   0.98468   0.22192   0.00000  Uiso   1.00
O264   O     0.05210   0.67743   0.28775   0.00000  Uiso   1.00
C265   C     0.03554   0.68677   0.09157   0.00000  Uiso   1.00
H266   H     0.01888   0.99341   0.05095   0.00000  Uiso   1.00
O267   O     0.06889   0.67279   0.11657   0.00000  Uiso   1.00
C268   C     0.46405   0.97843   0.24385   0.00000  Uiso   1.00
H269   H     0.47476   0.68060   0.22943   0.00000  Uiso   1.00
O270   O     0.43697   0.98137   0.28227   0.00000  Uiso   1.00
C271   C     0.74863   0.73328   0.15113   0.00000  Uiso   1.00
C272   C     0.75137   0.93338   0.18221   0.00000  Uiso   1.00
C273   C     0.51585   0.73752   0.11786   0.00000  Uiso   1.00
C274   C     0.98431   0.92784   0.21951   0.00000  Uiso   1.00
C275   C     0.74799   0.67731   0.14240   0.00000  Uiso   1.00
C276   C     0.75200   0.98936   0.19093   0.00000  Uiso   1.00
C277   C     0.66456   0.83250   0.16727   0.00000  Uiso   1.00
C278   C     0.83542   0.83418   0.16609   0.00000  Uiso   1.00
C279   C     0.90995   0.88044   0.19034   0.00000  Uiso   1.00
C280   C     0.58982   0.78693   0.13963   0.00000  Uiso   1.00
C281   C     0.88349   0.83437   0.16484   0.00000  Uiso   1.00
C282   C     0.61647   0.83199   0.16879   0.00000  Uiso   1.00
C283   C     0.90246   0.78781   0.14071   0.00000  Uiso   1.00
C284   C     0.59766   0.87710   0.19826   0.00000  Uiso   1.00
C285   C     0.94919   0.78615   0.14104   0.00000  Uiso   1.00
C286   C     0.55093   0.87945   0.19577   0.00000  Uiso   1.00
C287   C     0.97664   0.83309   0.16799   0.00000  Uiso   1.00
C288   C     0.52347   0.83244   0.16904   0.00000  Uiso   1.00
C289   C     0.95695   0.88077   0.19343   0.00000  Uiso   1.00
C290   C     0.54315   0.78498   0.14253   0.00000  Uiso   1.00
C291   C     0.96864   0.73834   0.11673   0.00000  Uiso   1.00
C292   C     0.53153   0.92743   0.21988   0.00000  Uiso   1.00
Cu293  Cu    0.75500   0.83913   0.22813   0.00000  Uiso   1.00
Cu294  Cu    0.74499   0.82754   0.10521   0.00000  Uiso   1.00
H295   H     0.89290   0.91567   0.20690   0.00000  Uiso   1.00
H296   H     0.60645   0.75385   0.11523   0.00000  Uiso   1.00
H297   H     0.87990   0.75302   0.12312   0.00000  Uiso   1.00
H298   H     0.62035   0.91037   0.22154   0.00000  Uiso   1.00
H299   H     0.74421   0.98683   0.09562   0.00000  Uiso   1.00
H300   H     0.75577   0.67984   0.23772   0.00000  Uiso   1.00
H301   H     0.71489   0.79229   0.31629   0.00000  Uiso   1.00
H302   H     0.78511   0.87437   0.01704   0.00000  Uiso   1.00
N303   N     0.73744   0.81881   0.01284   0.00000  Uiso   1.00
N304   N     0.76255   0.84786   0.32049   0.00000  Uiso   1.00
O305   O     0.75325   0.76204   0.20659   0.00000  Uiso   1.00
O306   O     0.74674   0.90462   0.12674   0.00000  Uiso   1.00
O307   O     0.74480   0.75226   0.10279   0.00000  Uiso   1.00
O308   O     0.75520   0.91441   0.23055   0.00000  Uiso   1.00
O309   O     0.68935   0.83821   0.21857   0.00000  Uiso   1.00
O310   O     0.81064   0.82845   0.11476   0.00000  Uiso   1.00
O311   O     0.68090   0.82843   0.11477   0.00000  Uiso   1.00
O312   O     0.81910   0.83824   0.21857   0.00000  Uiso   1.00
C313   C     0.93932   0.68912   0.09022   0.00000  Uiso   1.00
H314   H     0.90975   0.69016   0.05958   0.00000  Uiso   1.00
O315   O     0.94748   0.98054   0.10314   0.00000  Uiso   1.00
C316   C     0.56084   0.97736   0.24356   0.00000  Uiso   1.00
H317   H     0.59094   0.98468   0.22192   0.00000  Uiso   1.00
O318   O     0.55210   0.67743   0.28775   0.00000  Uiso   1.00
C319   C     0.53554   0.68677   0.09157   0.00000  Uiso   1.00
H320   H     0.51888   0.99341   0.05095   0.00000  Uiso   1.00
O321   O     0.56889   0.67279   0.11657   0.00000  Uiso   1.00
C322   C     0.96405   0.97843   0.24385   0.00000  Uiso   1.00
H323   H     0.97476   0.68060   0.22943   0.00000  Uiso   1.00
O324   O     0.93697   0.98137   0.28227   0.00000  Uiso   1.00
C325   C     0.24863   0.06662   0.48446   0.00000  Uiso   1.00
C326   C     0.25137   0.26672   0.51554   0.00000  Uiso   1.00
C327   C     0.01585   0.07085   0.45119   0.00000  Uiso   1.00
C328   C     0.48431   0.26117   0.55284   0.00000  Uiso   1.00
C329   C     0.24799   0.01064   0.47573   0.00000  Uiso   1.00
C330   C     0.25200   0.32269   0.52427   0.00000  Uiso   1.00
C331   C     0.16456   0.16583   0.50060   0.00000  Uiso   1.00
C332   C     0.33542   0.16752   0.49942   0.00000  Uiso   1.00
C333   C     0.40995   0.21377   0.52367   0.00000  Uiso   1.00
C334   C     0.08982   0.12026   0.47296   0.00000  Uiso   1.00
C335   C     0.38349   0.16770   0.49817   0.00000  Uiso   1.00
C336   C     0.11647   0.16533   0.50212   0.00000  Uiso   1.00
C337   C     0.40246   0.12114   0.47404   0.00000  Uiso   1.00
C338   C     0.09766   0.21043   0.53160   0.00000  Uiso   1.00
C339   C     0.44919   0.11948   0.47438   0.00000  Uiso   1.00
C340   C     0.05093   0.21279   0.52911   0.00000  Uiso   1.00
C341   C     0.47664   0.16642   0.50132   0.00000  Uiso   1.00
C342   C     0.02347   0.16577   0.50237   0.00000  Uiso   1.00
C343   C     0.45695   0.21410   0.52676   0.00000  Uiso   1.00
C344   C     0.04315   0.11831   0.47587   0.00000  Uiso   1.00
C345   C     0.46864   0.07167   0.45006   0.00000  Uiso   1.00
C346   C     0.03153   0.26076   0.55322   0.00000  Uiso   1.00
Cu347  Cu    0.25500   0.17246   0.56146   0.00000  Uiso   1.00
Cu348  Cu    0.24499   0.16087   0.43854   0.00000  Uiso   1.00
H349   H     0.39290   0.24901   0.54023   0.00000  Uiso   1.00
H350   H     0.10645   0.08718   0.44856   0.00000  Uiso   1.00
H351   H     0.37990   0.08636   0.45645   0.00000  Uiso   1.00
H352   H     0.12035   0.24370   0.55488   0.00000  Uiso   1.00
H353   H     0.24421   0.32016   0.42895   0.00000  Uiso   1.00
H354   H     0.25577   0.01317   0.57105   0.00000  Uiso   1.00
H355   H     0.21489   0.12563   0.64963   0.00000  Uiso   1.00
H356   H     0.28511   0.20771   0.35037   0.00000  Uiso   1.00
N357   N     0.23744   0.15214   0.34617   0.00000  Uiso   1.00
N358   N     0.26255   0.18119   0.65383   0.00000  Uiso   1.00
O359   O     0.25325   0.09538   0.53992   0.00000  Uiso   1.00
O360   O     0.24674   0.23796   0.46008   0.00000  Uiso   1.00
O361   O     0.24480   0.08559   0.43612   0.00000  Uiso   1.00
O362   O     0.25520   0.24774   0.56388   0.00000  Uiso   1.00
O363   O     0.18935   0.17155   0.55191   0.00000  Uiso   1.00
O364   O     0.31064   0.16179   0.44809   0.00000  Uiso   1.00
O365   O     0.18090   0.16176   0.44810   0.00000  Uiso   1.00
O366   O     0.31910   0.17157   0.55190   0.00000  Uiso   1.00
C367   C     0.43932   0.02245   0.42355   0.00000  Uiso   1.00
H368   H     0.40975   0.02349   0.39292   0.00000  Uiso   1.00
O369   O     0.44748   0.31387   0.43647   0.00000  Uiso   1.00
C370   C     0.06084   0.31069   0.57689   0.00000  Uiso   1.00
H371   H     0.09094   0.31801   0.55525   0.00000  Uiso   1.00
O372   O     0.05210   0.01077   0.62109   0.00000  Uiso   1.00
C373   C     0.03554   0.02010   0.42490   0.00000  Uiso   1.00
H374   H     0.01888   0.32674   0.38429   0.00000  Uiso   1.00
O375   O     0.06889   0.00613   0.44991   0.00000  Uiso   1.00
C376   C     0.46405   0.31176   0.57719   0.00000  Uiso   1.00
H377   H     0.47476   0.01394   0.56276   0.00000  Uiso   1.00
O378   O     0.43697   0.31470   0.61561   0.00000  Uiso   1.00
C379   C     0.74863   0.06662   0.48446   0.00000  Uiso   1.00
C380   C     0.75137   0.26672   0.51554   0.00000  Uiso   1.00
C381   C     0.51585   0.07085   0.45119   0.00000  Uiso   1.00
C382   C     0.98431   0.26117   0.55284   0.00000  Uiso   1.00
C383   C     0.74799   0.01064   0.47573   0.00000  Uiso   1.00
C384   C     0.75200   0.32269   0.52427   0.00000  Uiso   1.00
C385   C     0.66456   0.16583   0.50060   0.00000  Uiso   1.00
C386   C     0.83542   0.16752   0.49942   0.00000  Uiso   1.00
C387   C     0.90995   0.21377   0.52367   0.00000  Uiso   1.00
C388   C     0.58982   0.12026   0.47296   0.00000  Uiso   1.00
C389   C     0.88349   0.16770   0.49817   0.00000  Uiso   1.00
C390   C     0.61647   0.16533   0.50212   0.00000  Uiso   1.00
C391   C     0.90246   0.12114   0.47404   0.00000  Uiso   1.00
C392   C     0.59766   0.21043   0.53160   0.00000  Uiso   1.00
C393   C     0.94919   0.11948   0.47438   0.00000  Uiso   1.00
C394   C     0.55093   0.21279   0.52911   0.00000  Uiso   1.00
C395   C     0.97664   0.16642   0.50132   0.00000  Uiso   1.00
C396   C     0.52347   0.16577   0.50237   0.00000  Uiso   1.00
C397   C     0.95695   0.21410   0.52676   0.00000  Uiso   1.00
C398   C     0.54315   0.11831   0.47587   0.00000  Uiso   1.00
C399   C     0.96864   0.07167   0.45006   0.00000  Uiso   1.00
C400   C     0.53153   0.26076   0.55322   0.00000  Uiso   1.00
Cu401  Cu    0.75500   0.17246   0.56146   0.00000  Uiso   1.00
Cu402  Cu    0.74499   0.16087   0.43854   0.00000  Uiso   1.00
H403   H     0.89290   0.24901   0.54023   0.00000  Uiso   1.00
H404   H     0.60645   0.08718   0.44856   0.00000  Uiso   1.00
H405   H     0.87990   0.08636   0.45645   0.00000  Uiso   1.00
H406   H     0.62035   0.24370   0.55488   0.00000  Uiso   1.00
H407   H     0.74421   0.32016   0.42895   0.00000  Uiso   1.00
H408   H     0.75577   0.01317   0.57105   0.00000  Uiso   1.00
H409   H     0.71489   0.12563   0.64963   0.00000  Uiso   1.00
H410   H     0.78511   0.20771   0.35037   0.00000  Uiso   1.00
N411   N     0.73744   0.15214   0.34617   0.00000  Uiso   1.00
N412   N     0.76255   0.18119   0.65383   0.00000  Uiso   1.00
O413   O     0.75325   0.09538   0.53992   0.00000  Uiso   1.00
O414   O     0.74674   0.23796   0.46008   0.00000  Uiso   1.00
O415   O     0.74480   0.08559   0.43612   0.00000  Uiso   1.00
O416   O     0.75520   0.24774   0.56388   0.00000  Uiso   1.00
O417   O     0.68935   0.17155   0.55191   0.00000  Uiso   1.00
O418   O     0.81064   0.16179   0.44809   0.00000  Uiso   1.00
O419   O     0.68090   0.16176   0.44810   0.00000  Uiso   1.00
O420   O     0.81910   0.17157   0.55190   0.00000  Uiso   1.00
C421   C     0.93932   0.02245   0.42355   0.00000  Uiso   1.00
H422   H     0.90975   0.02349   0.39292   0.00000  Uiso   1.00
O423   O     0.94748   0.31387   0.43647   0.00000  Uiso   1.00
C424   C     0.56084   0.31069   0.57689   0.00000  Uiso   1.00
H425   H     0.59094   0.31801   0.55525   0.00000  Uiso   1.00
O426   O     0.55210   0.01077   0.62109   0.00000  Uiso   1.00
C427   C     0.53554   0.02010   0.42490   0.00000  Uiso   1.00
H428   H     0.51888   0.32674   0.38429   0.00000  Uiso   1.00
O429   O     0.56889   0.00613   0.44991   0.00000  Uiso   1.00
C430   C     0.96405   0.31176   0.57719   0.00000  Uiso   1.00
H431   H     0.97476   0.01394   0.56276   0.00000  Uiso   1.00
O432   O     0.93697   0.31470   0.61561   0.00000  Uiso   1.00
C433   C     0.24863   0.39995   0.48446   0.00000  Uiso   1.00
C434   C     0.25137   0.60005   0.51554   0.00000  Uiso   1.00
C435   C     0.01585   0.40418   0.45119   0.00000  Uiso   1.00
C436   C     0.48431   0.59450   0.55284   0.00000  Uiso   1.00
C437   C     0.24799   0.34397   0.47573   0.00000  Uiso   1.00
C438   C     0.25200   0.65603   0.52427   0.00000  Uiso   1.00
C439   C     0.16456   0.49917   0.50060   0.00000  Uiso   1.00
C440   C     0.33542   0.50085   0.49942   0.00000  Uiso   1.00
C441   C     0.40995   0.54710   0.52367   0.00000  Uiso   1.00
C442   C     0.08982   0.45360   0.47296   0.00000  Uiso   1.00
C443   C     0.38349   0.50103   0.49817   0.00000  Uiso   1.00
C444   C     0.11647   0.49866   0.50212   0.00000  Uiso   1.00
C445   C     0.40246   0.45448   0.47404   0.00000  Uiso   1.00
C446   C     0.09766   0.54377   0.53160   0.00000  Uiso   1.00
C447   C     0.44919   0.45281   0.47438   0.00000  Uiso   1.00
C448   C     0.05093   0.54612   0.52911   0.00000  Uiso   1.00
C449   C     0.47664   0.49975   0.50132   0.00000  Uiso   1.00
C450   C     0.02347   0.49910   0.50237   0.00000  Uiso   1.00
C451   C     0.45695   0.54744   0.52676   0.00000  Uiso   1.00
C452   C     0.04315   0.45164   0.47587   0.00000  Uiso   1.00
C453   C     0.46864   0.40501   0.45006   0.00000  Uiso   1.00
C454   C     0.03153   0.59410   0.55322   0.00000  Uiso   1.00
Cu455  Cu    0.25500   0.50579   0.56146   0.00000  Uiso   1.00
Cu456  Cu    0.24499   0.49421   0.43854   0.00000  Uiso   1.00
H457   H     0.39290   0.58234   0.54023   0.00000  Uiso   1.00
H458   H     0.10645   0.42051   0.44856   0.00000  Uiso   1.00
H459   H     0.37990   0.41969   0.45645   0.00000  Uiso   1.00
H460   H     0.12035   0.57704   0.55488   0.00000  Uiso   1.00
H461   H     0.24421   0.65349   0.42895   0.00000  Uiso   1.00
H462   H     0.25577   0.34651   0.57105   0.00000  Uiso   1.00
H463   H     0.21489   0.45896   0.64963   0.00000  Uiso   1.00
H464   H     0.28511   0.54104   0.35037   0.00000  Uiso   1.00
N465   N     0.23744   0.48547   0.34617   0.00000  Uiso   1.00
N466   N     0.26255   0.51453   0.65383   0.00000  Uiso   1.00
O467   O     0.25325   0.42871   0.53992   0.00000  Uiso   1.00
O468   O     0.24674   0.57129   0.46008   0.00000  Uiso   1.00
O469   O     0.24480   0.41892   0.43612   0.00000  Uiso   1.00
O470   O     0.25520   0.58108   0.56388   0.00000  Uiso   1.00
O471   O     0.18935   0.50488   0.55191   0.00000  Uiso   1.00
O472   O     0.31064   0.49512   0.44809   0.00000  Uiso   1.00
O473   O     0.18090   0.49510   0.44810   0.00000  Uiso   1.00
O474   O     0.31910   0.50490   0.55190   0.00000  Uiso   1.00
C475   C     0.43932   0.35578   0.42355   0.00000  Uiso   1.00
H476   H     0.40975   0.35683   0.39292   0.00000  Uiso   1.00
O477   O     0.44748   0.64720   0.43647   0.00000  Uiso   1.00
C478   C     0.06084   0.64403   0.57689   0.00000  Uiso   1.00
H479   H     0.09094   0.65135   0.55525   0.00000  Uiso   1.00
O480   O     0.05210   0.34410   0.62109   0.00000  Uiso   1.00
C481   C     0.03554   0.35343   0.42490   0.00000  Uiso   1.00
H482   H     0.01888   0.66008   0.38429   0.00000  Uiso   1.00
O483   O     0.06889   0.33946   0.44991   0.00000  Uiso   1.00
C484   C     0.46405   0.64510   0.57719   0.00000  Uiso   1.00
H485   H     0.47476   0.34727   0.56276   0.00000  Uiso   1.00
O486   O     0.43697   0.64803   0.61561   0.00000  Uiso   1.00
C487   C     0.74863   0.39995   0.48446   0.00000  Uiso   1.00
C488   C     0.75137   0.60005   0.51554   0.00000  Uiso   1.00
C489   C     0.51585   0.40418   0.45119   0.00000  Uiso   1.00
C490   C     0.98431   0.59450   0.55284   0.00000  Uiso   1.00
C491   C     0.74799   0.34397   0.47573   0.00000  Uiso   1.00
C492   C     0.75200   0.65603   0.52427   0.00000  Uiso   1.00
C493   C     0.66456   0.49917   0.50060   0.00000  Uiso   1.00
C494   C     0.83542   0.50085   0.49942   0.00000  Uiso   1.00
C495   C     0.90995   0.54710   0.52367   0.00000  Uiso   1.00
C496   C     0.58982   0.45360   0.47296   0.00000  Uiso   1.00
C497   C     0.88349   0.50103   0.49817   0.00000  Uiso   1.00
C498   C     0.61647   0.49866   0.50212   0.00000  Uiso   1.00
C499   C     0.90246   0.45448   0.47404   0.00000  Uiso   1.00
C500   C     0.59766   0.54377   0.53160   0.00000  Uiso   1.00
C501   C     0.94919   0.45281   0.47438   0.00000  Uiso   1.00
C502   C     0.55093   0.54612   0.52911   0.00000  Uiso   1.00
C503   C     0.97664   0.49975   0.50132   0.00000  Uiso   1.00
C504   C     0.52347   0.49910   0.50237   0.00000  Uiso   1.00
C505   C     0.95695   0.54744   0.52676   0.00000  Uiso   1.00
C506   C     0.54315   0.45164   0.47587   0.00000  Uiso   1.00
C507   C     0.96864   0.40501   0.45006   0.00000  Uiso   1.00
C508   C     0.53153   0.59410   0.55322   0.00000  Uiso   1.00
Cu509  Cu    0.75500   0.50579   0.56146   0.00000  Uiso   1.00
Cu510  Cu    0.74499   0.49421   0.43854   0.00000  Uiso   1.00
H511   H     0.89290   0.58234   0.54023   0.00000  Uiso   1.00
H512   H     0.60645   0.42051   0.44856   0.00000  Uiso   1.00
H513   H     0.87990   0.41969   0.45645   0.00000  Uiso   1.00
H514   H     0.62035   0.57704   0.55488   0.00000  Uiso   1.00
H515   H     0.74421   0.65349   0.42895   0.00000  Uiso   1.00
H516   H     0.75577   0.34651   0.57105   0.00000  Uiso   1.00
H517   H     0.71489   0.45896   0.64963   0.00000  Uiso   1.00
H518   H     0.78511   0.54104   0.35037   0.00000  Uiso   1.00
N519   N     0.73744   0.48547   0.34617   0.00000  Uiso   1.00
N520   N     0.76255   0.51453   0.65383   0.00000  Uiso   1.00
O521   O     0.75325   0.42871   0.53992   0.00000  Uiso   1.00
O522   O     0.74674   0.57129   0.46008   0.00000  Uiso   1.00
O523   O     0.74480   0.41892   0.43612   0.00000  Uiso   1.00
O524   O     0.75520   0.58108   0.56388   0.00000  Uiso   1.00
O525   O     0.68935   0.50488   0.55191   0.00000  Uiso   1.00
O526   O     0.81064   0.49512   0.44809   0.00000  Uiso   1.00
O527   O     0.68090   0.49510   0.44810   0.00000  Uiso   1.00
O528   O     0.81910   0.50490   0.55190   0.00000  Uiso   1.00
C529   C     0.93932   0.35578   0.42355   0.00000  Uiso   1.00
H530   H     0.90975   0.35683   0.39292   0.00000  Uiso   1.00
O531   O     0.94748   0.64720   0.43647   0.00000  Uiso   1.00
C532   C     0.56084   0.64403   0.57689   0.00000  Uiso   1.00
H533   H     0.59094   0.65135   0.55525   0.00000  Uiso   1.00
O534   O     0.55210   0.34410   0.62109   0.00000  Uiso   1.00
C535   C     0.53554   0.35343   0.42490   0.00000  Uiso   1.00
H536   H     0.51888   0.66008   0.38429   0.00000  Uiso   1.00
O537   O     0.56889   0.33946   0.44991   0.00000  Uiso   1.00
C538   C     0.96405   0.64510   0.57719   0.00000  Uiso   1.00
H539   H     0.97476   0.34727   0.56276   0.00000  Uiso   1.00
O540   O     0.93697   0.64803   0.61561   0.00000  Uiso   1.00
C541   C     0.24863   0.73328   0.48446   0.00000  Uiso   1.00
C542   C     0.25137   0.93338   0.51554   0.00000  Uiso   1.00
C543   C     0.01585   0.73752   0.45119   0.00000  Uiso   1.00
C544   C     0.48431   0.92784   0.55284   0.00000  Uiso   1.00
C545   C     0.24799   0.67731   0.47573   0.00000  Uiso   1.00
C546   C     0.25200   0.98936   0.52427   0.00000  Uiso   1.00
C547   C     0.16456   0.83250   0.50060   0.00000  Uiso   1.00
C548   C     0.33542   0.83418   0.49942   0.00000  Uiso   1.00
C549   C     0.40995   0.88044   0.52367   0.00000  Uiso   1.00
C550   C     0.08982   0.78693   0.47296   0.00000  Uiso   1.00
C551   C     0.38349   0.83437   0.49817   0.00000  Uiso   1.00
C552   C     0.11647   0.83199   0.50212   0.00000  Uiso   1.00
C553   C     0.40246   0.78781   0.47404   0.00000  Uiso   1.00
C554   C     0.09766   0.87710   0.53160   0.00000  Uiso   1.00
C555   C     0.44919   0.78615   0.47438   0.00000  Uiso   1.00
C556   C     0.05093   0.87945   0.52911   0.00000  Uiso   1.00
C557   C     0.47664   0.83309   0.50132   0.00000  Uiso   1.00
C558   C     0.02347   0.83244   0.50237   0.00000  Uiso   1.00
C559   C     0.45695   0.88077   0.52676   0.00000  Uiso   1.00
C560   C     0.04315   0.78498   0.47587   0.00000  Uiso   1.00
C561   C     0.46864   0.73834   0.45006   0.00000  Uiso   1.00
C562   C     0.03153   0.92743   0.55322   0.00000  Uiso   1.00
Cu563  Cu    0.25500   0.83913   0.56146   0.00000  Uiso   1.00
Cu564  Cu    0.24499   0.82754   0.43854   0.00000  Uiso   1.00
H565   H     0.39290   0.91567   0.54023   0.00000  Uiso   1.00
H566   H     0.10645   0.75385   0.44856   0.00000  Uiso   1.00
H567   H     0.37990   0.75302   0.45645   0.00000  Uiso   1.00
H568   H     0.12035   0.91037   0.55488   0.00000  Uiso   1.00
H569   H     0.24421   0.98683   0.42895   0.00000  Uiso   1.00
H570   H     0.25577   0.67984   0.57105   0.00000  Uiso   1.00
H571   H     0.21489   0.79229   0.64963   0.00000  Uiso   1.00
H572   H     0.28511   0.87437   0.35037   0.00000  Uiso   1.00
N573   N     0.23744   0.81881   0.34617   0.00000  Uiso   1.00
N574   N     0.26255   0.84786   0.65383   0.00000  Uiso   1.00
O575   O     0.25325   0.76204   0.53992   0.00000  Uiso   1.00
O576   O     0.24674   0.90462   0.46008   0.00000  Uiso   1.00
O577   O     0.24480   0.75226   0.43612   0.00000  Uiso   1.00
O578   O     0.25520   0.91441   0.56388   0.00000  Uiso   1.00
O579   O     0.18935   0.83821   0.55191   0.00000  Uiso   1.00
O580   O     0.31064   0.82845   0.44809   0.00000  Uiso   1.00
O581   O     0.18090   0.82843   0.44810   0.00000  Uiso   1.00
O582   O     0.31910   0.83824   0.55190   0.00000  Uiso   1.00
C583   C     0.43932   0.68912   0.42355   0.00000  Uiso   1.00
H584   H     0.40975   0.69016   0.39292   0.00000  Uiso   1.00
O585   O     0.44748   0.98054   0.43647   0.00000  Uiso   1.00
C586   C     0.06084   0.97736   0.57689   0.00000  Uiso   1.00
H587   H     0.09094   0.98468   0.55525   0.00000  Uiso   1.00
O588   O     0.05210   0.67743   0.62109   0.00000  Uiso   1.00
C589   C     0.03554   0.68677   0.42490   0.00000  Uiso   1.00
H590   H     0.01888   0.99341   0.38429   0.00000  Uiso   1.00
O591   O     0.06889   0.67279   0.44991   0.00000  Uiso   1.00
C592   C     0.46405   0.97843   0.57719   0.00000  Uiso   1.00
H593   H     0.47476   0.68060   0.56276   0.00000  Uiso   1.00
O594   O     0.43697   0.98137   0.61561   0.00000  Uiso   1.00
C595   C     0.74863   0.73328   0.48446   0.00000  Uiso   1.00
C596   C     0.75137   0.93338   0.51554   0.00000  Uiso   1.00
C597   C     0.51585   0.73752   0.45119   0.00000  Uiso   1.00
C598   C     0.98431   0.92784   0.55284   0.00000  Uiso   1.00
C599   C     0.74799   0.67731   0.47573   0.00000  Uiso   1.00
C600   C     0.75200   0.98936   0.52427   0.00000  Uiso   1.00
C601   C     0.66456   0.83250   0.50060   0.00000  Uiso   1.00
C602   C     0.83542   0.83418   0.49942   0.00000  Uiso   1.00
C603   C     0.90995   0.88044   0.52367   0.00000  Uiso   1.00
C604   C     0.58982   0.78693   0.47296   0.00000  Uiso   1.00
C605   C     0.88349   0.83437   0.49817   0.00000  Uiso   1.00
C606   C     0.61647   0.83199   0.50212   0.00000  Uiso   1.00
C607   C     0.90246   0.78781   0.47404   0.00000  Uiso   1.00
C608   C     0.59766   0.87710   0.53160   0.00000  Uiso   1.00
C609   C     0.94919   0.78615   0.47438   0.00000  Uiso   1.00
C610   C     0.55093   0.87945   0.52911   0.00000  Uiso   1.00
C611   C     0.97664   0.83309   0.50132   0.00000  Uiso   1.00
C612   C     0.52347   0.83244   0.50237   0.00000  Uiso   1.00
C613   C     0.95695   0.88077   0.52676   0.00000  Uiso   1.00
C614   C     0.54315   0.78498   0.47587   0.00000  Uiso   1.00
C615   C     0.96864   0.73834   0.45006   0.00000  Uiso   1.00
C616   C     0.53153   0.92743   0.55322   0.00000  Uiso   1.00
Cu617  Cu    0.75500   0.83913   0.56146   0.00000  Uiso   1.00
Cu618  Cu    0.74499   0.82754   0.43854   0.00000  Uiso   1.00
H619   H     0.89290   0.91567   0.54023   0.00000  Uiso   1.00
H620   H     0.60645   0.75385   0.44856   0.00000  Uiso   1.00
H621   H     0.87990   0.75302   0.45645   0.00000  Uiso   1.00
H622   H     0.62035   0.91037   0.55488   0.00000  Uiso   1.00
H623   H     0.74421   0.98683   0.42895   0.00000  Uiso   1.00
H624   H     0.75577   0.67984   0.57105   0.00000  Uiso   1.00
H625   H     0.71489   0.79229   0.64963   0.00000  Uiso   1.00
H626   H     0.78511   0.87437   0.35037   0.00000  Uiso   1.00
N627   N     0.73744   0.81881   0.34617   0.00000  Uiso   1.00
N628   N     0.76255   0.84786   0.65383   0.00000  Uiso   1.00
O629   O     0.75325   0.76204   0.53992   0.00000  Uiso   1.00
O630   O     0.74674   0.90462   0.46008   0.00000  Uiso   1.00
O631   O     0.74480   0.75226   0.43612   0.00000  Uiso   1.00
O632   O     0.75520   0.91441   0.56388   0.00000  Uiso   1.00
O633   O     0.68935   0.83821   0.55191   0.00000  Uiso   1.00
O634   O     0.81064   0.82845   0.44809   0.00000  Uiso   1.00
O635   O     0.68090   0.82843   0.44810   0.00000  Uiso   1.00
O636   O     0.81910   0.83824   0.55190   0.00000  Uiso   1.00
C637   C     0.93932   0.68912   0.42355   0.00000  Uiso   1.00
H638   H     0.90975   0.69016   0.39292   0.00000  Uiso   1.00
O639   O     0.94748   0.98054   0.43647   0.00000  Uiso   1.00
C640   C     0.56084   0.97736   0.57689   0.00000  Uiso   1.00
H641   H     0.59094   0.98468   0.55525   0.00000  Uiso   1.00
O642   O     0.55210   0.67743   0.62109   0.00000  Uiso   1.00
C643   C     0.53554   0.68677   0.42490   0.00000  Uiso   1.00
H644   H     0.51888   0.99341   0.38429   0.00000  Uiso   1.00
O645   O     0.56889   0.67279   0.44991   0.00000  Uiso   1.00
C646   C     0.96405   0.97843   0.57719   0.00000  Uiso   1.00
H647   H     0.97476   0.68060   0.56276   0.00000  Uiso   1.00
O648   O     0.93697   0.98137   0.61561   0.00000  Uiso   1.00
C649   C     0.24863   0.06662   0.81779   0.00000  Uiso   1.00
C650   C     0.25137   0.26672   0.84887   0.00000  Uiso   1.00
C651   C     0.01585   0.07085   0.78452   0.00000  Uiso   1.00
C652   C     0.48431   0.26117   0.88618   0.00000  Uiso   1.00
C653   C     0.24799   0.01064   0.80907   0.00000  Uiso   1.00
C654   C     0.25200   0.32269   0.85760   0.00000  Uiso   1.00
C655   C     0.16456   0.16583   0.83393   0.00000  Uiso   1.00
C656   C     0.33542   0.16752   0.83276   0.00000  Uiso   1.00
C657   C     0.40995   0.21377   0.85701   0.00000  Uiso   1.00
C658   C     0.08982   0.12026   0.80630   0.00000  Uiso   1.00
C659   C     0.38349   0.16770   0.83150   0.00000  Uiso   1.00
C660   C     0.11647   0.16533   0.83546   0.00000  Uiso   1.00
C661   C     0.40246   0.12114   0.80738   0.00000  Uiso   1.00
C662   C     0.09766   0.21043   0.86493   0.00000  Uiso   1.00
C663   C     0.44919   0.11948   0.80771   0.00000  Uiso   1.00
C664   C     0.05093   0.21279   0.86244   0.00000  Uiso   1.00
C665   C     0.47664   0.16642   0.83466   0.00000  Uiso   1.00
C666   C     0.02347   0.16577   0.83570   0.00000  Uiso   1.00
C667   C     0.45695   0.21410   0.86010   0.00000  Uiso   1.00
C668   C     0.04315   0.11831   0.80920   0.00000  Uiso   1.00
C669   C     0.46864   0.07167   0.78339   0.00000  Uiso   1.00
C670   C     0.03153   0.26076   0.88655   0.00000  Uiso   1.00
Cu671  Cu    0.25500   0.17246   0.89479   0.00000  Uiso   1.00
Cu672  Cu    0.24499   0.16087   0.77187   0.00000  Uiso   1.00
H673   H     0.39290   0.24901   0.87357   0.00000  Uiso   1.00
H674   H     0.10645   0.08718   0.78190   0.00000  Uiso   1.00
H675   H     0.37990   0.08636   0.78978   0.00000  Uiso   1.00
H676   H     0.12035   0.24370   0.88821   0.00000  Uiso   1.00
H677   H     0.24421   0.32016   0.76228   0.00000  Uiso   1.00
H678   H     0.25577   0.01317   0.90438   0.00000  Uiso   1.00
H679   H     0.21489   0.12563   0.98296   0.00000  Uiso   1.00
H680   H     0.28511   0.20771   0.68371   0.00000  Uiso   1.00
N681   N     0.23744   0.15214   0.67951   0.00000  Uiso   1.00
N682   N     0.26255   0.18119   0.98716   0.00000  Uiso   1.00
O683   O     0.25325   0.09538   0.87326   0.00000  Uiso   1.00
O684   O     0.24674   0.23796   0.79341   0.00000  Uiso   1.00
O685   O     0.24480   0.08559   0.76945   0.00000  Uiso   1.00
O686   O     0.25520   0.24774   0.89721   0.00000  Uiso   1.00
O687   O     0.18935   0.17155   0.88524   0.00000  Uiso   1.00
O688   O     0.31064   0.16179   0.78143   0.00000  Uiso   1.00
O689   O     0.18090   0.16176   0.78143   0.00000  Uiso   1.00
O690   O     0.31910   0.17157   0.88523   0.00000  Uiso   1.00
C691   C     0.43932   0.02245   0.75688   0.00000  Uiso   1.00
H692   H     0.40975   0.02349   0.72625   0.00000  Uiso   1.00
O693   O     0.44748   0.31387   0.76980   0.00000  Uiso   1.00
C694   C     0.06084   0.31069   0.91022   0.00000  Uiso   1.00
H695   H     0.09094   0.31801   0.88859   0.00000  Uiso   1.00
O696   O     0.05210   0.01077   0.95442   0.00000  Uiso   1.00
C697   C     0.03554   0.02010   0.75824   0.00000  Uiso   1.00
H698   H     0.01888   0.32674   0.71762   0.00000  Uiso   1.00
O699   O     0.06889   0.00613   0.78324   0.00000  Uiso   1.00
C700   C     0.46405   0.31176   0.91052   0.00000  Uiso   1.00
H701   H     0.47476   0.01394   0.89609   0.00000  Uiso   1.00
O702   O     0.43697   0.31470   0.94894   0.00000  Uiso   1.00
C703   C     0.74863   0.06662   0.81779   0.00000  Uiso   1.00
C704   C     0.75137   0.26672   0.84887   0.00000  Uiso   1.00
C705   C     0.51585   0.07085   0.78452   0.00000  Uiso   1.00
C706   C     0.98431   0.26117   0.88618   0.00000  Uiso   1.00
C707   C     0.74799   0.01064   0.80907   0.00000  Uiso   1.00
C708   C     0.75200   0.32269   0.85760   0.00000  Uiso   1.00
C709   C     0.66456   0.16583   0.83393   0.00000  Uiso   1.00
C710   C     0.83542   0.16752   0.83276   0.00000  Uiso   1.00
C711   C     0.90995   0.21377   0.85701   0.00000  Uiso   1.00
C712   C     0.58982   0.12026   0.80630   0.00000  Uiso   1.00
C713   C     0.88349   0.16770   0.83150   0.00000  Uiso   1.00
C714   C     0.61647   0.16533   0.83546   0.00000  Uiso   1.00
C715   C     0.90246   0.12114   0.80738   0.00000  Uiso   1.00
C716   C     0.59766   0.21043   0.86493   0.00000  Uiso   1.00
C717   C     0.94919   0.11948   0.80771   0.00000  Uiso   1.00
C718   C     0.55093   0.21279   0.86244   0.00000  Uiso   1.00
C719   C     0.97664   0.16642   0.83466   0.00000  Uiso   1.00
C720   C     0.52347   0.16577   0.83570   0.00000  Uiso   1.00
C721   C     0.95695   0.21410   0.86010   0.00000  Uiso   1.00
C722   C     0.54315   0.11831   0.80920   0.00000  Uiso   1.00
C723   C     0.96864   0.07167   0.78339   0.00000  Uiso   1.00
C724   C     0.53153   0.26076   0.88655   0.00000  Uiso   1.00
Cu725  Cu    0.75500   0.17246   0.89479   0.00000  Uiso   1.00
Cu726  Cu    0.74499   0.16087   0.77187   0.00000  Uiso   1.00
H727   H     0.89290   0.24901   0.87357   0.00000  Uiso   1.00
H728   H     0.60645   0.08718   0.78190   0.00000  Uiso   1.00
H729   H     0.87990   0.08636   0.78978   0.00000  Uiso   1.00
H730   H     0.62035   0.24370   0.88821   0.00000  Uiso   1.00
H731   H     0.74421   0.32016   0.76228   0.00000  Uiso   1.00
H732   H     0.75577   0.01317   0.90438   0.00000  Uiso   1.00
H733   H     0.71489   0.12563   0.98296   0.00000  Uiso   1.00
H734   H     0.78511   0.20771   0.68371   0.00000  Uiso   1.00
N735   N     0.73744   0.15214   0.67951   0.00000  Uiso   1.00
N736   N     0.76255   0.18119   0.98716   0.00000  Uiso   1.00
O737   O     0.75325   0.09538   0.87326   0.00000  Uiso   1.00
O738   O     0.74674   0.23796   0.79341   0.00000  Uiso   1.00
O739   O     0.74480   0.08559   0.76945   0.00000  Uiso   1.00
O740   O     0.75520   0.24774   0.89721   0.00000  Uiso   1.00
O741   O     0.68935   0.17155   0.88524   0.00000  Uiso   1.00
O742   O     0.81064   0.16179   0.78143   0.00000  Uiso   1.00
O743   O     0.68090   0.16176   0.78143   0.00000  Uiso   1.00
O744   O     0.81910   0.17157   0.88523   0.00000  Uiso   1.00
C745   C     0.93932   0.02245   0.75688   0.00000  Uiso   1.00
H746   H     0.90975   0.02349   0.72625   0.00000  Uiso   1.00
O747   O     0.94748   0.31387   0.76980   0.00000  Uiso   1.00
C748   C     0.56084   0.31069   0.91022   0.00000  Uiso   1.00
H749   H     0.59094   0.31801   0.88859   0.00000  Uiso   1.00
O750   O     0.55210   0.01077   0.95442   0.00000  Uiso   1.00
C751   C     0.53554   0.02010   0.75824   0.00000  Uiso   1.00
H752   H     0.51888   0.32674   0.71762   0.00000  Uiso   1.00
O753   O     0.56889   0.00613   0.78324   0.00000  Uiso   1.00
C754   C     0.96405   0.31176   0.91052   0.00000  Uiso   1.00
H755   H     0.97476   0.01394   0.89609   0.00000  Uiso   1.00
O756   O     0.93697   0.31470   0.94894   0.00000  Uiso   1.00
C757   C     0.24863   0.39995   0.81779   0.00000  Uiso   1.00
C758   C     0.25137   0.60005   0.84887   0.00000  Uiso   1.00
C759   C     0.01585   0.40418   0.78452   0.00000  Uiso   1.00
C760   C     0.48431   0.59450   0.88618   0.00000  Uiso   1.00
C761   C     0.24799   0.34397   0.80907   0.00000  Uiso   1.00
C762   C     0.25200   0.65603   0.85760   0.00000  Uiso   1.00
C763   C     0.16456   0.49917   0.83393   0.00000  Uiso   1.00
C764   C     0.33542   0.50085   0.83276   0.00000  Uiso   1.00
C765   C     0.40995   0.54710   0.85701   0.00000  Uiso   1.00
C766   C     0.08982   0.45360   0.80630   0.00000  Uiso   1.00
C767   C     0.38349   0.50103   0.83150   0.00000  Uiso   1.00
C768   C     0.11647   0.49866   0.83546   0.00000  Uiso   1.00
C769   C     0.40246   0.45448   0.80738   0.00000  Uiso   1.00
C770   C     0.09766   0.54377   0.86493   0.00000  Uiso   1.00
C771   C     0.44919   0.45281   0.80771   0.00000  Uiso   1.00
C772   C     0.05093   0.54612   0.86244   0.00000  Uiso   1.00
C773   C     0.47664   0.49975   0.83466   0.00000  Uiso   1.00
C774   C     0.02347   0.49910   0.83570   0.00000  Uiso   1.00
C775   C     0.45695   0.54744   0.86010   0.00000  Uiso   1.00
C776   C     0.04315   0.45164   0.80920   0.00000  Uiso   1.00
C777   C     0.46864   0.40501   0.78339   0.00000  Uiso   1.00
C778   C     0.03153   0.59410   0.88655   0.00000  Uiso   1.00
Cu779  Cu    0.25500   0.50579   0.89479   0.00000  Uiso   1.00
Cu780  Cu    0.24499   0.49421   0.77187   0.00000  Uiso   1.00
H781   H     0.39290   0.58234   0.87357   0.00000  Uiso   1.00
H782   H     0.10645   0.42051   0.78190   0.00000  Uiso   1.00
H783   H     0.37990   0.41969   0.78978   0.00000  Uiso   1.00
H784   H     0.12035   0.57704   0.88821   0.00000  Uiso   1.00
H785   H     0.24421   0.65349   0.76228   0.00000  Uiso   1.00
H786   H     0.25577   0.34651   0.90438   0.00000  Uiso   1.00
H787   H     0.21489   0.45896   0.98296   0.00000  Uiso   1.00
H788   H     0.28511   0.54104   0.68371   0.00000  Uiso   1.00
N789   N     0.23744   0.48547   0.67951   0.00000  Uiso   1.00
N790   N     0.26255   0.51453   0.98716   0.00000  Uiso   1.00
O791   O     0.25325   0.42871   0.87326   0.00000  Uiso   1.00
O792   O     0.24674   0.57129   0.79341   0.00000  Uiso   1.00
O793   O     0.24480   0.41892   0.76945   0.00000  Uiso   1.00
O794   O     0.25520   0.58108   0.89721   0.00000  Uiso   1.00
O795   O     0.18935   0.50488   0.88524   0.00000  Uiso   1.00
O796   O     0.31064   0.49512   0.78143   0.00000  Uiso   1.00
O797   O     0.18090   0.49510   0.78143   0.00000  Uiso   1.00
O798   O     0.31910   0.50490   0.88523   0.00000  Uiso   1.00
C799   C     0.43932   0.35578   0.75688   0.00000  Uiso   1.00
H800   H     0.40975   0.35683   0.72625   0.00000  Uiso   1.00
O801   O     0.44748   0.64720   0.76980   0.00000  Uiso   1.00
C802   C     0.06084   0.64403   0.91022   0.00000  Uiso   1.00
H803   H     0.09094   0.65135   0.88859   0.00000  Uiso   1.00
O804   O     0.05210   0.34410   0.95442   0.00000  Uiso   1.00
C805   C     0.03554   0.35343   0.75824   0.00000  Uiso   1.00
H806   H     0.01888   0.66008   0.71762   0.00000  Uiso   1.00
O807   O     0.06889   0.33946   0.78324   0.00000  Uiso   1.00
C808   C     0.46405   0.64510   0.91052   0.00000  Uiso   1.00
H809   H     0.47476   0.34727   0.89609   0.00000  Uiso   1.00
O810   O     0.43697   0.64803   0.94894   0.00000  Uiso   1.00
C811   C     0.74863   0.39995   0.81779   0.00000  Uiso   1.00
C812   C     0.75137   0.60005   0.84887   0.00000  Uiso   1.00
C813   C     0.51585   0.40418   0.78452   0.00000  Uiso   1.00
C814   C     0.98431   0.59450   0.88618   0.00000  Uiso   1.00
C815   C     0.74799   0.34397   0.80907   0.00000  Uiso   1.00
C816   C     0.75200   0.65603   0.85760   0.00000  Uiso   1.00
C817   C     0.66456   0.49917   0.83393   0.00000  Uiso   1.00
C818   C     0.83542   0.50085   0.83276   0.00000  Uiso   1.00
C819   C     0.90995   0.54710   0.85701   0.00000  Uiso   1.00
C820   C     0.58982   0.45360   0.80630   0.00000  Uiso   1.00
C821   C     0.88349   0.50103   0.83150   0.00000  Uiso   1.00
C822   C     0.61647   0.49866   0.83546   0.00000  Uiso   1.00
C823   C     0.90246   0.45448   0.80738   0.00000  Uiso   1.00
C824   C     0.59766   0.54377   0.86493   0.00000  Uiso   1.00
C825   C     0.94919   0.45281   0.80771   0.00000  Uiso   1.00
C826   C     0.55093   0.54612   0.86244   0.00000  Uiso   1.00
C827   C     0.97664   0.49975   0.83466   0.00000  Uiso   1.00
C828   C     0.52347   0.49910   0.83570   0.00000  Uiso   1.00
C829   C     0.95695   0.54744   0.86010   0.00000  Uiso   1.00
C830   C     0.54315   0.45164   0.80920   0.00000  Uiso   1.00
C831   C     0.96864   0.40501   0.78339   0.00000  Uiso   1.00
C832   C     0.53153   0.59410   0.88655   0.00000  Uiso   1.00
Cu833  Cu    0.75500   0.50579   0.89479   0.00000  Uiso   1.00
Cu834  Cu    0.74499   0.49421   0.77187   0.00000  Uiso   1.00
H835   H     0.89290   0.58234   0.87357   0.00000  Uiso   1.00
H836   H     0.60645   0.42051   0.78190   0.00000  Uiso   1.00
H837   H     0.87990   0.41969   0.78978   0.00000  Uiso   1.00
H838   H     0.62035   0.57704   0.88821   0.00000  Uiso   1.00
H839   H     0.74421   0.65349   0.76228   0.00000  Uiso   1.00
H840   H     0.75577   0.34651   0.90438   0.00000  Uiso   1.00
H841   H     0.71489   0.45896   0.98296   0.00000  Uiso   1.00
H842   H     0.78511   0.54104   0.68371   0.00000  Uiso   1.00
N843   N     0.73744   0.48547   0.67951   0.00000  Uiso   1.00
N844   N     0.76255   0.51453   0.98716   0.00000  Uiso   1.00
O845   O     0.75325   0.42871   0.87326   0.00000  Uiso   1.00
O846   O     0.74674   0.57129   0.79341   0.00000  Uiso   1.00
O847   O     0.74480   0.41892   0.76945   0.00000  Uiso   1.00
O848   O     0.75520   0.58108   0.89721   0.00000  Uiso   1.00
O849   O     0.68935   0.50488   0.88524   0.00000  Uiso   1.00
O850   O     0.81064   0.49512   0.78143   0.00000  Uiso   1.00
O851   O     0.68090   0.49510   0.78143   0.00000  Uiso   1.00
O852   O     0.81910   0.50490   0.88523   0.00000  Uiso   1.00
C853   C     0.93932   0.35578   0.75688   0.00000  Uiso   1.00
H854   H     0.90975   0.35683   0.72625   0.00000  Uiso   1.00
O855   O     0.94748   0.64720   0.76980   0.00000  Uiso   1.00
C856   C     0.56084   0.64403   0.91022   0.00000  Uiso   1.00
H857   H     0.59094   0.65135   0.88859   0.00000  Uiso   1.00
O858   O     0.55210   0.34410   0.95442   0.00000  Uiso   1.00
C859   C     0.53554   0.35343   0.75824   0.00000  Uiso   1.00
H860   H     0.51888   0.66008   0.71762   0.00000  Uiso   1.00
O861   O     0.56889   0.33946   0.78324   0.00000  Uiso   1.00
C862   C     0.96405   0.64510   0.91052   0.00000  Uiso   1.00
H863   H     0.97476   0.34727   0.89609   0.00000  Uiso   1.00
O864   O     0.93697   0.64803   0.94894   0.00000  Uiso   1.00
C865   C     0.24863   0.73328   0.81779   0.00000  Uiso   1.00
C866   C     0.25137   0.93338   0.84887   0.00000  Uiso   1.00
C867   C     0.01585   0.73752   0.78452   0.00000  Uiso   1.00
C868   C     0.48431   0.92784   0.88618   0.00000  Uiso   1.00
C869   C     0.24799   0.67731   0.80907   0.00000  Uiso   1.00
C870   C     0.25200   0.98936   0.85760   0.00000  Uiso   1.00
C871   C     0.16456   0.83250   0.83393   0.00000  Uiso   1.00
C872   C     0.33542   0.83418   0.83276   0.00000  Uiso   1.00
C873   C     0.40995   0.88044   0.85701   0.00000  Uiso   1.00
C874   C     0.08982   0.78693   0.80630   0.00000  Uiso   1.00
C875   C     0.38349   0.83437   0.83150   0.00000  Uiso   1.00
C876   C     0.11647   0.83199   0.83546   0.00000  Uiso   1.00
C877   C     0.40246   0.78781   0.80738   0.00000  Uiso   1.00
C878   C     0.09766   0.87710   0.86493   0.00000  Uiso   1.00
C879   C     0.44919   0.78615   0.80771   0.00000  Uiso   1.00
C880   C     0.05093   0.87945   0.86244   0.00000  Uiso   1.00
C881   C     0.47664   0.83309   0.83466   0.00000  Uiso   1.00
C882   C     0.02347   0.83244   0.83570   0.00000  Uiso   1.00
C883   C     0.45695   0.88077   0.86010   0.00000  Uiso   1.00
C884   C     0.04315   0.78498   0.80920   0.00000  Uiso   1.00
C885   C     0.46864   0.73834   0.78339   0.00000  Uiso   1.00
C886   C     0.03153   0.92743   0.88655   0.00000  Uiso   1.00
Cu887  Cu    0.25500   0.83913   0.89479   0.00000  Uiso   1.00
Cu888  Cu    0.24499   0.82754   0.77187   0.00000  Uiso   1.00
H889   H     0.39290   0.91567   0.87357   0.00000  Uiso   1.00
H890   H     0.10645   0.75385   0.78190   0.00000  Uiso   1.00
H891   H     0.37990   0.75302   0.78978   0.00000  Uiso   1.00
H892   H     0.12035   0.91037   0.88821   0.00000  Uiso   1.00
H893   H     0.24421   0.98683   0.76228   0.00000  Uiso   1.00
H894   H     0.25577   0.67984   0.90438   0.00000  Uiso   1.00
H895   H     0.21489   0.79229   0.98296   0.00000  Uiso   1.00
H896   H     0.28511   0.87437   0.68371   0.00000  Uiso   1.00
N897   N     0.23744   0.81881   0.67951   0.00000  Uiso   1.00
N898   N     0.26255   0.84786   0.98716   0.00000  Uiso   1.00
O899   O     0.25325   0.76204   0.87326   0.00000  Uiso   1.00
O900   O     0.24674   0.90462   0.79341   0.00000  Uiso   1.00
O901   O     0.24480   0.75226   0.76945   0.00000  Uiso   1.00
O902   O     0.25520   0.91441   0.89721   0.00000  Uiso   1.00
O903   O     0.18935   0.83821   0.88524   0.00000  Uiso   1.00
O904   O     0.31064   0.82845   0.78143   0.00000  Uiso   1.00
O905   O     0.18090   0.82843   0.78143   0.00000  Uiso   1.00
O906   O     0.31910   0.83824   0.88523   0.00000  Uiso   1.00
C907   C     0.43932   0.68912   0.75688   0.00000  Uiso   1.00
H908   H     0.40975   0.69016   0.72625   0.00000  Uiso   1.00
O909   O     0.44748   0.98054   0.76980   0.00000  Uiso   1.00
C910   C     0.06084   0.97736   0.91022   0.00000  Uiso   1.00
H911   H     0.09094   0.98468   0.88859   0.00000  Uiso   1.00
O912   O     0.05210   0.67743   0.95442   0.00000  Uiso   1.00
C913   C     0.03554   0.68677   0.75824   0.00000  Uiso   1.00
H914   H     0.01888   0.99341   0.71762   0.00000  Uiso   1.00
O915   O     0.06889   0.67279   0.78324   0.00000  Uiso   1.00
C916   C     0.46405   0.97843   0.91052   0.00000  Uiso   1.00
H917   H     0.47476   0.68060   0.89609   0.00000  Uiso   1.00
O918   O     0.43697   0.98137   0.94894   0.00000  Uiso   1.00
C919   C     0.74863   0.73328   0.81779   0.00000  Uiso   1.00
C920   C     0.75137   0.93338   0.84887   0.00000  Uiso   1.00
C921   C     0.51585   0.73752   0.78452   0.00000  Uiso   1.00
C922   C     0.98431   0.92784   0.88618   0.00000  Uiso   1.00
C923   C     0.74799   0.67731   0.80907   0.00000  Uiso   1.00
C924   C     0.75200   0.98936   0.85760   0.00000  Uiso   1.00
C925   C     0.66456   0.83250   0.83393   0.00000  Uiso   1.00
C926   C     0.83542   0.83418   0.83276   0.00000  Uiso   1.00
C927   C     0.90995   0.88044   0.85701   0.00000  Uiso   1.00
C928   C     0.58982   0.78693   0.80630   0.00000  Uiso   1.00
C929   C     0.88349   0.83437   0.83150   0.00000  Uiso   1.00
C930   C     0.61647   0.83199   0.83546   0.00000  Uiso   1.00
C931   C     0.90246   0.78781   0.80738   0.00000  Uiso   1.00
C932   C     0.59766   0.87710   0.86493   0.00000  Uiso   1.00
C933   C     0.94919   0.78615   0.80771   0.00000  Uiso   1.00
C934   C     0.55093   0.87945   0.86244   0.00000  Uiso   1.00
C935   C     0.97664   0.83309   0.83466   0.00000  Uiso   1.00
C936   C     0.52347   0.83244   0.83570   0.00000  Uiso   1.00
C937   C     0.95695   0.88077   0.86010   0.00000  Uiso   1.00
C938   C     0.54315   0.78498   0.80920   0.00000  Uiso   1.00
C939   C     0.96864   0.73834   0.78339   0.00000  Uiso   1.00
C940   C     0.53153   0.92743   0.88655   0.00000  Uiso   1.00
Cu941  Cu    0.75500   0.83913   0.89479   0.00000  Uiso   1.00
Cu942  Cu    0.74499   0.82754   0.77187   0.00000  Uiso   1.00
H943   H     0.89290   0.91567   0.87357   0.00000  Uiso   1.00
H944   H     0.60645   0.75385   0.78190   0.00000  Uiso   1.00
H945   H     0.87990   0.75302   0.78978   0.00000  Uiso   1.00
H946   H     0.62035   0.91037   0.88821   0.00000  Uiso   1.00
H947   H     0.74421   0.98683   0.76228   0.00000  Uiso   1.00
H948   H     0.75577   0.67984   0.90438   0.00000  Uiso   1.00
H949   H     0.71489   0.79229   0.98296   0.00000  Uiso   1.00
H950   H     0.78511   0.87437   0.68371   0.00000  Uiso   1.00
N951   N     0.73744   0.81881   0.67951   0.00000  Uiso   1.00
N952   N     0.76255   0.84786   0.98716   0.00000  Uiso   1.00
O953   O     0.75325   0.76204   0.87326   0.00000  Uiso   1.00
O954   O     0.74674   0.90462   0.79341   0.00000  Uiso   1.00
O955   O     0.74480   0.75226   0.76945   0.00000  Uiso   1.00
O956   O     0.75520   0.91441   0.89721   0.00000  Uiso   1.00
O957   O     0.68935   0.83821   0.88524   0.00000  Uiso   1.00
O958   O     0.81064   0.82845   0.78143   0.00000  Uiso   1.00
O959   O     0.68090   0.82843   0.78143   0.00000  Uiso   1.00
O960   O     0.81910   0.83824   0.88523   0.00000  Uiso   1.00
C961   C     0.93932   0.68912   0.75688   0.00000  Uiso   1.00
H962   H     0.90975   0.69016   0.72625   0.00000  Uiso   1.00
O963   O     0.94748   0.98054   0.76980   0.00000  Uiso   1.00
C964   C     0.56084   0.97736   0.91022   0.00000  Uiso   1.00
H965   H     0.59094   0.98468   0.88859   0.00000  Uiso   1.00
O966   O     0.55210   0.67743   0.95442   0.00000  Uiso   1.00
C967   C     0.53554   0.68677   0.75824   0.00000  Uiso   1.00
H968   H     0.51888   0.99341   0.71762   0.00000  Uiso   1.00
O969   O     0.56889   0.67279   0.78324   0.00000  Uiso   1.00
C970   C     0.96405   0.97843   0.91052   0.00000  Uiso   1.00
H971   H     0.97476   0.68060   0.89609   0.00000  Uiso   1.00
O972   O     0.93697   0.98137   0.94894   0.00000  Uiso   1.00
loop_
_geom_bond_atom_site_label_1
_geom_bond_atom_site_label_2
_geom_bond_distance
_geom_bond_site_symmetry_2
_ccdc_geom_bond_type
C1     C5      1.425   .     S
C1     O37     1.286   .     A
C1     O35     1.295   .     A
C2     O38     1.286   .     A
C2     C6      1.425   .     S
C2     O36     1.295   .     A
C3     C49     1.493   .     S
C3     C20     1.422   .     A
C3     C75     1.414   1_455 S
C4     C52     1.488   .     S
C4     C19     1.421   .     A
C4     C76     1.414   .     S
C5     C222    1.326   1_545 S
C5     H245    1.088   1_545 S
C6     C113    1.326   .     S
C6     H138    1.088   .     S
C7     O41     1.293   .     A
C7     C12     1.443   .     S
C7     O39     1.296   .     A
C8     O42     1.293   .     A
C8     C11     1.442   .     S
C8     O40     1.296   .     A
C9     H25     1.080   .     S
C9     C11     1.386   .     A
C9     C19     1.404   .     A
C10    C20     1.403   .     A
C10    H26     1.080   .     S
C10    C12     1.387   .     A
C11    C13     1.383   .     A
C12    C14     1.384   .     A
C13    C15     1.402   .     A
C13    H27     1.081   .     S
C14    C16     1.402   .     A
C14    H28     1.081   .     S
C15    C21     1.417   .     A
C15    C17     1.423   .     A
C16    C18     1.424   .     A
C16    C22     1.419   .     A
C17    C19     1.424   .     A
C17    C72     1.402   .     S
C18    C20     1.425   .     A
C18    C71     1.402   1_455 S
C21    C43     1.494   .     S
C21    C57     1.414   .     S
C22    C46     1.498   .     S
C22    C58     1.414   1_455 S
Cu23   Cu24    2.696   .     S
Cu23   O38     1.948   .     S
Cu23   O35     1.954   .     S
Cu23   N34     2.026   .     S
Cu23   O42     1.948   .     S
Cu23   O39     1.960   .     S
Cu24   N33     2.026   .     S
Cu24   O37     1.948   .     S
Cu24   O41     1.948   .     S
Cu24   O36     1.954   .     S
Cu24   O40     1.960   .     S
H29    C113    1.088   .     S
H30    C222    1.088   1_545 S
H31    N357    1.029   .     S
H32    N682    1.029   1_554 S
N33    H679    1.029   1_554 S
N33    N682    1.291   1_554 S
N34    N357    1.291   .     S
N34    H356    1.029   .     S
C43    H44     1.084   .     S
C43    O261    1.221   1_545 S
O45    C151    1.221   .     S
C46    H47     1.083   .     S
C46    O156    1.220   .     S
O48    C262    1.220   1_545 S
C49    O51     1.220   .     D
C49    H266    1.084   1_545 S
H50    C157    1.084   .     S
C52    O54     1.220   .     D
C52    H161    1.085   .     S
H53    C268    1.085   1_545 S
C55    C59     1.425   .     S
C55    O91     1.286   .     A
C55    O89     1.295   .     A
C56    O92     1.286   .     A
C56    C60     1.425   .     S
C56    O90     1.295   .     A
C57    C103    1.493   .     S
C57    C74     1.422   .     A
C58    C106    1.488   .     S
C58    C73     1.421   .     A
C58    C22     1.414   1_655 S
C59    C276    1.326   1_545 S
C59    H299    1.088   1_545 S
C60    C167    1.326   .     S
C60    H192    1.088   .     S
C61    O95     1.293   .     A
C61    C66     1.443   .     S
C61    O93     1.296   .     A
C62    O96     1.293   .     A
C62    C65     1.442   .     S
C62    O94     1.296   .     A
C63    H79     1.080   .     S
C63    C65     1.386   .     A
C63    C73     1.404   .     A
C64    C74     1.403   .     A
C64    H80     1.080   .     S
C64    C66     1.387   .     A
C65    C67     1.383   .     A
C66    C68     1.384   .     A
C67    C69     1.402   .     A
C67    H81     1.081   .     S
C68    C70     1.402   .     A
C68    H82     1.081   .     S
C69    C75     1.417   .     A
C69    C71     1.423   .     A
C70    C72     1.424   .     A
C70    C76     1.419   .     A
C71    C73     1.424   .     A
C71    C18     1.402   1_655 S
C72    C74     1.425   .     A
C75    C97     1.494   .     S
C75    C3      1.414   1_655 S
C76    C100    1.498   .     S
Cu77   Cu78    2.696   .     S
Cu77   O92     1.948   .     S
Cu77   O89     1.954   .     S
Cu77   N88     2.026   .     S
Cu77   O96     1.948   .     S
Cu77   O93     1.960   .     S
Cu78   N87     2.026   .     S
Cu78   O91     1.948   .     S
Cu78   O95     1.948   .     S
Cu78   O90     1.954   .     S
Cu78   O94     1.960   .     S
H83    C167    1.088   .     S
H84    C276    1.088   1_545 S
H85    N411    1.029   .     S
H86    N736    1.029   1_554 S
N87    H733    1.029   1_554 S
N87    N736    1.291   1_554 S
N88    N411    1.291   .     S
N88    H410    1.029   .     S
C97    H98     1.084   .     S
C97    O315    1.221   1_545 S
O99    C205    1.221   .     S
C100   H101    1.083   .     S
C100   O210    1.220   .     S
O102   C316    1.220   1_545 S
C103   O105    1.220   .     D
C103   H320    1.084   1_545 S
H104   C211    1.084   .     S
C106   O108    1.220   .     D
C106   H215    1.085   .     S
H107   C322    1.085   1_545 S
C109   C113    1.425   .     S
C109   O145    1.286   .     A
C109   O143    1.295   .     A
C110   O146    1.286   .     A
C110   C114    1.425   .     S
C110   O144    1.295   .     A
C111   C157    1.493   .     S
C111   C128    1.422   .     A
C111   C183    1.414   1_455 S
C112   C160    1.488   .     S
C112   C127    1.421   .     A
C112   C184    1.414   .     S
C114   C221    1.326   .     S
C114   H246    1.088   .     S
C115   O149    1.293   .     A
C115   C120    1.443   .     S
C115   O147    1.296   .     A
C116   O150    1.293   .     A
C116   C119    1.442   .     S
C116   O148    1.296   .     A
C117   H133    1.080   .     S
C117   C119    1.386   .     A
C117   C127    1.404   .     A
C118   C128    1.403   .     A
C118   H134    1.080   .     S
C118   C120    1.387   .     A
C119   C121    1.383   .     A
C120   C122    1.384   .     A
C121   C123    1.402   .     A
C121   H135    1.081   .     S
C122   C124    1.402   .     A
C122   H136    1.081   .     S
C123   C129    1.417   .     A
C123   C125    1.423   .     A
C124   C126    1.424   .     A
C124   C130    1.419   .     A
C125   C127    1.424   .     A
C125   C180    1.402   .     S
C126   C128    1.425   .     A
C126   C179    1.402   1_455 S
C129   C151    1.494   .     S
C129   C165    1.414   .     S
C130   C154    1.498   .     S
C130   C166    1.414   1_455 S
Cu131  Cu132   2.696   .     S
Cu131  O146    1.948   .     S
Cu131  O143    1.954   .     S
Cu131  N142    2.026   .     S
Cu131  O150    1.948   .     S
Cu131  O147    1.960   .     S
Cu132  N141    2.026   .     S
Cu132  O145    1.948   .     S
Cu132  O149    1.948   .     S
Cu132  O144    1.954   .     S
Cu132  O148    1.960   .     S
H137   C221    1.088   .     S
H139   N465    1.029   .     S
H140   N790    1.029   1_554 S
N141   H787    1.029   1_554 S
N141   N790    1.291   1_554 S
N142   N465    1.291   .     S
N142   H464    1.029   .     S
C151   H152    1.084   .     S
O153   C259    1.221   .     S
C154   H155    1.083   .     S
C154   O264    1.220   .     S
C157   O159    1.220   .     D
H158   C265    1.084   .     S
C160   O162    1.220   .     D
C160   H269    1.085   .     S
C163   C167    1.425   .     S
C163   O199    1.286   .     A
C163   O197    1.295   .     A
C164   O200    1.286   .     A
C164   C168    1.425   .     S
C164   O198    1.295   .     A
C165   C211    1.493   .     S
C165   C182    1.422   .     A
C166   C214    1.488   .     S
C166   C181    1.421   .     A
C166   C130    1.414   1_655 S
C168   C275    1.326   .     S
C168   H300    1.088   .     S
C169   O203    1.293   .     A
C169   C174    1.443   .     S
C169   O201    1.296   .     A
C170   O204    1.293   .     A
C170   C173    1.442   .     S
C170   O202    1.296   .     A
C171   H187    1.080   .     S
C171   C173    1.386   .     A
C171   C181    1.404   .     A
C172   C182    1.403   .     A
C172   H188    1.080   .     S
C172   C174    1.387   .     A
C173   C175    1.383   .     A
C174   C176    1.384   .     A
C175   C177    1.402   .     A
C175   H189    1.081   .     S
C176   C178    1.402   .     A
C176   H190    1.081   .     S
C177   C183    1.417   .     A
C177   C179    1.423   .     A
C178   C180    1.424   .     A
C178   C184    1.419   .     A
C179   C181    1.424   .     A
C179   C126    1.402   1_655 S
C180   C182    1.425   .     A
C183   C205    1.494   .     S
C183   C111    1.414   1_655 S
C184   C208    1.498   .     S
Cu185  Cu186   2.696   .     S
Cu185  O200    1.948   .     S
Cu185  O197    1.954   .     S
Cu185  N196    2.026   .     S
Cu185  O204    1.948   .     S
Cu185  O201    1.960   .     S
Cu186  N195    2.026   .     S
Cu186  O199    1.948   .     S
Cu186  O203    1.948   .     S
Cu186  O198    1.954   .     S
Cu186  O202    1.960   .     S
H191   C275    1.088   .     S
H193   N519    1.029   .     S
H194   N844    1.029   1_554 S
N195   H841    1.029   1_554 S
N195   N844    1.291   1_554 S
N196   N519    1.291   .     S
N196   H518    1.029   .     S
C205   H206    1.084   .     S
O207   C313    1.221   .     S
C208   H209    1.083   .     S
C208   O318    1.220   .     S
C211   O213    1.220   .     D
H212   C319    1.084   .     S
C214   O216    1.220   .     D
C214   H323    1.085   .     S
C217   C221    1.425   .     S
C217   O253    1.286   .     A
C217   O251    1.295   .     A
C218   O254    1.286   .     A
C218   C222    1.425   .     S
C218   O252    1.295   .     A
C219   C265    1.493   .     S
C219   C236    1.422   .     A
C219   C291    1.414   1_455 S
C220   C268    1.488   .     S
C220   C235    1.421   .     A
C220   C292    1.414   .     S
C222   C5      1.326   1_565 S
C222   H30     1.088   1_565 S
C223   O257    1.293   .     A
C223   C228    1.443   .     S
C223   O255    1.296   .     A
C224   O258    1.293   .     A
C224   C227    1.442   .     S
C224   O256    1.296   .     A
C225   H241    1.080   .     S
C225   C227    1.386   .     A
C225   C235    1.404   .     A
C226   C236    1.403   .     A
C226   H242    1.080   .     S
C226   C228    1.387   .     A
C227   C229    1.383   .     A
C228   C230    1.384   .     A
C229   C231    1.402   .     A
C229   H243    1.081   .     S
C230   C232    1.402   .     A
C230   H244    1.081   .     S
C231   C237    1.417   .     A
C231   C233    1.423   .     A
C232   C234    1.424   .     A
C232   C238    1.419   .     A
C233   C235    1.424   .     A
C233   C288    1.402   .     S
C234   C236    1.425   .     A
C234   C287    1.402   1_455 S
C237   C259    1.494   .     S
C237   C273    1.414   .     S
C238   C262    1.498   .     S
C238   C274    1.414   1_455 S
Cu239  Cu240   2.696   .     S
Cu239  O254    1.948   .     S
Cu239  O251    1.954   .     S
Cu239  N250    2.026   .     S
Cu239  O258    1.948   .     S
Cu239  O255    1.960   .     S
Cu240  N249    2.026   .     S
Cu240  O253    1.948   .     S
Cu240  O257    1.948   .     S
Cu240  O252    1.954   .     S
Cu240  O256    1.960   .     S
H245   C5      1.088   1_565 S
H247   N573    1.029   .     S
H248   N898    1.029   1_554 S
N249   H895    1.029   1_554 S
N249   N898    1.291   1_554 S
N250   N573    1.291   .     S
N250   H572    1.029   .     S
C259   H260    1.084   .     S
O261   C43     1.221   1_565 S
C262   H263    1.083   .     S
C262   O48     1.220   1_565 S
C265   O267    1.220   .     D
H266   C49     1.084   1_565 S
C268   O270    1.220   .     D
C268   H53     1.085   1_565 S
C271   C275    1.425   .     S
C271   O307    1.286   .     A
C271   O305    1.295   .     A
C272   O308    1.286   .     A
C272   C276    1.425   .     S
C272   O306    1.295   .     A
C273   C319    1.493   .     S
C273   C290    1.422   .     A
C274   C322    1.488   .     S
C274   C289    1.421   .     A
C274   C238    1.414   1_655 S
C276   C59     1.326   1_565 S
C276   H84     1.088   1_565 S
C277   O311    1.293   .     A
C277   C282    1.443   .     S
C277   O309    1.296   .     A
C278   O312    1.293   .     A
C278   C281    1.442   .     S
C278   O310    1.296   .     A
C279   H295    1.080   .     S
C279   C281    1.386   .     A
C279   C289    1.404   .     A
C280   C290    1.403   .     A
C280   H296    1.080   .     S
C280   C282    1.387   .     A
C281   C283    1.383   .     A
C282   C284    1.384   .     A
C283   C285    1.402   .     A
C283   H297    1.081   .     S
C284   C286    1.402   .     A
C284   H298    1.081   .     S
C285   C291    1.417   .     A
C285   C287    1.423   .     A
C286   C288    1.424   .     A
C286   C292    1.419   .     A
C287   C289    1.424   .     A
C287   C234    1.402   1_655 S
C288   C290    1.425   .     A
C291   C313    1.494   .     S
C291   C219    1.414   1_655 S
C292   C316    1.498   .     S
Cu293  Cu294   2.696   .     S
Cu293  O308    1.948   .     S
Cu293  O305    1.954   .     S
Cu293  N304    2.026   .     S
Cu293  O312    1.948   .     S
Cu293  O309    1.960   .     S
Cu294  N303    2.026   .     S
Cu294  O307    1.948   .     S
Cu294  O311    1.948   .     S
Cu294  O306    1.954   .     S
Cu294  O310    1.960   .     S
H299   C59     1.088   1_565 S
H301   N627    1.029   .     S
H302   N952    1.029   1_554 S
N303   H949    1.029   1_554 S
N303   N952    1.291   1_554 S
N304   N627    1.291   .     S
N304   H626    1.029   .     S
C313   H314    1.084   .     S
O315   C97     1.221   1_565 S
C316   H317    1.083   .     S
C316   O102    1.220   1_565 S
C319   O321    1.220   .     D
H320   C103    1.084   1_565 S
C322   O324    1.220   .     D
C322   H107    1.085   1_565 S
C325   C329    1.425   .     S
C325   O361    1.286   .     A
C325   O359    1.295   .     A
C326   O362    1.286   .     A
C326   C330    1.425   .     S
C326   O360    1.295   .     A
C327   C373    1.493   .     S
C327   C344    1.422   .     A
C327   C399    1.414   1_455 S
C328   C376    1.488   .     S
C328   C343    1.421   .     A
C328   C400    1.414   .     S
C329   C546    1.326   1_545 S
C329   H569    1.088   1_545 S
C330   C437    1.326   .     S
C330   H462    1.088   .     S
C331   O365    1.293   .     A
C331   C336    1.443   .     S
C331   O363    1.296   .     A
C332   O366    1.293   .     A
C332   C335    1.442   .     S
C332   O364    1.296   .     A
C333   H349    1.080   .     S
C333   C335    1.386   .     A
C333   C343    1.404   .     A
C334   C344    1.403   .     A
C334   H350    1.080   .     S
C334   C336    1.387   .     A
C335   C337    1.383   .     A
C336   C338    1.384   .     A
C337   C339    1.402   .     A
C337   H351    1.081   .     S
C338   C340    1.402   .     A
C338   H352    1.081   .     S
C339   C345    1.417   .     A
C339   C341    1.423   .     A
C340   C342    1.424   .     A
C340   C346    1.419   .     A
C341   C343    1.424   .     A
C341   C396    1.402   .     S
C342   C344    1.425   .     A
C342   C395    1.402   1_455 S
C345   C367    1.494   .     S
C345   C381    1.414   .     S
C346   C370    1.498   .     S
C346   C382    1.414   1_455 S
Cu347  Cu348   2.696   .     S
Cu347  O362    1.948   .     S
Cu347  O359    1.954   .     S
Cu347  N358    2.026   .     S
Cu347  O366    1.948   .     S
Cu347  O363    1.960   .     S
Cu348  N357    2.026   .     S
Cu348  O361    1.948   .     S
Cu348  O365    1.948   .     S
Cu348  O360    1.954   .     S
Cu348  O364    1.960   .     S
H353   C437    1.088   .     S
H354   C546    1.088   1_545 S
H355   N681    1.029   .     S
N358   N681    1.291   .     S
N358   H680    1.029   .     S
C367   H368    1.084   .     S
C367   O585    1.221   1_545 S
O369   C475    1.221   .     S
C370   H371    1.083   .     S
C370   O480    1.220   .     S
O372   C586    1.220   1_545 S
C373   O375    1.220   .     D
C373   H590    1.084   1_545 S
H374   C481    1.084   .     S
C376   O378    1.220   .     D
C376   H485    1.085   .     S
H377   C592    1.085   1_545 S
C379   C383    1.425   .     S
C379   O415    1.286   .     A
C379   O413    1.295   .     A
C380   O416    1.286   .     A
C380   C384    1.425   .     S
C380   O414    1.295   .     A
C381   C427    1.493   .     S
C381   C398    1.422   .     A
C382   C430    1.488   .     S
C382   C397    1.421   .     A
C382   C346    1.414   1_655 S
C383   C600    1.326   1_545 S
C383   H623    1.088   1_545 S
C384   C491    1.326   .     S
C384   H516    1.088   .     S
C385   O419    1.293   .     A
C385   C390    1.443   .     S
C385   O417    1.296   .     A
C386   O420    1.293   .     A
C386   C389    1.442   .     S
C386   O418    1.296   .     A
C387   H403    1.080   .     S
C387   C389    1.386   .     A
C387   C397    1.404   .     A
C388   C398    1.403   .     A
C388   H404    1.080   .     S
C388   C390    1.387   .     A
C389   C391    1.383   .     A
C390   C392    1.384   .     A
C391   C393    1.402   .     A
C391   H405    1.081   .     S
C392   C394    1.402   .     A
C392   H406    1.081   .     S
C393   C399    1.417   .     A
C393   C395    1.423   .     A
C394   C396    1.424   .     A
C394   C400    1.419   .     A
C395   C397    1.424   .     A
C395   C342    1.402   1_655 S
C396   C398    1.425   .     A
C399   C421    1.494   .     S
C399   C327    1.414   1_655 S
C400   C424    1.498   .     S
Cu401  Cu402   2.696   .     S
Cu401  O416    1.948   .     S
Cu401  O413    1.954   .     S
Cu401  N412    2.026   .     S
Cu401  O420    1.948   .     S
Cu401  O417    1.960   .     S
Cu402  N411    2.026   .     S
Cu402  O415    1.948   .     S
Cu402  O419    1.948   .     S
Cu402  O414    1.954   .     S
Cu402  O418    1.960   .     S
H407   C491    1.088   .     S
H408   C600    1.088   1_545 S
H409   N735    1.029   .     S
N412   N735    1.291   .     S
N412   H734    1.029   .     S
C421   H422    1.084   .     S
C421   O639    1.221   1_545 S
O423   C529    1.221   .     S
C424   H425    1.083   .     S
C424   O534    1.220   .     S
O426   C640    1.220   1_545 S
C427   O429    1.220   .     D
C427   H644    1.084   1_545 S
H428   C535    1.084   .     S
C430   O432    1.220   .     D
C430   H539    1.085   .     S
H431   C646    1.085   1_545 S
C433   C437    1.425   .     S
C433   O469    1.286   .     A
C433   O467    1.295   .     A
C434   O470    1.286   .     A
C434   C438    1.425   .     S
C434   O468    1.295   .     A
C435   C481    1.493   .     S
C435   C452    1.422   .     A
C435   C507    1.414   1_455 S
C436   C484    1.488   .     S
C436   C451    1.421   .     A
C436   C508    1.414   .     S
C438   C545    1.326   .     S
C438   H570    1.088   .     S
C439   O473    1.293   .     A
C439   C444    1.443   .     S
C439   O471    1.296   .     A
C440   O474    1.293   .     A
C440   C443    1.442   .     S
C440   O472    1.296   .     A
C441   H457    1.080   .     S
C441   C443    1.386   .     A
C441   C451    1.404   .     A
C442   C452    1.403   .     A
C442   H458    1.080   .     S
C442   C444    1.387   .     A
C443   C445    1.383   .     A
C444   C446    1.384   .     A
C445   C447    1.402   .     A
C445   H459    1.081   .     S
C446   C448    1.402   .     A
C446   H460    1.081   .     S
C447   C453    1.417   .     A
C447   C449    1.423   .     A
C448   C450    1.424   .     A
C448   C454    1.419   .     A
C449   C451    1.424   .     A
C449   C504    1.402   .     S
C450   C452    1.425   .     A
C450   C503    1.402   1_455 S
C453   C475    1.494   .     S
C453   C489    1.414   .     S
C454   C478    1.498   .     S
C454   C490    1.414   1_455 S
Cu455  Cu456   2.696   .     S
Cu455  O470    1.948   .     S
Cu455  O467    1.954   .     S
Cu455  N466    2.026   .     S
Cu455  O474    1.948   .     S
Cu455  O471    1.960   .     S
Cu456  N465    2.026   .     S
Cu456  O469    1.948   .     S
Cu456  O473    1.948   .     S
Cu456  O468    1.954   .     S
Cu456  O472    1.960   .     S
H461   C545    1.088   .     S
H463   N789    1.029   .     S
N466   N789    1.291   .     S
N466   H788    1.029   .     S
C475   H476    1.084   .     S
O477   C583    1.221   .     S
C478   H479    1.083   .     S
C478   O588    1.220   .     S
C481   O483    1.220   .     D
H482   C589    1.084   .     S
C484   O486    1.220   .     D
C484   H593    1.085   .     S
C487   C491    1.425   .     S
C487   O523    1.286   .     A
C487   O521    1.295   .     A
C488   O524    1.286   .     A
C488   C492    1.425   .     S
C488   O522    1.295   .     A
C489   C535    1.493   .     S
C489   C506    1.422   .     A
C490   C538    1.488   .     S
C490   C505    1.421   .     A
C490   C454    1.414   1_655 S
C492   C599    1.326   .     S
C492   H624    1.088   .     S
C493   O527    1.293   .     A
C493   C498    1.443   .     S
C493   O525    1.296   .     A
C494   O528    1.293   .     A
C494   C497    1.442   .     S
C494   O526    1.296   .     A
C495   H511    1.080   .     S
C495   C497    1.386   .     A
C495   C505    1.404   .     A
C496   C506    1.403   .     A
C496   H512    1.080   .     S
C496   C498    1.387   .     A
C497   C499    1.383   .     A
C498   C500    1.384   .     A
C499   C501    1.402   .     A
C499   H513    1.081   .     S
C500   C502    1.402   .     A
C500   H514    1.081   .     S
C501   C507    1.417   .     A
C501   C503    1.423   .     A
C502   C504    1.424   .     A
C502   C508    1.419   .     A
C503   C505    1.424   .     A
C503   C450    1.402   1_655 S
C504   C506    1.425   .     A
C507   C529    1.494   .     S
C507   C435    1.414   1_655 S
C508   C532    1.498   .     S
Cu509  Cu510   2.696   .     S
Cu509  O524    1.948   .     S
Cu509  O521    1.954   .     S
Cu509  N520    2.026   .     S
Cu509  O528    1.948   .     S
Cu509  O525    1.960   .     S
Cu510  N519    2.026   .     S
Cu510  O523    1.948   .     S
Cu510  O527    1.948   .     S
Cu510  O522    1.954   .     S
Cu510  O526    1.960   .     S
H515   C599    1.088   .     S
H517   N843    1.029   .     S
N520   N843    1.291   .     S
N520   H842    1.029   .     S
C529   H530    1.084   .     S
O531   C637    1.221   .     S
C532   H533    1.083   .     S
C532   O642    1.220   .     S
C535   O537    1.220   .     D
H536   C643    1.084   .     S
C538   O540    1.220   .     D
C538   H647    1.085   .     S
C541   C545    1.425   .     S
C541   O577    1.286   .     A
C541   O575    1.295   .     A
C542   O578    1.286   .     A
C542   C546    1.425   .     S
C542   O576    1.295   .     A
C543   C589    1.493   .     S
C543   C560    1.422   .     A
C543   C615    1.414   1_455 S
C544   C592    1.488   .     S
C544   C559    1.421   .     A
C544   C616    1.414   .     S
C546   C329    1.326   1_565 S
C546   H354    1.088   1_565 S
C547   O581    1.293   .     A
C547   C552    1.443   .     S
C547   O579    1.296   .     A
C548   O582    1.293   .     A
C548   C551    1.442   .     S
C548   O580    1.296   .     A
C549   H565    1.080   .     S
C549   C551    1.386   .     A
C549   C559    1.404   .     A
C550   C560    1.403   .     A
C550   H566    1.080   .     S
C550   C552    1.387   .     A
C551   C553    1.383   .     A
C552   C554    1.384   .     A
C553   C555    1.402   .     A
C553   H567    1.081   .     S
C554   C556    1.402   .     A
C554   H568    1.081   .     S
C555   C561    1.417   .     A
C555   C557    1.423   .     A
C556   C558    1.424   .     A
C556   C562    1.419   .     A
C557   C559    1.424   .     A
C557   C612    1.402   .     S
C558   C560    1.425   .     A
C558   C611    1.402   1_455 S
C561   C583    1.494   .     S
C561   C597    1.414   .     S
C562   C586    1.498   .     S
C562   C598    1.414   1_455 S
Cu563  Cu564   2.696   .     S
Cu563  O578    1.948   .     S
Cu563  O575    1.954   .     S
Cu563  N574    2.026   .     S
Cu563  O582    1.948   .     S
Cu563  O579    1.960   .     S
Cu564  N573    2.026   .     S
Cu564  O577    1.948   .     S
Cu564  O581    1.948   .     S
Cu564  O576    1.954   .     S
Cu564  O580    1.960   .     S
H569   C329    1.088   1_565 S
H571   N897    1.029   .     S
N574   N897    1.291   .     S
N574   H896    1.029   .     S
C583   H584    1.084   .     S
O585   C367    1.221   1_565 S
C586   H587    1.083   .     S
C586   O372    1.220   1_565 S
C589   O591    1.220   .     D
H590   C373    1.084   1_565 S
C592   O594    1.220   .     D
C592   H377    1.085   1_565 S
C595   C599    1.425   .     S
C595   O631    1.286   .     A
C595   O629    1.295   .     A
C596   O632    1.286   .     A
C596   C600    1.425   .     S
C596   O630    1.295   .     A
C597   C643    1.493   .     S
C597   C614    1.422   .     A
C598   C646    1.488   .     S
C598   C613    1.421   .     A
C598   C562    1.414   1_655 S
C600   C383    1.326   1_565 S
C600   H408    1.088   1_565 S
C601   O635    1.293   .     A
C601   C606    1.443   .     S
C601   O633    1.296   .     A
C602   O636    1.293   .     A
C602   C605    1.442   .     S
C602   O634    1.296   .     A
C603   H619    1.080   .     S
C603   C605    1.386   .     A
C603   C613    1.404   .     A
C604   C614    1.403   .     A
C604   H620    1.080   .     S
C604   C606    1.387   .     A
C605   C607    1.383   .     A
C606   C608    1.384   .     A
C607   C609    1.402   .     A
C607   H621    1.081   .     S
C608   C610    1.402   .     A
C608   H622    1.081   .     S
C609   C615    1.417   .     A
C609   C611    1.423   .     A
C610   C612    1.424   .     A
C610   C616    1.419   .     A
C611   C613    1.424   .     A
C611   C558    1.402   1_655 S
C612   C614    1.425   .     A
C615   C637    1.494   .     S
C615   C543    1.414   1_655 S
C616   C640    1.498   .     S
Cu617  Cu618   2.696   .     S
Cu617  O632    1.948   .     S
Cu617  O629    1.954   .     S
Cu617  N628    2.026   .     S
Cu617  O636    1.948   .     S
Cu617  O633    1.960   .     S
Cu618  N627    2.026   .     S
Cu618  O631    1.948   .     S
Cu618  O635    1.948   .     S
Cu618  O630    1.954   .     S
Cu618  O634    1.960   .     S
H623   C383    1.088   1_565 S
H625   N951    1.029   .     S
N628   N951    1.291   .     S
N628   H950    1.029   .     S
C637   H638    1.084   .     S
O639   C421    1.221   1_565 S
C640   H641    1.083   .     S
C640   O426    1.220   1_565 S
C643   O645    1.220   .     D
H644   C427    1.084   1_565 S
C646   O648    1.220   .     D
C646   H431    1.085   1_565 S
C649   C653    1.425   .     S
C649   O685    1.286   .     A
C649   O683    1.295   .     A
C650   O686    1.286   .     A
C650   C654    1.425   .     S
C650   O684    1.295   .     A
C651   C697    1.493   .     S
C651   C668    1.422   .     A
C651   C723    1.414   1_455 S
C652   C700    1.488   .     S
C652   C667    1.421   .     A
C652   C724    1.414   .     S
C653   C870    1.326   1_545 S
C653   H893    1.088   1_545 S
C654   C761    1.326   .     S
C654   H786    1.088   .     S
C655   O689    1.293   .     A
C655   C660    1.443   .     S
C655   O687    1.296   .     A
C656   O690    1.293   .     A
C656   C659    1.442   .     S
C656   O688    1.296   .     A
C657   H673    1.080   .     S
C657   C659    1.386   .     A
C657   C667    1.404   .     A
C658   C668    1.403   .     A
C658   H674    1.080   .     S
C658   C660    1.387   .     A
C659   C661    1.383   .     A
C660   C662    1.384   .     A
C661   C663    1.402   .     A
C661   H675    1.081   .     S
C662   C664    1.402   .     A
C662   H676    1.081   .     S
C663   C669    1.417   .     A
C663   C665    1.423   .     A
C664   C666    1.424   .     A
C664   C670    1.419   .     A
C665   C667    1.424   .     A
C665   C720    1.402   .     S
C666   C668    1.425   .     A
C666   C719    1.402   1_455 S
C669   C691    1.494   .     S
C669   C705    1.414   .     S
C670   C694    1.498   .     S
C670   C706    1.414   1_455 S
Cu671  Cu672   2.696   .     S
Cu671  O686    1.948   .     S
Cu671  O683    1.954   .     S
Cu671  N682    2.026   .     S
Cu671  O690    1.948   .     S
Cu671  O687    1.960   .     S
Cu672  N681    2.026   .     S
Cu672  O685    1.948   .     S
Cu672  O689    1.948   .     S
Cu672  O684    1.954   .     S
Cu672  O688    1.960   .     S
H677   C761    1.088   .     S
H678   C870    1.088   1_545 S
H679   N33     1.029   1_556 S
N682   N33     1.291   1_556 S
N682   H32     1.029   1_556 S
C691   H692    1.084   .     S
C691   O909    1.221   1_545 S
O693   C799    1.221   .     S
C694   H695    1.083   .     S
C694   O804    1.220   .     S
O696   C910    1.220   1_545 S
C697   O699    1.220   .     D
C697   H914    1.084   1_545 S
H698   C805    1.084   .     S
C700   O702    1.220   .     D
C700   H809    1.085   .     S
H701   C916    1.085   1_545 S
C703   C707    1.425   .     S
C703   O739    1.286   .     A
C703   O737    1.295   .     A
C704   O740    1.286   .     A
C704   C708    1.425   .     S
C704   O738    1.295   .     A
C705   C751    1.493   .     S
C705   C722    1.422   .     A
C706   C754    1.488   .     S
C706   C721    1.421   .     A
C706   C670    1.414   1_655 S
C707   C924    1.326   1_545 S
C707   H947    1.088   1_545 S
C708   C815    1.326   .     S
C708   H840    1.088   .     S
C709   O743    1.293   .     A
C709   C714    1.443   .     S
C709   O741    1.296   .     A
C710   O744    1.293   .     A
C710   C713    1.442   .     S
C710   O742    1.296   .     A
C711   H727    1.080   .     S
C711   C713    1.386   .     A
C711   C721    1.404   .     A
C712   C722    1.403   .     A
C712   H728    1.080   .     S
C712   C714    1.387   .     A
C713   C715    1.383   .     A
C714   C716    1.384   .     A
C715   C717    1.402   .     A
C715   H729    1.081   .     S
C716   C718    1.402   .     A
C716   H730    1.081   .     S
C717   C723    1.417   .     A
C717   C719    1.423   .     A
C718   C720    1.424   .     A
C718   C724    1.419   .     A
C719   C721    1.424   .     A
C719   C666    1.402   1_655 S
C720   C722    1.425   .     A
C723   C745    1.494   .     S
C723   C651    1.414   1_655 S
C724   C748    1.498   .     S
Cu725  Cu726   2.696   .     S
Cu725  O740    1.948   .     S
Cu725  O737    1.954   .     S
Cu725  N736    2.026   .     S
Cu725  O744    1.948   .     S
Cu725  O741    1.960   .     S
Cu726  N735    2.026   .     S
Cu726  O739    1.948   .     S
Cu726  O743    1.948   .     S
Cu726  O738    1.954   .     S
Cu726  O742    1.960   .     S
H731   C815    1.088   .     S
H732   C924    1.088   1_545 S
H733   N87     1.029   1_556 S
N736   N87     1.291   1_556 S
N736   H86     1.029   1_556 S
C745   H746    1.084   .     S
C745   O963    1.221   1_545 S
O747   C853    1.221   .     S
C748   H749    1.083   .     S
C748   O858    1.220   .     S
O750   C964    1.220   1_545 S
C751   O753    1.220   .     D
C751   H968    1.084   1_545 S
H752   C859    1.084   .     S
C754   O756    1.220   .     D
C754   H863    1.085   .     S
H755   C970    1.085   1_545 S
C757   C761    1.425   .     S
C757   O793    1.286   .     A
C757   O791    1.295   .     A
C758   O794    1.286   .     A
C758   C762    1.425   .     S
C758   O792    1.295   .     A
C759   C805    1.493   .     S
C759   C776    1.422   .     A
C759   C831    1.414   1_455 S
C760   C808    1.488   .     S
C760   C775    1.421   .     A
C760   C832    1.414   .     S
C762   C869    1.326   .     S
C762   H894    1.088   .     S
C763   O797    1.293   .     A
C763   C768    1.443   .     S
C763   O795    1.296   .     A
C764   O798    1.293   .     A
C764   C767    1.442   .     S
C764   O796    1.296   .     A
C765   H781    1.080   .     S
C765   C767    1.386   .     A
C765   C775    1.404   .     A
C766   C776    1.403   .     A
C766   H782    1.080   .     S
C766   C768    1.387   .     A
C767   C769    1.383   .     A
C768   C770    1.384   .     A
C769   C771    1.402   .     A
C769   H783    1.081   .     S
C770   C772    1.402   .     A
C770   H784    1.081   .     S
C771   C777    1.417   .     A
C771   C773    1.423   .     A
C772   C774    1.424   .     A
C772   C778    1.419   .     A
C773   C775    1.424   .     A
C773   C828    1.402   .     S
C774   C776    1.425   .     A
C774   C827    1.402   1_455 S
C777   C799    1.494   .     S
C777   C813    1.414   .     S
C778   C802    1.498   .     S
C778   C814    1.414   1_455 S
Cu779  Cu780   2.696   .     S
Cu779  O794    1.948   .     S
Cu779  O791    1.954   .     S
Cu779  N790    2.026   .     S
Cu779  O798    1.948   .     S
Cu779  O795    1.960   .     S
Cu780  N789    2.026   .     S
Cu780  O793    1.948   .     S
Cu780  O797    1.948   .     S
Cu780  O792    1.954   .     S
Cu780  O796    1.960   .     S
H785   C869    1.088   .     S
H787   N141    1.029   1_556 S
N790   N141    1.291   1_556 S
N790   H140    1.029   1_556 S
C799   H800    1.084   .     S
O801   C907    1.221   .     S
C802   H803    1.083   .     S
C802   O912    1.220   .     S
C805   O807    1.220   .     D
H806   C913    1.084   .     S
C808   O810    1.220   .     D
C808   H917    1.085   .     S
C811   C815    1.425   .     S
C811   O847    1.286   .     A
C811   O845    1.295   .     A
C812   O848    1.286   .     A
C812   C816    1.425   .     S
C812   O846    1.295   .     A
C813   C859    1.493   .     S
C813   C830    1.422   .     A
C814   C862    1.488   .     S
C814   C829    1.421   .     A
C814   C778    1.414   1_655 S
C816   C923    1.326   .     S
C816   H948    1.088   .     S
C817   O851    1.293   .     A
C817   C822    1.443   .     S
C817   O849    1.296   .     A
C818   O852    1.293   .     A
C818   C821    1.442   .     S
C818   O850    1.296   .     A
C819   H835    1.080   .     S
C819   C821    1.386   .     A
C819   C829    1.404   .     A
C820   C830    1.403   .     A
C820   H836    1.080   .     S
C820   C822    1.387   .     A
C821   C823    1.383   .     A
C822   C824    1.384   .     A
C823   C825    1.402   .     A
C823   H837    1.081   .     S
C824   C826    1.402   .     A
C824   H838    1.081   .     S
C825   C831    1.417   .     A
C825   C827    1.423   .     A
C826   C828    1.424   .     A
C826   C832    1.419   .     A
C827   C829    1.424   .     A
C827   C774    1.402   1_655 S
C828   C830    1.425   .     A
C831   C853    1.494   .     S
C831   C759    1.414   1_655 S
C832   C856    1.498   .     S
Cu833  Cu834   2.696   .     S
Cu833  O848    1.948   .     S
Cu833  O845    1.954   .     S
Cu833  N844    2.026   .     S
Cu833  O852    1.948   .     S
Cu833  O849    1.960   .     S
Cu834  N843    2.026   .     S
Cu834  O847    1.948   .     S
Cu834  O851    1.948   .     S
Cu834  O846    1.954   .     S
Cu834  O850    1.960   .     S
H839   C923    1.088   .     S
H841   N195    1.029   1_556 S
N844   N195    1.291   1_556 S
N844   H194    1.029   1_556 S
C853   H854    1.084   .     S
O855   C961    1.221   .     S
C856   H857    1.083   .     S
C856   O966    1.220   .     S
C859   O861    1.220   .     D
H860   C967    1.084   .     S
C862   O864    1.220   .     D
C862   H971    1.085   .     S
C865   C869    1.425   .     S
C865   O901    1.286   .     A
C865   O899    1.295   .     A
C866   O902    1.286   .     A
C866   C870    1.425   .     S
C866   O900    1.295   .     A
C867   C913    1.493   .     S
C867   C884    1.422   .     A
C867   C939    1.414   1_455 S
C868   C916    1.488   .     S
C868   C883    1.421   .     A
C868   C940    1.414   .     S
C870   C653    1.326   1_565 S
C870   H678    1.088   1_565 S
C871   O905    1.293   .     A
C871   C876    1.443   .     S
C871   O903    1.296   .     A
C872   O906    1.293   .     A
C872   C875    1.442   .     S
C872   O904    1.296   .     A
C873   H889    1.080   .     S
C873   C875    1.386   .     A
C873   C883    1.404   .     A
C874   C884    1.403   .     A
C874   H890    1.080   .     S
C874   C876    1.387   .     A
C875   C877    1.383   .     A
C876   C878    1.384   .     A
C877   C879    1.402   .     A
C877   H891    1.081   .     S
C878   C880    1.402   .     A
C878   H892    1.081   .     S
C879   C885    1.417   .     A
C879   C881    1.423   .     A
C880   C882    1.424   .     A
C880   C886    1.419   .     A
C881   C883    1.424   .     A
C881   C936    1.402   .     S
C882   C884    1.425   .     A
C882   C935    1.402   1_455 S
C885   C907    1.494   .     S
C885   C921    1.414   .     S
C886   C910    1.498   .     S
C886   C922    1.414   1_455 S
Cu887  Cu888   2.696   .     S
Cu887  O902    1.948   .     S
Cu887  O899    1.954   .     S
Cu887  N898    2.026   .     S
Cu887  O906    1.948   .     S
Cu887  O903    1.960   .     S
Cu888  N897    2.026   .     S
Cu888  O901    1.948   .     S
Cu888  O905    1.948   .     S
Cu888  O900    1.954   .     S
Cu888  O904    1.960   .     S
H893   C653    1.088   1_565 S
H895   N249    1.029   1_556 S
N898   N249    1.291   1_556 S
N898   H248    1.029   1_556 S
C907   H908    1.084   .     S
O909   C691    1.221   1_565 S
C910   H911    1.083   .     S
C910   O696    1.220   1_565 S
C913   O915    1.220   .     D
H914   C697    1.084   1_565 S
C916   O918    1.220   .     D
C916   H701    1.085   1_565 S
C919   C923    1.425   .     S
C919   O955    1.286   .     A
C919   O953    1.295   .     A
C920   O956    1.286   .     A
C920   C924    1.425   .     S
C920   O954    1.295   .     A
C921   C967    1.493   .     S
C921   C938    1.422   .     A
C922   C970    1.488   .     S
C922   C937    1.421   .     A
C922   C886    1.414   1_655 S
C924   C707    1.326   1_565 S
C924   H732    1.088   1_565 S
C925   O959    1.293   .     A
C925   C930    1.443   .     S
C925   O957    1.296   .     A
C926   O960    1.293   .     A
C926   C929    1.442   .     S
C926   O958    1.296   .     A
C927   H943    1.080   .     S
C927   C929    1.386   .     A
C927   C937    1.404   .     A
C928   C938    1.403   .     A
C928   H944    1.080   .     S
C928   C930    1.387   .     A
C929   C931    1.383   .     A
C930   C932    1.384   .     A
C931   C933    1.402   .     A
C931   H945    1.081   .     S
C932   C934    1.402   .     A
C932   H946    1.081   .     S
C933   C939    1.417   .     A
C933   C935    1.423   .     A
C934   C936    1.424   .     A
C934   C940    1.419   .     A
C935   C937    1.424   .     A
C935   C882    1.402   1_655 S
C936   C938    1.425   .     A
C939   C961    1.494   .     S
C939   C867    1.414   1_655 S
C940   C964    1.498   .     S
Cu941  Cu942   2.696   .     S
Cu941  O956    1.948   .     S
Cu941  O953    1.954   .     S
Cu941  N952    2.026   .     S
Cu941  O960    1.948   .     S
Cu941  O957    1.960   .     S
Cu942  N951    2.026   .     S
Cu942  O955    1.948   .     S
Cu942  O959    1.948   .     S
Cu942  O954    1.954   .     S
Cu942  O958    1.960   .     S
H947   C707    1.088   1_565 S
H949   N303    1.029   1_556 S
N952   N303    1.291   1_556 S
N952   H302    1.029   1_556 S
C961   H962    1.084   .     S
O963   C745    1.221   1_565 S
C964   H965    1.083   .     S
C964   O750    1.220   1_565 S
C967   O969    1.220   .     D
H968   C751    1.084   1_565 S
C970   O972    1.220   .     D
C970   H755    1.085   1_565 S
