data_str_m1_o1_o2_pcu_sym.63
_audit_creation_date              2020-01-03
_audit_creation_method            'Materials Studio'
_symmetry_space_group_name_H-M    'P1'
_symmetry_Int_Tables_number       1
_symmetry_cell_setting            triclinic
loop_
_symmetry_equiv_pos_as_xyz
  x,y,z
_cell_length_a                    36.7020
_cell_length_b                    36.7055
_cell_length_c                    34.5663
_cell_angle_alpha                 90.0209
_cell_angle_beta                  90.0769
_cell_angle_gamma                 89.9959
loop_
_atom_site_label
_atom_site_type_symbol
_atom_site_fract_x
_atom_site_fract_y
_atom_site_fract_z
_atom_site_U_iso_or_equiv
_atom_site_adp_type
_atom_site_occupancy
C1     C     0.22073   0.48428   0.04120   0.00000  Uiso   1.00
C2     C     0.02926   0.26573   0.45879   0.00000  Uiso   1.00
C3     C     0.34818   0.40196   0.74991   0.00000  Uiso   1.00
C4     C     0.40188   0.15188   0.25000   0.00000  Uiso   1.00
C5     C     0.09810   0.34814   0.74998   0.00000  Uiso   1.00
C6     C     0.34810   0.40187   0.24999   0.00000  Uiso   1.00
C7     C     0.15191   0.09815   0.75004   0.00000  Uiso   1.00
C8     C     0.09816   0.15194   0.75006   0.00000  Uiso   1.00
C9     C     0.40189   0.34812   0.24999   0.00000  Uiso   1.00
C10    C     0.15190   0.40188   0.74999   0.00000  Uiso   1.00
C11    C     0.34814   0.09809   0.25004   0.00000  Uiso   1.00
C12    C     0.40199   0.34823   0.74987   0.00000  Uiso   1.00
C13    C     0.26543   0.47056   0.54124   0.00000  Uiso   1.00
C14    C     0.09813   0.15189   0.25001   0.00000  Uiso   1.00
C15    C     0.34813   0.09810   0.75001   0.00000  Uiso   1.00
C16    C     0.15192   0.40184   0.24995   0.00000  Uiso   1.00
C17    C     0.24955   0.00060   0.10217   0.00000  Uiso   1.00
C18    C     0.25045   0.00061   0.89784   0.00000  Uiso   1.00
C19    C     0.00028   0.25007   0.10226   0.00000  Uiso   1.00
C20    C     0.49931   0.24969   0.89790   0.00000  Uiso   1.00
C21    C     0.49955   0.24938   0.60216   0.00000  Uiso   1.00
C22    C     0.00045   0.24940   0.39783   0.00000  Uiso   1.00
C23    C     0.24944   0.49959   0.60214   0.00000  Uiso   1.00
C24    C     0.26608   0.02912   0.45875   0.00000  Uiso   1.00
C25    C     0.24948   0.00043   0.39782   0.00000  Uiso   1.00
C26    C     0.15808   0.49083   0.10326   0.00000  Uiso   1.00
C27    C     0.34197   0.49147   0.89673   0.00000  Uiso   1.00
C28    C     0.42737   0.20274   0.11251   0.00000  Uiso   1.00
C29    C     0.42829   0.29946   0.88797   0.00000  Uiso   1.00
C30    C     0.29965   0.07142   0.11239   0.00000  Uiso   1.00
C31    C     0.19980   0.07107   0.88768   0.00000  Uiso   1.00
C32    C     0.07339   0.29682   0.11349   0.00000  Uiso   1.00
C33    C     0.00866   0.15825   0.89690   0.00000  Uiso   1.00
C34    C     0.40802   0.25840   0.60327   0.00000  Uiso   1.00
C35    C     0.02926   0.23535   0.54114   0.00000  Uiso   1.00
C36    C     0.09191   0.25925   0.39674   0.00000  Uiso   1.00
C37    C     0.25806   0.40802   0.60335   0.00000  Uiso   1.00
C38    C     0.26011   0.09182   0.39667   0.00000  Uiso   1.00
C39    C     0.05031   0.17898   0.61232   0.00000  Uiso   1.00
C40    C     0.45041   0.17854   0.38759   0.00000  Uiso   1.00
C41    C     0.17926   0.05069   0.61206   0.00000  Uiso   1.00
C42    C     0.17815   0.45109   0.38769   0.00000  Uiso   1.00
C43    C     0.47088   0.23510   0.45882   0.00000  Uiso   1.00
C44    C     0.23561   0.02935   0.54107   0.00000  Uiso   1.00
C45    C     0.23499   0.47098   0.45884   0.00000  Uiso   1.00
C46    C     0.22008   0.48484   0.08154   0.00000  Uiso   1.00
C47    C     0.28002   0.48504   0.91846   0.00000  Uiso   1.00
C48    C     0.48302   0.22161   0.08148   0.00000  Uiso   1.00
C49    C     0.27938   0.48448   0.95880   0.00000  Uiso   1.00
C50    C     0.48366   0.27919   0.91851   0.00000  Uiso   1.00
C51    C     0.27895   0.01631   0.08153   0.00000  Uiso   1.00
C52    C     0.22094   0.01612   0.91850   0.00000  Uiso   1.00
C53    C     0.01775   0.27865   0.08187   0.00000  Uiso   1.00
C54    C     0.01495   0.22024   0.91862   0.00000  Uiso   1.00
C55    C     0.46996   0.26490   0.58153   0.00000  Uiso   1.00
C56    C     0.02991   0.26518   0.41846   0.00000  Uiso   1.00
C57    C     0.26485   0.46992   0.58157   0.00000  Uiso   1.00
C58    C     0.26551   0.02976   0.41841   0.00000  Uiso   1.00
C59    C     0.02909   0.23390   0.58150   0.00000  Uiso   1.00
C60    C     0.48405   0.22170   0.04112   0.00000  Uiso   1.00
C61    C     0.47106   0.23366   0.41847   0.00000  Uiso   1.00
C62    C     0.23412   0.02919   0.58142   0.00000  Uiso   1.00
C63    C     0.23352   0.47118   0.41848   0.00000  Uiso   1.00
C64    C     0.25006   0.49920   0.02111   0.00000  Uiso   1.00
C65    C     0.24995   0.49920   0.97890   0.00000  Uiso   1.00
C66    C     0.00056   0.25036   0.02123   0.00000  Uiso   1.00
C67    C     0.00064   0.25045   0.97901   0.00000  Uiso   1.00
C68    C     0.00006   0.25078   0.52110   0.00000  Uiso   1.00
C69    C     0.49995   0.25078   0.47888   0.00000  Uiso   1.00
C70    C     0.25090   0.00007   0.52108   0.00000  Uiso   1.00
C71    C     0.48514   0.27954   0.95889   0.00000  Uiso   1.00
C72    C     0.25090   0.49993   0.47887   0.00000  Uiso   1.00
C73    C     0.24993   0.00008   0.35524   0.00000  Uiso   1.00
C74    C     0.24992   0.49992   0.64474   0.00000  Uiso   1.00
C75    C     0.00010   0.24992   0.35525   0.00000  Uiso   1.00
C76    C     0.49990   0.24991   0.64474   0.00000  Uiso   1.00
C77    C     0.49988   0.24994   0.85527   0.00000  Uiso   1.00
C78    C     0.00006   0.25001   0.14479   0.00000  Uiso   1.00
C79    C     0.25009   0.00009   0.85525   0.00000  Uiso   1.00
C80    C     0.24990   0.00009   0.14475   0.00000  Uiso   1.00
C81    C     0.17994   0.07005   0.25000   0.00000  Uiso   1.00
C82    C     0.27914   0.01486   0.04117   0.00000  Uiso   1.00
C83    C     0.32007   0.42996   0.74998   0.00000  Uiso   1.00
C84    C     0.42995   0.17994   0.24999   0.00000  Uiso   1.00
C85    C     0.07004   0.32006   0.75000   0.00000  Uiso   1.00
C86    C     0.32005   0.42994   0.25000   0.00000  Uiso   1.00
C87    C     0.17995   0.07006   0.75001   0.00000  Uiso   1.00
C88    C     0.07006   0.32006   0.25001   0.00000  Uiso   1.00
C89    C     0.42993   0.17996   0.75000   0.00000  Uiso   1.00
C90    C     0.17995   0.42994   0.74999   0.00000  Uiso   1.00
C91    C     0.32006   0.07005   0.25001   0.00000  Uiso   1.00
C92    C     0.42997   0.32009   0.74996   0.00000  Uiso   1.00
C93    C     0.22076   0.01467   0.95886   0.00000  Uiso   1.00
C94    C     0.07006   0.17995   0.25000   0.00000  Uiso   1.00
C95    C     0.32006   0.07005   0.75001   0.00000  Uiso   1.00
C96    C     0.17995   0.42993   0.24998   0.00000  Uiso   1.00
C97    C     0.07006   0.17996   0.75002   0.00000  Uiso   1.00
C98    C     0.42995   0.32005   0.25000   0.00000  Uiso   1.00
C99    C     0.12783   0.39881   0.21850   0.00000  Uiso   1.00
C100   C     0.37025   0.10309   0.78278   0.00000  Uiso   1.00
C101   C     0.10308   0.12983   0.21722   0.00000  Uiso   1.00
C102   C     0.39842   0.37173   0.78174   0.00000  Uiso   1.00
C103   C     0.37278   0.10049   0.21906   0.00000  Uiso   1.00
C104   C     0.01694   0.27887   0.04149   0.00000  Uiso   1.00
C105   C     0.12988   0.39689   0.78277   0.00000  Uiso   1.00
C106   C     0.39679   0.37010   0.21718   0.00000  Uiso   1.00
C107   C     0.10034   0.12701   0.78082   0.00000  Uiso   1.00
C108   C     0.12697   0.10027   0.78077   0.00000  Uiso   1.00
C109   C     0.37006   0.39681   0.21718   0.00000  Uiso   1.00
C110   C     0.10315   0.37020   0.78276   0.00000  Uiso   1.00
C111   C     0.39945   0.12718   0.21904   0.00000  Uiso   1.00
C112   C     0.37163   0.39832   0.78182   0.00000  Uiso   1.00
C113   C     0.12979   0.10310   0.21723   0.00000  Uiso   1.00
C114   C     0.39695   0.12983   0.78278   0.00000  Uiso   1.00
C115   C     0.01544   0.22100   0.95898   0.00000  Uiso   1.00
C116   C     0.10109   0.37217   0.21855   0.00000  Uiso   1.00
C117   C     0.37974   0.14692   0.71725   0.00000  Uiso   1.00
C118   C     0.12221   0.35115   0.28145   0.00000  Uiso   1.00
C119   C     0.35190   0.37865   0.71790   0.00000  Uiso   1.00
C120   C     0.14692   0.12017   0.28279   0.00000  Uiso   1.00
C121   C     0.12012   0.35312   0.71720   0.00000  Uiso   1.00
C122   C     0.37725   0.14947   0.28099   0.00000  Uiso   1.00
C123   C     0.14982   0.12317   0.71937   0.00000  Uiso   1.00
C124   C     0.35320   0.37989   0.28280   0.00000  Uiso   1.00
C125   C     0.37993   0.35318   0.28281   0.00000  Uiso   1.00
C126   C     0.47061   0.26546   0.54119   0.00000  Uiso   1.00
C127   C     0.12313   0.14984   0.71936   0.00000  Uiso   1.00
C128   C     0.35063   0.12273   0.28104   0.00000  Uiso   1.00
C129   C     0.14685   0.37982   0.71720   0.00000  Uiso   1.00
C130   C     0.12022   0.14690   0.28279   0.00000  Uiso   1.00
C131   C     0.37860   0.35194   0.71790   0.00000  Uiso   1.00
C132   C     0.14896   0.37777   0.28139   0.00000  Uiso   1.00
C133   C     0.35305   0.12019   0.71725   0.00000  Uiso   1.00
C134   C     0.09811   0.34812   0.25000   0.00000  Uiso   1.00
C135   C     0.40186   0.15191   0.75001   0.00000  Uiso   1.00
C136   C     0.15187   0.09810   0.25001   0.00000  Uiso   1.00
F137   F     0.13048   0.42108   0.18724   0.00000  Uiso   1.00
F138   F     0.36518   0.41707   0.18470   0.00000  Uiso   1.00
F139   F     0.08286   0.36543   0.81521   0.00000  Uiso   1.00
F140   F     0.42241   0.12907   0.18832   0.00000  Uiso   1.00
F141   F     0.36829   0.41995   0.81352   0.00000  Uiso   1.00
F142   F     0.13453   0.08275   0.18478   0.00000  Uiso   1.00
F143   F     0.41734   0.13460   0.81522   0.00000  Uiso   1.00
F144   F     0.07860   0.36967   0.18742   0.00000  Uiso   1.00
F145   F     0.38445   0.16727   0.68482   0.00000  Uiso   1.00
F146   F     0.11957   0.32888   0.31271   0.00000  Uiso   1.00
F147   F     0.33029   0.38210   0.68617   0.00000  Uiso   1.00
F148   F     0.36555   0.08273   0.81521   0.00000  Uiso   1.00
F149   F     0.16729   0.11539   0.31524   0.00000  Uiso   1.00
F150   F     0.11528   0.33279   0.68475   0.00000  Uiso   1.00
F151   F     0.37913   0.17253   0.31166   0.00000  Uiso   1.00
F152   F     0.17317   0.12168   0.68895   0.00000  Uiso   1.00
F153   F     0.33296   0.38474   0.31528   0.00000  Uiso   1.00
F154   F     0.38481   0.33292   0.31528   0.00000  Uiso   1.00
F155   F     0.12160   0.17320   0.68894   0.00000  Uiso   1.00
F156   F     0.32780   0.12068   0.31187   0.00000  Uiso   1.00
F157   F     0.16715   0.38459   0.68476   0.00000  Uiso   1.00
F158   F     0.11548   0.16725   0.31524   0.00000  Uiso   1.00
F159   F     0.08273   0.13461   0.18477   0.00000  Uiso   1.00
F160   F     0.38198   0.33032   0.68619   0.00000  Uiso   1.00
F161   F     0.17149   0.38023   0.31249   0.00000  Uiso   1.00
F162   F     0.33266   0.11541   0.68481   0.00000  Uiso   1.00
F163   F     0.42040   0.36871   0.81321   0.00000  Uiso   1.00
F164   F     0.37091   0.07742   0.18839   0.00000  Uiso   1.00
F165   F     0.13471   0.41722   0.81522   0.00000  Uiso   1.00
F166   F     0.41702   0.36525   0.18471   0.00000  Uiso   1.00
F167   F     0.07720   0.12874   0.81141   0.00000  Uiso   1.00
F168   F     0.12852   0.07692   0.81120   0.00000  Uiso   1.00
H169   H     0.19833   0.47194   0.02547   0.00000  Uiso   1.00
H170   H     0.05166   0.27808   0.47452   0.00000  Uiso   1.00
H171   H     0.27749   0.44800   0.52556   0.00000  Uiso   1.00
H172   H     0.27862   0.05142   0.47445   0.00000  Uiso   1.00
H173   H     0.05173   0.22335   0.52529   0.00000  Uiso   1.00
H174   H     0.44851   0.22290   0.47466   0.00000  Uiso   1.00
H175   H     0.22373   0.05188   0.52516   0.00000  Uiso   1.00
H176   H     0.22260   0.44873   0.47471   0.00000  Uiso   1.00
H177   H     0.18438   0.44253   0.09079   0.00000  Uiso   1.00
H178   H     0.14649   0.49519   0.07390   0.00000  Uiso   1.00
H179   H     0.16464   0.01764   0.11649   0.00000  Uiso   1.00
H180   H     0.30186   0.47230   0.97452   0.00000  Uiso   1.00
H181   H     0.13730   0.47717   0.12152   0.00000  Uiso   1.00
H182   H     0.31603   0.44298   0.90922   0.00000  Uiso   1.00
H183   H     0.35354   0.49593   0.92608   0.00000  Uiso   1.00
H184   H     0.33521   0.01822   0.88349   0.00000  Uiso   1.00
H185   H     0.36285   0.47794   0.87847   0.00000  Uiso   1.00
H186   H     0.46477   0.16851   0.08651   0.00000  Uiso   1.00
H187   H     0.41023   0.20831   0.08664   0.00000  Uiso   1.00
H188   H     0.42760   0.22712   0.13154   0.00000  Uiso   1.00
H189   H     0.41514   0.17979   0.12889   0.00000  Uiso   1.00
H190   H     0.46710   0.33281   0.91304   0.00000  Uiso   1.00
H191   H     0.47092   0.19992   0.02514   0.00000  Uiso   1.00
H192   H     0.41149   0.29423   0.91412   0.00000  Uiso   1.00
H193   H     0.42757   0.27515   0.86884   0.00000  Uiso   1.00
H194   H     0.41632   0.32276   0.87194   0.00000  Uiso   1.00
H195   H     0.33268   0.03266   0.08683   0.00000  Uiso   1.00
H196   H     0.29463   0.08853   0.08639   0.00000  Uiso   1.00
H197   H     0.32301   0.08301   0.12869   0.00000  Uiso   1.00
H198   H     0.27529   0.07213   0.13140   0.00000  Uiso   1.00
H199   H     0.16709   0.03206   0.91322   0.00000  Uiso   1.00
H200   H     0.20466   0.08823   0.91369   0.00000  Uiso   1.00
H201   H     0.17638   0.08247   0.87135   0.00000  Uiso   1.00
H202   H     0.47304   0.30199   0.97470   0.00000  Uiso   1.00
H203   H     0.22418   0.07197   0.86870   0.00000  Uiso   1.00
H204   H     0.03638   0.33157   0.08753   0.00000  Uiso   1.00
H205   H     0.09053   0.29115   0.08769   0.00000  Uiso   1.00
H206   H     0.07285   0.27239   0.13242   0.00000  Uiso   1.00
H207   H     0.08582   0.31959   0.13001   0.00000  Uiso   1.00
H208   H     0.05708   0.18428   0.90958   0.00000  Uiso   1.00
H209   H     0.00415   0.14674   0.92625   0.00000  Uiso   1.00
H210   H     0.02225   0.13735   0.87872   0.00000  Uiso   1.00
H211   H     0.48192   0.16494   0.88356   0.00000  Uiso   1.00
H212   H     0.43389   0.30692   0.59076   0.00000  Uiso   1.00
H213   H     0.30151   0.02704   0.02533   0.00000  Uiso   1.00
H214   H     0.39646   0.25391   0.57392   0.00000  Uiso   1.00
H215   H     0.38713   0.27191   0.62152   0.00000  Uiso   1.00
H216   H     0.41482   0.23167   0.61651   0.00000  Uiso   1.00
H217   H     0.06556   0.30753   0.40921   0.00000  Uiso   1.00
H218   H     0.10351   0.25491   0.42610   0.00000  Uiso   1.00
H219   H     0.11268   0.27293   0.37848   0.00000  Uiso   1.00
H220   H     0.08538   0.23243   0.38351   0.00000  Uiso   1.00
H221   H     0.30670   0.43367   0.59091   0.00000  Uiso   1.00
H222   H     0.25354   0.39648   0.57400   0.00000  Uiso   1.00
H223   H     0.23134   0.41493   0.61654   0.00000  Uiso   1.00
H224   H     0.19830   0.02669   0.97471   0.00000  Uiso   1.00
H225   H     0.27146   0.38706   0.62165   0.00000  Uiso   1.00
H226   H     0.30817   0.06501   0.40908   0.00000  Uiso   1.00
H227   H     0.25594   0.10344   0.42604   0.00000  Uiso   1.00
H228   H     0.23319   0.08554   0.38350   0.00000  Uiso   1.00
H229   H     0.27394   0.11246   0.37838   0.00000  Uiso   1.00
H230   H     0.08296   0.21804   0.58678   0.00000  Uiso   1.00
H231   H     0.04548   0.16182   0.58631   0.00000  Uiso   1.00
H232   H     0.02592   0.17804   0.63129   0.00000  Uiso   1.00
H233   H     0.07375   0.16763   0.62865   0.00000  Uiso   1.00
H234   H     0.41736   0.21726   0.41317   0.00000  Uiso   1.00
H235   H     0.03018   0.30074   0.02581   0.00000  Uiso   1.00
H236   H     0.45546   0.16143   0.41357   0.00000  Uiso   1.00
H237   H     0.47477   0.17786   0.36857   0.00000  Uiso   1.00
H238   H     0.42707   0.16693   0.37129   0.00000  Uiso   1.00
H239   H     0.21855   0.08314   0.58662   0.00000  Uiso   1.00
H240   H     0.16211   0.04598   0.58600   0.00000  Uiso   1.00
H241   H     0.16801   0.07419   0.62835   0.00000  Uiso   1.00
H242   H     0.17815   0.02631   0.63104   0.00000  Uiso   1.00
H243   H     0.21660   0.41764   0.41322   0.00000  Uiso   1.00
H244   H     0.16117   0.45637   0.41370   0.00000  Uiso   1.00
H245   H     0.16623   0.42785   0.37150   0.00000  Uiso   1.00
H246   H     0.02763   0.19857   0.97477   0.00000  Uiso   1.00
H247   H     0.17767   0.47542   0.36860   0.00000  Uiso   1.00
H248   H     0.44811   0.27762   0.52547   0.00000  Uiso   1.00
N249   N     0.19033   0.46823   0.10111   0.00000  Uiso   1.00
N250   N     0.05965   0.28182   0.39889   0.00000  Uiso   1.00
N251   N     0.28108   0.43995   0.60119   0.00000  Uiso   1.00
N252   N     0.28238   0.05935   0.39880   0.00000  Uiso   1.00
N253   N     0.05831   0.21606   0.60094   0.00000  Uiso   1.00
N254   N     0.44203   0.21554   0.39900   0.00000  Uiso   1.00
N255   N     0.21641   0.05850   0.60079   0.00000  Uiso   1.00
N256   N     0.21508   0.44233   0.39904   0.00000  Uiso   1.00
N257   N     0.30990   0.46863   0.89889   0.00000  Uiso   1.00
N258   N     0.46398   0.19316   0.10085   0.00000  Uiso   1.00
N259   N     0.46535   0.30805   0.89900   0.00000  Uiso   1.00
N260   N     0.30800   0.03441   0.10099   0.00000  Uiso   1.00
N261   N     0.19174   0.03401   0.89906   0.00000  Uiso   1.00
N262   N     0.03690   0.30681   0.10165   0.00000  Uiso   1.00
N263   N     0.03145   0.19035   0.89914   0.00000  Uiso   1.00
N264   N     0.44006   0.28128   0.60110   0.00000  Uiso   1.00
O265   O     0.25000  -0.00000   0.25000   0.00000  Uiso   1.00
O266   O     0.25000   0.46964   0.66317   0.00000  Uiso   1.00
O267   O     0.46964   0.25000   0.33683   0.00000  Uiso   1.00
O268   O     0.03036   0.25000   0.66317   0.00000  Uiso   1.00
O269   O     0.00000   0.21964   0.83683   0.00000  Uiso   1.00
O270   O    -0.00000   0.28036   0.16317   0.00000  Uiso   1.00
O271   O     0.28036  -0.00000   0.83683   0.00000  Uiso   1.00
O272   O     0.21964  -0.00000   0.16317   0.00000  Uiso   1.00
O273   O     0.00000   0.28036   0.83683   0.00000  Uiso   1.00
O274   O    -0.00000   0.21964   0.16317   0.00000  Uiso   1.00
O275   O     0.21964  -0.00000   0.83683   0.00000  Uiso   1.00
O276   O     0.25000  -0.00000   0.75000   0.00000  Uiso   1.00
O277   O     0.28036  -0.00000   0.16317   0.00000  Uiso   1.00
O278   O     0.20725   0.07307   0.27282   0.00000  Uiso   1.00
O279   O     0.29274   0.42693   0.72718   0.00000  Uiso   1.00
O280   O     0.42693   0.20725   0.27282   0.00000  Uiso   1.00
O281   O     0.07307   0.29274   0.72718   0.00000  Uiso   1.00
O282   O     0.29274   0.42693   0.27282   0.00000  Uiso   1.00
O283   O     0.20725   0.07307   0.72718   0.00000  Uiso   1.00
O284   O     0.07307   0.29274   0.27282   0.00000  Uiso   1.00
O285   O     0.42693   0.20725   0.72718   0.00000  Uiso   1.00
O286   O     0.20725   0.42693   0.72718   0.00000  Uiso   1.00
O287   O     0.00000   0.25000   0.25000   0.00000  Uiso   1.00
O288   O     0.29274   0.07307   0.27282   0.00000  Uiso   1.00
O289   O     0.42693   0.29274   0.72718   0.00000  Uiso   1.00
O290   O     0.07307   0.20725   0.27282   0.00000  Uiso   1.00
O291   O     0.29274   0.07307   0.72718   0.00000  Uiso   1.00
O292   O     0.20725   0.42693   0.27282   0.00000  Uiso   1.00
O293   O     0.07307   0.20725   0.72718   0.00000  Uiso   1.00
O294   O     0.42693   0.29274   0.27282   0.00000  Uiso   1.00
O295   O     0.45725   0.32307   0.77282   0.00000  Uiso   1.00
O296   O     0.04274   0.17693   0.22718   0.00000  Uiso   1.00
O297   O     0.17693   0.45725   0.77282   0.00000  Uiso   1.00
O298   O     0.00000   0.25000   0.75000   0.00000  Uiso   1.00
O299   O     0.32307   0.04274   0.22718   0.00000  Uiso   1.00
O300   O     0.04274   0.17693   0.77282   0.00000  Uiso   1.00
O301   O     0.45725   0.32307   0.22718   0.00000  Uiso   1.00
O302   O     0.32307   0.04274   0.77282   0.00000  Uiso   1.00
O303   O     0.17693   0.45725   0.22718   0.00000  Uiso   1.00
O304   O     0.45725   0.17693   0.22718   0.00000  Uiso   1.00
O305   O     0.04274   0.32307   0.77282   0.00000  Uiso   1.00
O306   O     0.17693   0.04274   0.22718   0.00000  Uiso   1.00
O307   O     0.32307   0.45725   0.77282   0.00000  Uiso   1.00
O308   O     0.04274   0.32307   0.22718   0.00000  Uiso   1.00
O309   O     0.25000   0.46964   0.33683   0.00000  Uiso   1.00
O310   O     0.45725   0.17693   0.77282   0.00000  Uiso   1.00
O311   O     0.32307   0.45725   0.22718   0.00000  Uiso   1.00
O312   O     0.17693   0.04274   0.77282   0.00000  Uiso   1.00
O313   O     0.25000   0.03036   0.66317   0.00000  Uiso   1.00
O314   O     0.03036   0.25000   0.33683   0.00000  Uiso   1.00
O315   O     0.46964   0.25000   0.66317   0.00000  Uiso   1.00
O316   O     0.25000   0.03036   0.33683   0.00000  Uiso   1.00
Zn317  Zn    0.20660  -0.00000   0.21760   0.00000  Uiso   1.00
Zn318  Zn    0.04340   0.25000   0.28240   0.00000  Uiso   1.00
Zn319  Zn    0.25000   0.45660   0.71760   0.00000  Uiso   1.00
Zn320  Zn    0.25000   0.04340   0.28240   0.00000  Uiso   1.00
Zn321  Zn    0.04340   0.25000   0.71760   0.00000  Uiso   1.00
Zn322  Zn    0.45660   0.25000   0.28240   0.00000  Uiso   1.00
Zn323  Zn    0.25000   0.04340   0.71760   0.00000  Uiso   1.00
Zn324  Zn    0.25000   0.45660   0.28240   0.00000  Uiso   1.00
Zn325  Zn    0.29340  -0.00000   0.78240   0.00000  Uiso   1.00
Zn326  Zn    0.00000   0.20660   0.21760   0.00000  Uiso   1.00
Zn327  Zn    0.00000   0.29340   0.78240   0.00000  Uiso   1.00
Zn328  Zn    0.29340  -0.00000   0.21760   0.00000  Uiso   1.00
Zn329  Zn    0.20660  -0.00000   0.78240   0.00000  Uiso   1.00
Zn330  Zn    0.00000   0.29340   0.21760   0.00000  Uiso   1.00
Zn331  Zn    0.00000   0.20660   0.78240   0.00000  Uiso   1.00
Zn332  Zn    0.45660   0.25000   0.71760   0.00000  Uiso   1.00
C333   C     0.72073   0.48428   0.04120   0.00000  Uiso   1.00
C334   C     0.52926   0.26573   0.45879   0.00000  Uiso   1.00
C335   C     0.84818   0.40196   0.74991   0.00000  Uiso   1.00
C336   C     0.90188   0.15188   0.25000   0.00000  Uiso   1.00
C337   C     0.59810   0.34814   0.74998   0.00000  Uiso   1.00
C338   C     0.84810   0.40187   0.24999   0.00000  Uiso   1.00
C339   C     0.65191   0.09815   0.75004   0.00000  Uiso   1.00
C340   C     0.59816   0.15194   0.75006   0.00000  Uiso   1.00
C341   C     0.90189   0.34812   0.24999   0.00000  Uiso   1.00
C342   C     0.65190   0.40188   0.74999   0.00000  Uiso   1.00
C343   C     0.84814   0.09809   0.25004   0.00000  Uiso   1.00
C344   C     0.90199   0.34823   0.74987   0.00000  Uiso   1.00
C345   C     0.76543   0.47056   0.54124   0.00000  Uiso   1.00
C346   C     0.59813   0.15189   0.25001   0.00000  Uiso   1.00
C347   C     0.84813   0.09810   0.75001   0.00000  Uiso   1.00
C348   C     0.65192   0.40184   0.24995   0.00000  Uiso   1.00
C349   C     0.74955   0.00060   0.10217   0.00000  Uiso   1.00
C350   C     0.75045   0.00061   0.89784   0.00000  Uiso   1.00
C351   C     0.50028   0.25007   0.10226   0.00000  Uiso   1.00
C352   C     0.99931   0.24969   0.89790   0.00000  Uiso   1.00
C353   C     0.99955   0.24938   0.60216   0.00000  Uiso   1.00
C354   C     0.50045   0.24940   0.39783   0.00000  Uiso   1.00
C355   C     0.74944   0.49959   0.60214   0.00000  Uiso   1.00
C356   C     0.76608   0.02912   0.45875   0.00000  Uiso   1.00
C357   C     0.74948   0.00043   0.39782   0.00000  Uiso   1.00
C358   C     0.65808   0.49083   0.10326   0.00000  Uiso   1.00
C359   C     0.84197   0.49147   0.89673   0.00000  Uiso   1.00
C360   C     0.92737   0.20274   0.11251   0.00000  Uiso   1.00
C361   C     0.92829   0.29946   0.88797   0.00000  Uiso   1.00
C362   C     0.79965   0.07142   0.11239   0.00000  Uiso   1.00
C363   C     0.69980   0.07107   0.88768   0.00000  Uiso   1.00
C364   C     0.57339   0.29682   0.11349   0.00000  Uiso   1.00
C365   C     0.50866   0.15825   0.89690   0.00000  Uiso   1.00
C366   C     0.90802   0.25840   0.60327   0.00000  Uiso   1.00
C367   C     0.52926   0.23535   0.54114   0.00000  Uiso   1.00
C368   C     0.59191   0.25925   0.39674   0.00000  Uiso   1.00
C369   C     0.75806   0.40802   0.60335   0.00000  Uiso   1.00
C370   C     0.76011   0.09182   0.39667   0.00000  Uiso   1.00
C371   C     0.55031   0.17898   0.61232   0.00000  Uiso   1.00
C372   C     0.95041   0.17854   0.38759   0.00000  Uiso   1.00
C373   C     0.67926   0.05069   0.61206   0.00000  Uiso   1.00
C374   C     0.67815   0.45109   0.38769   0.00000  Uiso   1.00
C375   C     0.97088   0.23510   0.45882   0.00000  Uiso   1.00
C376   C     0.73561   0.02935   0.54107   0.00000  Uiso   1.00
C377   C     0.73499   0.47098   0.45884   0.00000  Uiso   1.00
C378   C     0.72008   0.48484   0.08154   0.00000  Uiso   1.00
C379   C     0.78002   0.48504   0.91846   0.00000  Uiso   1.00
C380   C     0.98302   0.22161   0.08148   0.00000  Uiso   1.00
C381   C     0.77938   0.48448   0.95880   0.00000  Uiso   1.00
C382   C     0.98366   0.27919   0.91851   0.00000  Uiso   1.00
C383   C     0.77895   0.01631   0.08153   0.00000  Uiso   1.00
C384   C     0.72094   0.01612   0.91850   0.00000  Uiso   1.00
C385   C     0.51775   0.27865   0.08187   0.00000  Uiso   1.00
C386   C     0.51495   0.22024   0.91862   0.00000  Uiso   1.00
C387   C     0.96996   0.26490   0.58153   0.00000  Uiso   1.00
C388   C     0.52991   0.26518   0.41846   0.00000  Uiso   1.00
C389   C     0.76485   0.46992   0.58157   0.00000  Uiso   1.00
C390   C     0.76551   0.02976   0.41841   0.00000  Uiso   1.00
C391   C     0.52909   0.23390   0.58150   0.00000  Uiso   1.00
C392   C     0.98405   0.22170   0.04112   0.00000  Uiso   1.00
C393   C     0.97106   0.23366   0.41847   0.00000  Uiso   1.00
C394   C     0.73412   0.02919   0.58142   0.00000  Uiso   1.00
C395   C     0.73352   0.47118   0.41848   0.00000  Uiso   1.00
C396   C     0.75006   0.49920   0.02111   0.00000  Uiso   1.00
C397   C     0.74995   0.49920   0.97890   0.00000  Uiso   1.00
C398   C     0.50056   0.25036   0.02123   0.00000  Uiso   1.00
C399   C     0.50064   0.25045   0.97901   0.00000  Uiso   1.00
C400   C     0.50006   0.25078   0.52110   0.00000  Uiso   1.00
C401   C     0.99995   0.25078   0.47888   0.00000  Uiso   1.00
C402   C     0.75090   0.00007   0.52108   0.00000  Uiso   1.00
C403   C     0.98514   0.27954   0.95889   0.00000  Uiso   1.00
C404   C     0.75090   0.49993   0.47887   0.00000  Uiso   1.00
C405   C     0.74993   0.00008   0.35524   0.00000  Uiso   1.00
C406   C     0.74992   0.49992   0.64474   0.00000  Uiso   1.00
C407   C     0.50010   0.24992   0.35525   0.00000  Uiso   1.00
C408   C     0.99990   0.24991   0.64474   0.00000  Uiso   1.00
C409   C     0.99988   0.24994   0.85527   0.00000  Uiso   1.00
C410   C     0.50006   0.25001   0.14479   0.00000  Uiso   1.00
C411   C     0.75009   0.00009   0.85525   0.00000  Uiso   1.00
C412   C     0.74990   0.00009   0.14475   0.00000  Uiso   1.00
C413   C     0.67994   0.07005   0.25000   0.00000  Uiso   1.00
C414   C     0.77914   0.01486   0.04117   0.00000  Uiso   1.00
C415   C     0.82007   0.42996   0.74998   0.00000  Uiso   1.00
C416   C     0.92995   0.17994   0.24999   0.00000  Uiso   1.00
C417   C     0.57004   0.32006   0.75000   0.00000  Uiso   1.00
C418   C     0.82005   0.42994   0.25000   0.00000  Uiso   1.00
C419   C     0.67995   0.07006   0.75001   0.00000  Uiso   1.00
C420   C     0.57006   0.32006   0.25001   0.00000  Uiso   1.00
C421   C     0.92993   0.17996   0.75000   0.00000  Uiso   1.00
C422   C     0.67995   0.42994   0.74999   0.00000  Uiso   1.00
C423   C     0.82006   0.07005   0.25001   0.00000  Uiso   1.00
C424   C     0.92997   0.32009   0.74996   0.00000  Uiso   1.00
C425   C     0.72076   0.01467   0.95886   0.00000  Uiso   1.00
C426   C     0.57006   0.17995   0.25000   0.00000  Uiso   1.00
C427   C     0.82006   0.07005   0.75001   0.00000  Uiso   1.00
C428   C     0.67995   0.42993   0.24998   0.00000  Uiso   1.00
C429   C     0.57006   0.17996   0.75002   0.00000  Uiso   1.00
C430   C     0.92995   0.32005   0.25000   0.00000  Uiso   1.00
C431   C     0.62783   0.39881   0.21850   0.00000  Uiso   1.00
C432   C     0.87025   0.10309   0.78278   0.00000  Uiso   1.00
C433   C     0.60308   0.12983   0.21722   0.00000  Uiso   1.00
C434   C     0.89842   0.37173   0.78174   0.00000  Uiso   1.00
C435   C     0.87278   0.10049   0.21906   0.00000  Uiso   1.00
C436   C     0.51694   0.27887   0.04149   0.00000  Uiso   1.00
C437   C     0.62988   0.39689   0.78277   0.00000  Uiso   1.00
C438   C     0.89679   0.37010   0.21718   0.00000  Uiso   1.00
C439   C     0.60034   0.12701   0.78082   0.00000  Uiso   1.00
C440   C     0.62697   0.10027   0.78077   0.00000  Uiso   1.00
C441   C     0.87006   0.39681   0.21718   0.00000  Uiso   1.00
C442   C     0.60315   0.37020   0.78276   0.00000  Uiso   1.00
C443   C     0.89945   0.12718   0.21904   0.00000  Uiso   1.00
C444   C     0.87163   0.39832   0.78182   0.00000  Uiso   1.00
C445   C     0.62979   0.10310   0.21723   0.00000  Uiso   1.00
C446   C     0.89695   0.12983   0.78278   0.00000  Uiso   1.00
C447   C     0.51544   0.22100   0.95898   0.00000  Uiso   1.00
C448   C     0.60109   0.37217   0.21855   0.00000  Uiso   1.00
C449   C     0.87974   0.14692   0.71725   0.00000  Uiso   1.00
C450   C     0.62221   0.35115   0.28145   0.00000  Uiso   1.00
C451   C     0.85190   0.37865   0.71790   0.00000  Uiso   1.00
C452   C     0.64692   0.12017   0.28279   0.00000  Uiso   1.00
C453   C     0.62012   0.35312   0.71720   0.00000  Uiso   1.00
C454   C     0.87725   0.14947   0.28099   0.00000  Uiso   1.00
C455   C     0.64982   0.12317   0.71937   0.00000  Uiso   1.00
C456   C     0.85320   0.37989   0.28280   0.00000  Uiso   1.00
C457   C     0.87993   0.35318   0.28281   0.00000  Uiso   1.00
C458   C     0.97061   0.26546   0.54119   0.00000  Uiso   1.00
C459   C     0.62313   0.14984   0.71936   0.00000  Uiso   1.00
C460   C     0.85063   0.12273   0.28104   0.00000  Uiso   1.00
C461   C     0.64685   0.37982   0.71720   0.00000  Uiso   1.00
C462   C     0.62022   0.14690   0.28279   0.00000  Uiso   1.00
C463   C     0.87860   0.35194   0.71790   0.00000  Uiso   1.00
C464   C     0.64896   0.37777   0.28139   0.00000  Uiso   1.00
C465   C     0.85305   0.12019   0.71725   0.00000  Uiso   1.00
C466   C     0.59811   0.34812   0.25000   0.00000  Uiso   1.00
C467   C     0.90186   0.15191   0.75001   0.00000  Uiso   1.00
C468   C     0.65187   0.09810   0.25001   0.00000  Uiso   1.00
F469   F     0.63048   0.42108   0.18724   0.00000  Uiso   1.00
F470   F     0.86518   0.41707   0.18470   0.00000  Uiso   1.00
F471   F     0.58286   0.36543   0.81521   0.00000  Uiso   1.00
F472   F     0.92241   0.12907   0.18832   0.00000  Uiso   1.00
F473   F     0.86829   0.41995   0.81352   0.00000  Uiso   1.00
F474   F     0.63453   0.08275   0.18478   0.00000  Uiso   1.00
F475   F     0.91734   0.13460   0.81522   0.00000  Uiso   1.00
F476   F     0.57860   0.36967   0.18742   0.00000  Uiso   1.00
F477   F     0.88445   0.16727   0.68482   0.00000  Uiso   1.00
F478   F     0.61957   0.32888   0.31271   0.00000  Uiso   1.00
F479   F     0.83029   0.38210   0.68617   0.00000  Uiso   1.00
F480   F     0.86555   0.08273   0.81521   0.00000  Uiso   1.00
F481   F     0.66729   0.11539   0.31524   0.00000  Uiso   1.00
F482   F     0.61528   0.33279   0.68475   0.00000  Uiso   1.00
F483   F     0.87913   0.17253   0.31166   0.00000  Uiso   1.00
F484   F     0.67317   0.12168   0.68895   0.00000  Uiso   1.00
F485   F     0.83296   0.38474   0.31528   0.00000  Uiso   1.00
F486   F     0.88481   0.33292   0.31528   0.00000  Uiso   1.00
F487   F     0.62160   0.17320   0.68894   0.00000  Uiso   1.00
F488   F     0.82780   0.12068   0.31187   0.00000  Uiso   1.00
F489   F     0.66715   0.38459   0.68476   0.00000  Uiso   1.00
F490   F     0.61548   0.16725   0.31524   0.00000  Uiso   1.00
F491   F     0.58273   0.13461   0.18477   0.00000  Uiso   1.00
F492   F     0.88198   0.33032   0.68619   0.00000  Uiso   1.00
F493   F     0.67149   0.38023   0.31249   0.00000  Uiso   1.00
F494   F     0.83266   0.11541   0.68481   0.00000  Uiso   1.00
F495   F     0.92040   0.36871   0.81321   0.00000  Uiso   1.00
F496   F     0.87091   0.07742   0.18839   0.00000  Uiso   1.00
F497   F     0.63471   0.41722   0.81522   0.00000  Uiso   1.00
F498   F     0.91702   0.36525   0.18471   0.00000  Uiso   1.00
F499   F     0.57720   0.12874   0.81141   0.00000  Uiso   1.00
F500   F     0.62852   0.07692   0.81120   0.00000  Uiso   1.00
H501   H     0.69833   0.47194   0.02547   0.00000  Uiso   1.00
H502   H     0.55166   0.27808   0.47452   0.00000  Uiso   1.00
H503   H     0.77749   0.44800   0.52556   0.00000  Uiso   1.00
H504   H     0.77862   0.05142   0.47445   0.00000  Uiso   1.00
H505   H     0.55173   0.22335   0.52529   0.00000  Uiso   1.00
H506   H     0.94851   0.22290   0.47466   0.00000  Uiso   1.00
H507   H     0.72373   0.05188   0.52516   0.00000  Uiso   1.00
H508   H     0.72260   0.44873   0.47471   0.00000  Uiso   1.00
H509   H     0.68438   0.44253   0.09079   0.00000  Uiso   1.00
H510   H     0.64649   0.49519   0.07390   0.00000  Uiso   1.00
H511   H     0.66464   0.01764   0.11649   0.00000  Uiso   1.00
H512   H     0.80186   0.47230   0.97452   0.00000  Uiso   1.00
H513   H     0.63730   0.47717   0.12152   0.00000  Uiso   1.00
H514   H     0.81603   0.44298   0.90922   0.00000  Uiso   1.00
H515   H     0.85354   0.49593   0.92608   0.00000  Uiso   1.00
H516   H     0.83521   0.01822   0.88349   0.00000  Uiso   1.00
H517   H     0.86285   0.47794   0.87847   0.00000  Uiso   1.00
H518   H     0.96477   0.16851   0.08651   0.00000  Uiso   1.00
H519   H     0.91023   0.20831   0.08664   0.00000  Uiso   1.00
H520   H     0.92760   0.22712   0.13154   0.00000  Uiso   1.00
H521   H     0.91514   0.17979   0.12889   0.00000  Uiso   1.00
H522   H     0.96710   0.33281   0.91304   0.00000  Uiso   1.00
H523   H     0.97092   0.19992   0.02514   0.00000  Uiso   1.00
H524   H     0.91149   0.29423   0.91412   0.00000  Uiso   1.00
H525   H     0.92757   0.27515   0.86884   0.00000  Uiso   1.00
H526   H     0.91632   0.32276   0.87194   0.00000  Uiso   1.00
H527   H     0.83268   0.03266   0.08683   0.00000  Uiso   1.00
H528   H     0.79463   0.08853   0.08639   0.00000  Uiso   1.00
H529   H     0.82301   0.08301   0.12869   0.00000  Uiso   1.00
H530   H     0.77529   0.07213   0.13140   0.00000  Uiso   1.00
H531   H     0.66709   0.03206   0.91322   0.00000  Uiso   1.00
H532   H     0.70466   0.08823   0.91369   0.00000  Uiso   1.00
H533   H     0.67638   0.08247   0.87135   0.00000  Uiso   1.00
H534   H     0.97304   0.30199   0.97470   0.00000  Uiso   1.00
H535   H     0.72418   0.07197   0.86870   0.00000  Uiso   1.00
H536   H     0.53638   0.33157   0.08753   0.00000  Uiso   1.00
H537   H     0.59053   0.29115   0.08769   0.00000  Uiso   1.00
H538   H     0.57285   0.27239   0.13242   0.00000  Uiso   1.00
H539   H     0.58582   0.31959   0.13001   0.00000  Uiso   1.00
H540   H     0.55708   0.18428   0.90958   0.00000  Uiso   1.00
H541   H     0.50415   0.14674   0.92625   0.00000  Uiso   1.00
H542   H     0.52225   0.13735   0.87872   0.00000  Uiso   1.00
H543   H     0.98192   0.16494   0.88356   0.00000  Uiso   1.00
H544   H     0.93389   0.30692   0.59076   0.00000  Uiso   1.00
H545   H     0.80151   0.02704   0.02533   0.00000  Uiso   1.00
H546   H     0.89646   0.25391   0.57392   0.00000  Uiso   1.00
H547   H     0.88713   0.27191   0.62152   0.00000  Uiso   1.00
H548   H     0.91482   0.23167   0.61651   0.00000  Uiso   1.00
H549   H     0.56556   0.30753   0.40921   0.00000  Uiso   1.00
H550   H     0.60351   0.25491   0.42610   0.00000  Uiso   1.00
H551   H     0.61268   0.27293   0.37848   0.00000  Uiso   1.00
H552   H     0.58538   0.23243   0.38351   0.00000  Uiso   1.00
H553   H     0.80670   0.43367   0.59091   0.00000  Uiso   1.00
H554   H     0.75354   0.39648   0.57400   0.00000  Uiso   1.00
H555   H     0.73134   0.41493   0.61654   0.00000  Uiso   1.00
H556   H     0.69830   0.02669   0.97471   0.00000  Uiso   1.00
H557   H     0.77146   0.38706   0.62165   0.00000  Uiso   1.00
H558   H     0.80817   0.06501   0.40908   0.00000  Uiso   1.00
H559   H     0.75594   0.10344   0.42604   0.00000  Uiso   1.00
H560   H     0.73319   0.08554   0.38350   0.00000  Uiso   1.00
H561   H     0.77394   0.11246   0.37838   0.00000  Uiso   1.00
H562   H     0.58296   0.21804   0.58678   0.00000  Uiso   1.00
H563   H     0.54548   0.16182   0.58631   0.00000  Uiso   1.00
H564   H     0.52592   0.17804   0.63129   0.00000  Uiso   1.00
H565   H     0.57375   0.16763   0.62865   0.00000  Uiso   1.00
H566   H     0.91736   0.21726   0.41317   0.00000  Uiso   1.00
H567   H     0.53018   0.30074   0.02581   0.00000  Uiso   1.00
H568   H     0.95546   0.16143   0.41357   0.00000  Uiso   1.00
H569   H     0.97477   0.17786   0.36857   0.00000  Uiso   1.00
H570   H     0.92707   0.16693   0.37129   0.00000  Uiso   1.00
H571   H     0.71855   0.08314   0.58662   0.00000  Uiso   1.00
H572   H     0.66211   0.04598   0.58600   0.00000  Uiso   1.00
H573   H     0.66801   0.07419   0.62835   0.00000  Uiso   1.00
H574   H     0.67815   0.02631   0.63104   0.00000  Uiso   1.00
H575   H     0.71660   0.41764   0.41322   0.00000  Uiso   1.00
H576   H     0.66117   0.45637   0.41370   0.00000  Uiso   1.00
H577   H     0.66623   0.42785   0.37150   0.00000  Uiso   1.00
H578   H     0.52763   0.19857   0.97477   0.00000  Uiso   1.00
H579   H     0.67767   0.47542   0.36860   0.00000  Uiso   1.00
H580   H     0.94811   0.27762   0.52547   0.00000  Uiso   1.00
N581   N     0.69033   0.46823   0.10111   0.00000  Uiso   1.00
N582   N     0.55965   0.28182   0.39889   0.00000  Uiso   1.00
N583   N     0.78108   0.43995   0.60119   0.00000  Uiso   1.00
N584   N     0.78238   0.05935   0.39880   0.00000  Uiso   1.00
N585   N     0.55831   0.21606   0.60094   0.00000  Uiso   1.00
N586   N     0.94203   0.21554   0.39900   0.00000  Uiso   1.00
N587   N     0.71641   0.05850   0.60079   0.00000  Uiso   1.00
N588   N     0.71508   0.44233   0.39904   0.00000  Uiso   1.00
N589   N     0.80990   0.46863   0.89889   0.00000  Uiso   1.00
N590   N     0.96398   0.19316   0.10085   0.00000  Uiso   1.00
N591   N     0.96535   0.30805   0.89900   0.00000  Uiso   1.00
N592   N     0.80800   0.03441   0.10099   0.00000  Uiso   1.00
N593   N     0.69174   0.03401   0.89906   0.00000  Uiso   1.00
N594   N     0.53690   0.30681   0.10165   0.00000  Uiso   1.00
N595   N     0.53145   0.19035   0.89914   0.00000  Uiso   1.00
N596   N     0.94006   0.28128   0.60110   0.00000  Uiso   1.00
O597   O     0.75000  -0.00000   0.25000   0.00000  Uiso   1.00
O598   O     0.75000   0.46964   0.66317   0.00000  Uiso   1.00
O599   O     0.96964   0.25000   0.33683   0.00000  Uiso   1.00
O600   O     0.53036   0.25000   0.66317   0.00000  Uiso   1.00
O601   O     0.50000   0.21964   0.83683   0.00000  Uiso   1.00
O602   O     0.50000   0.28036   0.16317   0.00000  Uiso   1.00
O603   O     0.78036  -0.00000   0.83683   0.00000  Uiso   1.00
O604   O     0.71964  -0.00000   0.16317   0.00000  Uiso   1.00
O605   O     0.50000   0.28036   0.83683   0.00000  Uiso   1.00
O606   O     0.50000   0.21964   0.16317   0.00000  Uiso   1.00
O607   O     0.71964  -0.00000   0.83683   0.00000  Uiso   1.00
O608   O     0.75000  -0.00000   0.75000   0.00000  Uiso   1.00
O609   O     0.78036  -0.00000   0.16317   0.00000  Uiso   1.00
O610   O     0.70725   0.07307   0.27282   0.00000  Uiso   1.00
O611   O     0.79274   0.42693   0.72718   0.00000  Uiso   1.00
O612   O     0.92693   0.20725   0.27282   0.00000  Uiso   1.00
O613   O     0.57307   0.29274   0.72718   0.00000  Uiso   1.00
O614   O     0.79274   0.42693   0.27282   0.00000  Uiso   1.00
O615   O     0.70725   0.07307   0.72718   0.00000  Uiso   1.00
O616   O     0.57307   0.29274   0.27282   0.00000  Uiso   1.00
O617   O     0.92693   0.20725   0.72718   0.00000  Uiso   1.00
O618   O     0.70725   0.42693   0.72718   0.00000  Uiso   1.00
O619   O     0.50000   0.25000   0.25000   0.00000  Uiso   1.00
O620   O     0.79274   0.07307   0.27282   0.00000  Uiso   1.00
O621   O     0.92693   0.29274   0.72718   0.00000  Uiso   1.00
O622   O     0.57307   0.20725   0.27282   0.00000  Uiso   1.00
O623   O     0.79274   0.07307   0.72718   0.00000  Uiso   1.00
O624   O     0.70725   0.42693   0.27282   0.00000  Uiso   1.00
O625   O     0.57307   0.20725   0.72718   0.00000  Uiso   1.00
O626   O     0.92693   0.29274   0.27282   0.00000  Uiso   1.00
O627   O     0.95725   0.32307   0.77282   0.00000  Uiso   1.00
O628   O     0.54274   0.17693   0.22718   0.00000  Uiso   1.00
O629   O     0.67693   0.45725   0.77282   0.00000  Uiso   1.00
O630   O     0.50000   0.25000   0.75000   0.00000  Uiso   1.00
O631   O     0.82307   0.04274   0.22718   0.00000  Uiso   1.00
O632   O     0.54274   0.17693   0.77282   0.00000  Uiso   1.00
O633   O     0.95725   0.32307   0.22718   0.00000  Uiso   1.00
O634   O     0.82307   0.04274   0.77282   0.00000  Uiso   1.00
O635   O     0.67693   0.45725   0.22718   0.00000  Uiso   1.00
O636   O     0.95725   0.17693   0.22718   0.00000  Uiso   1.00
O637   O     0.54274   0.32307   0.77282   0.00000  Uiso   1.00
O638   O     0.67693   0.04274   0.22718   0.00000  Uiso   1.00
O639   O     0.82307   0.45725   0.77282   0.00000  Uiso   1.00
O640   O     0.54274   0.32307   0.22718   0.00000  Uiso   1.00
O641   O     0.75000   0.46964   0.33683   0.00000  Uiso   1.00
O642   O     0.95725   0.17693   0.77282   0.00000  Uiso   1.00
O643   O     0.82307   0.45725   0.22718   0.00000  Uiso   1.00
O644   O     0.67693   0.04274   0.77282   0.00000  Uiso   1.00
O645   O     0.75000   0.03036   0.66317   0.00000  Uiso   1.00
O646   O     0.53036   0.25000   0.33683   0.00000  Uiso   1.00
O647   O     0.96964   0.25000   0.66317   0.00000  Uiso   1.00
O648   O     0.75000   0.03036   0.33683   0.00000  Uiso   1.00
Zn649  Zn    0.70660  -0.00000   0.21760   0.00000  Uiso   1.00
Zn650  Zn    0.54340   0.25000   0.28240   0.00000  Uiso   1.00
Zn651  Zn    0.75000   0.45660   0.71760   0.00000  Uiso   1.00
Zn652  Zn    0.75000   0.04340   0.28240   0.00000  Uiso   1.00
Zn653  Zn    0.54340   0.25000   0.71760   0.00000  Uiso   1.00
Zn654  Zn    0.95660   0.25000   0.28240   0.00000  Uiso   1.00
Zn655  Zn    0.75000   0.04340   0.71760   0.00000  Uiso   1.00
Zn656  Zn    0.75000   0.45660   0.28240   0.00000  Uiso   1.00
Zn657  Zn    0.79340  -0.00000   0.78240   0.00000  Uiso   1.00
Zn658  Zn    0.50000   0.20660   0.21760   0.00000  Uiso   1.00
Zn659  Zn    0.50000   0.29340   0.78240   0.00000  Uiso   1.00
Zn660  Zn    0.79340  -0.00000   0.21760   0.00000  Uiso   1.00
Zn661  Zn    0.70660  -0.00000   0.78240   0.00000  Uiso   1.00
Zn662  Zn    0.50000   0.29340   0.21760   0.00000  Uiso   1.00
Zn663  Zn    0.50000   0.20660   0.78240   0.00000  Uiso   1.00
Zn664  Zn    0.95660   0.25000   0.71760   0.00000  Uiso   1.00
C665   C     0.22073   0.98428   0.04120   0.00000  Uiso   1.00
C666   C     0.02926   0.76573   0.45879   0.00000  Uiso   1.00
C667   C     0.34818   0.90196   0.74991   0.00000  Uiso   1.00
C668   C     0.40188   0.65188   0.25000   0.00000  Uiso   1.00
C669   C     0.09810   0.84814   0.74998   0.00000  Uiso   1.00
C670   C     0.34810   0.90187   0.24999   0.00000  Uiso   1.00
C671   C     0.15191   0.59815   0.75004   0.00000  Uiso   1.00
C672   C     0.09816   0.65194   0.75006   0.00000  Uiso   1.00
C673   C     0.40189   0.84812   0.24999   0.00000  Uiso   1.00
C674   C     0.15190   0.90188   0.74999   0.00000  Uiso   1.00
C675   C     0.34814   0.59809   0.25004   0.00000  Uiso   1.00
C676   C     0.40199   0.84823   0.74987   0.00000  Uiso   1.00
C677   C     0.26543   0.97056   0.54124   0.00000  Uiso   1.00
C678   C     0.09813   0.65189   0.25001   0.00000  Uiso   1.00
C679   C     0.34813   0.59810   0.75001   0.00000  Uiso   1.00
C680   C     0.15192   0.90184   0.24995   0.00000  Uiso   1.00
C681   C     0.24955   0.50060   0.10217   0.00000  Uiso   1.00
C682   C     0.25045   0.50061   0.89784   0.00000  Uiso   1.00
C683   C     0.00028   0.75007   0.10226   0.00000  Uiso   1.00
C684   C     0.49931   0.74969   0.89790   0.00000  Uiso   1.00
C685   C     0.49955   0.74938   0.60216   0.00000  Uiso   1.00
C686   C     0.00045   0.74940   0.39783   0.00000  Uiso   1.00
C687   C     0.24944   0.99959   0.60214   0.00000  Uiso   1.00
C688   C     0.26608   0.52912   0.45875   0.00000  Uiso   1.00
C689   C     0.24948   0.50043   0.39782   0.00000  Uiso   1.00
C690   C     0.15808   0.99083   0.10326   0.00000  Uiso   1.00
C691   C     0.34197   0.99147   0.89673   0.00000  Uiso   1.00
C692   C     0.42737   0.70274   0.11251   0.00000  Uiso   1.00
C693   C     0.42829   0.79946   0.88797   0.00000  Uiso   1.00
C694   C     0.29965   0.57142   0.11239   0.00000  Uiso   1.00
C695   C     0.19980   0.57107   0.88768   0.00000  Uiso   1.00
C696   C     0.07339   0.79682   0.11349   0.00000  Uiso   1.00
C697   C     0.00866   0.65825   0.89690   0.00000  Uiso   1.00
C698   C     0.40802   0.75840   0.60327   0.00000  Uiso   1.00
C699   C     0.02926   0.73535   0.54114   0.00000  Uiso   1.00
C700   C     0.09191   0.75925   0.39674   0.00000  Uiso   1.00
C701   C     0.25806   0.90802   0.60335   0.00000  Uiso   1.00
C702   C     0.26011   0.59182   0.39667   0.00000  Uiso   1.00
C703   C     0.05031   0.67898   0.61232   0.00000  Uiso   1.00
C704   C     0.45041   0.67854   0.38759   0.00000  Uiso   1.00
C705   C     0.17926   0.55069   0.61206   0.00000  Uiso   1.00
C706   C     0.17815   0.95109   0.38769   0.00000  Uiso   1.00
C707   C     0.47088   0.73510   0.45882   0.00000  Uiso   1.00
C708   C     0.23561   0.52935   0.54107   0.00000  Uiso   1.00
C709   C     0.23499   0.97098   0.45884   0.00000  Uiso   1.00
C710   C     0.22008   0.98484   0.08154   0.00000  Uiso   1.00
C711   C     0.28002   0.98504   0.91846   0.00000  Uiso   1.00
C712   C     0.48302   0.72161   0.08148   0.00000  Uiso   1.00
C713   C     0.27938   0.98448   0.95880   0.00000  Uiso   1.00
C714   C     0.48366   0.77919   0.91851   0.00000  Uiso   1.00
C715   C     0.27895   0.51631   0.08153   0.00000  Uiso   1.00
C716   C     0.22094   0.51612   0.91850   0.00000  Uiso   1.00
C717   C     0.01775   0.77865   0.08187   0.00000  Uiso   1.00
C718   C     0.01495   0.72024   0.91862   0.00000  Uiso   1.00
C719   C     0.46996   0.76490   0.58153   0.00000  Uiso   1.00
C720   C     0.02991   0.76518   0.41846   0.00000  Uiso   1.00
C721   C     0.26485   0.96992   0.58157   0.00000  Uiso   1.00
C722   C     0.26551   0.52976   0.41841   0.00000  Uiso   1.00
C723   C     0.02909   0.73390   0.58150   0.00000  Uiso   1.00
C724   C     0.48405   0.72170   0.04112   0.00000  Uiso   1.00
C725   C     0.47106   0.73366   0.41847   0.00000  Uiso   1.00
C726   C     0.23412   0.52919   0.58142   0.00000  Uiso   1.00
C727   C     0.23352   0.97118   0.41848   0.00000  Uiso   1.00
C728   C     0.25006   0.99920   0.02111   0.00000  Uiso   1.00
C729   C     0.24995   0.99920   0.97890   0.00000  Uiso   1.00
C730   C     0.00056   0.75036   0.02123   0.00000  Uiso   1.00
C731   C     0.00064   0.75045   0.97901   0.00000  Uiso   1.00
C732   C     0.00006   0.75078   0.52110   0.00000  Uiso   1.00
C733   C     0.49995   0.75078   0.47888   0.00000  Uiso   1.00
C734   C     0.25090   0.50007   0.52108   0.00000  Uiso   1.00
C735   C     0.48514   0.77954   0.95889   0.00000  Uiso   1.00
C736   C     0.25090   0.99993   0.47887   0.00000  Uiso   1.00
C737   C     0.24993   0.50008   0.35524   0.00000  Uiso   1.00
C738   C     0.24992   0.99992   0.64474   0.00000  Uiso   1.00
C739   C     0.00010   0.74992   0.35525   0.00000  Uiso   1.00
C740   C     0.49990   0.74991   0.64474   0.00000  Uiso   1.00
C741   C     0.49988   0.74994   0.85527   0.00000  Uiso   1.00
C742   C     0.00006   0.75001   0.14479   0.00000  Uiso   1.00
C743   C     0.25009   0.50009   0.85525   0.00000  Uiso   1.00
C744   C     0.24990   0.50009   0.14475   0.00000  Uiso   1.00
C745   C     0.17994   0.57005   0.25000   0.00000  Uiso   1.00
C746   C     0.27914   0.51486   0.04117   0.00000  Uiso   1.00
C747   C     0.32007   0.92996   0.74998   0.00000  Uiso   1.00
C748   C     0.42995   0.67994   0.24999   0.00000  Uiso   1.00
C749   C     0.07004   0.82006   0.75000   0.00000  Uiso   1.00
C750   C     0.32005   0.92994   0.25000   0.00000  Uiso   1.00
C751   C     0.17995   0.57006   0.75001   0.00000  Uiso   1.00
C752   C     0.07006   0.82006   0.25001   0.00000  Uiso   1.00
C753   C     0.42993   0.67996   0.75000   0.00000  Uiso   1.00
C754   C     0.17995   0.92994   0.74999   0.00000  Uiso   1.00
C755   C     0.32006   0.57005   0.25001   0.00000  Uiso   1.00
C756   C     0.42997   0.82009   0.74996   0.00000  Uiso   1.00
C757   C     0.22076   0.51467   0.95886   0.00000  Uiso   1.00
C758   C     0.07006   0.67995   0.25000   0.00000  Uiso   1.00
C759   C     0.32006   0.57005   0.75001   0.00000  Uiso   1.00
C760   C     0.17995   0.92993   0.24998   0.00000  Uiso   1.00
C761   C     0.07006   0.67996   0.75002   0.00000  Uiso   1.00
C762   C     0.42995   0.82005   0.25000   0.00000  Uiso   1.00
C763   C     0.12783   0.89881   0.21850   0.00000  Uiso   1.00
C764   C     0.37025   0.60309   0.78278   0.00000  Uiso   1.00
C765   C     0.10308   0.62983   0.21722   0.00000  Uiso   1.00
C766   C     0.39842   0.87173   0.78174   0.00000  Uiso   1.00
C767   C     0.37278   0.60049   0.21906   0.00000  Uiso   1.00
C768   C     0.01694   0.77887   0.04149   0.00000  Uiso   1.00
C769   C     0.12988   0.89689   0.78277   0.00000  Uiso   1.00
C770   C     0.39679   0.87010   0.21718   0.00000  Uiso   1.00
C771   C     0.10034   0.62701   0.78082   0.00000  Uiso   1.00
C772   C     0.12697   0.60027   0.78077   0.00000  Uiso   1.00
C773   C     0.37006   0.89681   0.21718   0.00000  Uiso   1.00
C774   C     0.10315   0.87020   0.78276   0.00000  Uiso   1.00
C775   C     0.39945   0.62718   0.21904   0.00000  Uiso   1.00
C776   C     0.37163   0.89832   0.78182   0.00000  Uiso   1.00
C777   C     0.12979   0.60310   0.21723   0.00000  Uiso   1.00
C778   C     0.39695   0.62983   0.78278   0.00000  Uiso   1.00
C779   C     0.01544   0.72100   0.95898   0.00000  Uiso   1.00
C780   C     0.10109   0.87217   0.21855   0.00000  Uiso   1.00
C781   C     0.37974   0.64692   0.71725   0.00000  Uiso   1.00
C782   C     0.12221   0.85115   0.28145   0.00000  Uiso   1.00
C783   C     0.35190   0.87865   0.71790   0.00000  Uiso   1.00
C784   C     0.14692   0.62017   0.28279   0.00000  Uiso   1.00
C785   C     0.12012   0.85312   0.71720   0.00000  Uiso   1.00
C786   C     0.37725   0.64947   0.28099   0.00000  Uiso   1.00
C787   C     0.14982   0.62317   0.71937   0.00000  Uiso   1.00
C788   C     0.35320   0.87989   0.28280   0.00000  Uiso   1.00
C789   C     0.37993   0.85318   0.28281   0.00000  Uiso   1.00
C790   C     0.47061   0.76546   0.54119   0.00000  Uiso   1.00
C791   C     0.12313   0.64984   0.71936   0.00000  Uiso   1.00
C792   C     0.35063   0.62273   0.28104   0.00000  Uiso   1.00
C793   C     0.14685   0.87982   0.71720   0.00000  Uiso   1.00
C794   C     0.12022   0.64690   0.28279   0.00000  Uiso   1.00
C795   C     0.37860   0.85194   0.71790   0.00000  Uiso   1.00
C796   C     0.14896   0.87777   0.28139   0.00000  Uiso   1.00
C797   C     0.35305   0.62019   0.71725   0.00000  Uiso   1.00
C798   C     0.09811   0.84812   0.25000   0.00000  Uiso   1.00
C799   C     0.40186   0.65191   0.75001   0.00000  Uiso   1.00
C800   C     0.15187   0.59810   0.25001   0.00000  Uiso   1.00
F801   F     0.13048   0.92108   0.18724   0.00000  Uiso   1.00
F802   F     0.36518   0.91707   0.18470   0.00000  Uiso   1.00
F803   F     0.08286   0.86543   0.81521   0.00000  Uiso   1.00
F804   F     0.42241   0.62907   0.18832   0.00000  Uiso   1.00
F805   F     0.36829   0.91995   0.81352   0.00000  Uiso   1.00
F806   F     0.13453   0.58275   0.18478   0.00000  Uiso   1.00
F807   F     0.41734   0.63460   0.81522   0.00000  Uiso   1.00
F808   F     0.07860   0.86967   0.18742   0.00000  Uiso   1.00
F809   F     0.38445   0.66727   0.68482   0.00000  Uiso   1.00
F810   F     0.11957   0.82888   0.31271   0.00000  Uiso   1.00
F811   F     0.33029   0.88210   0.68617   0.00000  Uiso   1.00
F812   F     0.36555   0.58273   0.81521   0.00000  Uiso   1.00
F813   F     0.16729   0.61539   0.31524   0.00000  Uiso   1.00
F814   F     0.11528   0.83279   0.68475   0.00000  Uiso   1.00
F815   F     0.37913   0.67253   0.31166   0.00000  Uiso   1.00
F816   F     0.17317   0.62168   0.68895   0.00000  Uiso   1.00
F817   F     0.33296   0.88474   0.31528   0.00000  Uiso   1.00
F818   F     0.38481   0.83292   0.31528   0.00000  Uiso   1.00
F819   F     0.12160   0.67320   0.68894   0.00000  Uiso   1.00
F820   F     0.32780   0.62068   0.31187   0.00000  Uiso   1.00
F821   F     0.16715   0.88459   0.68476   0.00000  Uiso   1.00
F822   F     0.11548   0.66725   0.31524   0.00000  Uiso   1.00
F823   F     0.08273   0.63461   0.18477   0.00000  Uiso   1.00
F824   F     0.38198   0.83032   0.68619   0.00000  Uiso   1.00
F825   F     0.17149   0.88023   0.31249   0.00000  Uiso   1.00
F826   F     0.33266   0.61541   0.68481   0.00000  Uiso   1.00
F827   F     0.42040   0.86871   0.81321   0.00000  Uiso   1.00
F828   F     0.37091   0.57742   0.18839   0.00000  Uiso   1.00
F829   F     0.13471   0.91722   0.81522   0.00000  Uiso   1.00
F830   F     0.41702   0.86525   0.18471   0.00000  Uiso   1.00
F831   F     0.07720   0.62874   0.81141   0.00000  Uiso   1.00
F832   F     0.12852   0.57692   0.81120   0.00000  Uiso   1.00
H833   H     0.19833   0.97194   0.02547   0.00000  Uiso   1.00
H834   H     0.05166   0.77808   0.47452   0.00000  Uiso   1.00
H835   H     0.27749   0.94800   0.52556   0.00000  Uiso   1.00
H836   H     0.27862   0.55142   0.47445   0.00000  Uiso   1.00
H837   H     0.05173   0.72335   0.52529   0.00000  Uiso   1.00
H838   H     0.44851   0.72290   0.47466   0.00000  Uiso   1.00
H839   H     0.22373   0.55188   0.52516   0.00000  Uiso   1.00
H840   H     0.22260   0.94873   0.47471   0.00000  Uiso   1.00
H841   H     0.18438   0.94253   0.09079   0.00000  Uiso   1.00
H842   H     0.14649   0.99519   0.07390   0.00000  Uiso   1.00
H843   H     0.16464   0.51764   0.11649   0.00000  Uiso   1.00
H844   H     0.30186   0.97230   0.97452   0.00000  Uiso   1.00
H845   H     0.13730   0.97717   0.12152   0.00000  Uiso   1.00
H846   H     0.31603   0.94298   0.90922   0.00000  Uiso   1.00
H847   H     0.35354   0.99593   0.92608   0.00000  Uiso   1.00
H848   H     0.33521   0.51822   0.88349   0.00000  Uiso   1.00
H849   H     0.36285   0.97794   0.87847   0.00000  Uiso   1.00
H850   H     0.46477   0.66851   0.08651   0.00000  Uiso   1.00
H851   H     0.41023   0.70831   0.08664   0.00000  Uiso   1.00
H852   H     0.42760   0.72712   0.13154   0.00000  Uiso   1.00
H853   H     0.41514   0.67979   0.12889   0.00000  Uiso   1.00
H854   H     0.46710   0.83281   0.91304   0.00000  Uiso   1.00
H855   H     0.47092   0.69992   0.02514   0.00000  Uiso   1.00
H856   H     0.41149   0.79423   0.91412   0.00000  Uiso   1.00
H857   H     0.42757   0.77515   0.86884   0.00000  Uiso   1.00
H858   H     0.41632   0.82276   0.87194   0.00000  Uiso   1.00
H859   H     0.33268   0.53266   0.08683   0.00000  Uiso   1.00
H860   H     0.29463   0.58853   0.08639   0.00000  Uiso   1.00
H861   H     0.32301   0.58301   0.12869   0.00000  Uiso   1.00
H862   H     0.27529   0.57213   0.13140   0.00000  Uiso   1.00
H863   H     0.16709   0.53206   0.91322   0.00000  Uiso   1.00
H864   H     0.20466   0.58823   0.91369   0.00000  Uiso   1.00
H865   H     0.17638   0.58247   0.87135   0.00000  Uiso   1.00
H866   H     0.47304   0.80199   0.97470   0.00000  Uiso   1.00
H867   H     0.22418   0.57197   0.86870   0.00000  Uiso   1.00
H868   H     0.03638   0.83157   0.08753   0.00000  Uiso   1.00
H869   H     0.09053   0.79115   0.08769   0.00000  Uiso   1.00
H870   H     0.07285   0.77239   0.13242   0.00000  Uiso   1.00
H871   H     0.08582   0.81959   0.13001   0.00000  Uiso   1.00
H872   H     0.05708   0.68428   0.90958   0.00000  Uiso   1.00
H873   H     0.00415   0.64674   0.92625   0.00000  Uiso   1.00
H874   H     0.02225   0.63735   0.87872   0.00000  Uiso   1.00
H875   H     0.48192   0.66494   0.88356   0.00000  Uiso   1.00
H876   H     0.43389   0.80692   0.59076   0.00000  Uiso   1.00
H877   H     0.30151   0.52704   0.02533   0.00000  Uiso   1.00
H878   H     0.39646   0.75391   0.57392   0.00000  Uiso   1.00
H879   H     0.38713   0.77191   0.62152   0.00000  Uiso   1.00
H880   H     0.41482   0.73167   0.61651   0.00000  Uiso   1.00
H881   H     0.06556   0.80753   0.40921   0.00000  Uiso   1.00
H882   H     0.10351   0.75491   0.42610   0.00000  Uiso   1.00
H883   H     0.11268   0.77293   0.37848   0.00000  Uiso   1.00
H884   H     0.08538   0.73243   0.38351   0.00000  Uiso   1.00
H885   H     0.30670   0.93367   0.59091   0.00000  Uiso   1.00
H886   H     0.25354   0.89648   0.57400   0.00000  Uiso   1.00
H887   H     0.23134   0.91493   0.61654   0.00000  Uiso   1.00
H888   H     0.19830   0.52669   0.97471   0.00000  Uiso   1.00
H889   H     0.27146   0.88706   0.62165   0.00000  Uiso   1.00
H890   H     0.30817   0.56501   0.40908   0.00000  Uiso   1.00
H891   H     0.25594   0.60344   0.42604   0.00000  Uiso   1.00
H892   H     0.23319   0.58554   0.38350   0.00000  Uiso   1.00
H893   H     0.27394   0.61246   0.37838   0.00000  Uiso   1.00
H894   H     0.08296   0.71804   0.58678   0.00000  Uiso   1.00
H895   H     0.04548   0.66182   0.58631   0.00000  Uiso   1.00
H896   H     0.02592   0.67804   0.63129   0.00000  Uiso   1.00
H897   H     0.07375   0.66763   0.62865   0.00000  Uiso   1.00
H898   H     0.41736   0.71726   0.41317   0.00000  Uiso   1.00
H899   H     0.03018   0.80074   0.02581   0.00000  Uiso   1.00
H900   H     0.45546   0.66143   0.41357   0.00000  Uiso   1.00
H901   H     0.47477   0.67786   0.36857   0.00000  Uiso   1.00
H902   H     0.42707   0.66693   0.37129   0.00000  Uiso   1.00
H903   H     0.21855   0.58314   0.58662   0.00000  Uiso   1.00
H904   H     0.16211   0.54598   0.58600   0.00000  Uiso   1.00
H905   H     0.16801   0.57419   0.62835   0.00000  Uiso   1.00
H906   H     0.17815   0.52631   0.63104   0.00000  Uiso   1.00
H907   H     0.21660   0.91764   0.41322   0.00000  Uiso   1.00
H908   H     0.16117   0.95637   0.41370   0.00000  Uiso   1.00
H909   H     0.16623   0.92785   0.37150   0.00000  Uiso   1.00
H910   H     0.02763   0.69857   0.97477   0.00000  Uiso   1.00
H911   H     0.17767   0.97542   0.36860   0.00000  Uiso   1.00
H912   H     0.44811   0.77762   0.52547   0.00000  Uiso   1.00
N913   N     0.19033   0.96823   0.10111   0.00000  Uiso   1.00
N914   N     0.05965   0.78182   0.39889   0.00000  Uiso   1.00
N915   N     0.28108   0.93995   0.60119   0.00000  Uiso   1.00
N916   N     0.28238   0.55935   0.39880   0.00000  Uiso   1.00
N917   N     0.05831   0.71606   0.60094   0.00000  Uiso   1.00
N918   N     0.44203   0.71554   0.39900   0.00000  Uiso   1.00
N919   N     0.21641   0.55850   0.60079   0.00000  Uiso   1.00
N920   N     0.21508   0.94233   0.39904   0.00000  Uiso   1.00
N921   N     0.30990   0.96863   0.89889   0.00000  Uiso   1.00
N922   N     0.46398   0.69316   0.10085   0.00000  Uiso   1.00
N923   N     0.46535   0.80805   0.89900   0.00000  Uiso   1.00
N924   N     0.30800   0.53441   0.10099   0.00000  Uiso   1.00
N925   N     0.19174   0.53401   0.89906   0.00000  Uiso   1.00
N926   N     0.03690   0.80681   0.10165   0.00000  Uiso   1.00
N927   N     0.03145   0.69035   0.89914   0.00000  Uiso   1.00
N928   N     0.44006   0.78128   0.60110   0.00000  Uiso   1.00
O929   O     0.25000   0.50000   0.25000   0.00000  Uiso   1.00
O930   O     0.25000   0.96964   0.66317   0.00000  Uiso   1.00
O931   O     0.46964   0.75000   0.33683   0.00000  Uiso   1.00
O932   O     0.03036   0.75000   0.66317   0.00000  Uiso   1.00
O933   O     0.00000   0.71964   0.83683   0.00000  Uiso   1.00
O934   O    -0.00000   0.78036   0.16317   0.00000  Uiso   1.00
O935   O     0.28036   0.50000   0.83683   0.00000  Uiso   1.00
O936   O     0.21964   0.50000   0.16317   0.00000  Uiso   1.00
O937   O     0.00000   0.78036   0.83683   0.00000  Uiso   1.00
O938   O    -0.00000   0.71964   0.16317   0.00000  Uiso   1.00
O939   O     0.21964   0.50000   0.83683   0.00000  Uiso   1.00
O940   O     0.25000   0.50000   0.75000   0.00000  Uiso   1.00
O941   O     0.28036   0.50000   0.16317   0.00000  Uiso   1.00
O942   O     0.20725   0.57307   0.27282   0.00000  Uiso   1.00
O943   O     0.29274   0.92693   0.72718   0.00000  Uiso   1.00
O944   O     0.42693   0.70725   0.27282   0.00000  Uiso   1.00
O945   O     0.07307   0.79274   0.72718   0.00000  Uiso   1.00
O946   O     0.29274   0.92693   0.27282   0.00000  Uiso   1.00
O947   O     0.20725   0.57307   0.72718   0.00000  Uiso   1.00
O948   O     0.07307   0.79274   0.27282   0.00000  Uiso   1.00
O949   O     0.42693   0.70725   0.72718   0.00000  Uiso   1.00
O950   O     0.20725   0.92693   0.72718   0.00000  Uiso   1.00
O951   O     0.00000   0.75000   0.25000   0.00000  Uiso   1.00
O952   O     0.29274   0.57307   0.27282   0.00000  Uiso   1.00
O953   O     0.42693   0.79274   0.72718   0.00000  Uiso   1.00
O954   O     0.07307   0.70725   0.27282   0.00000  Uiso   1.00
O955   O     0.29274   0.57307   0.72718   0.00000  Uiso   1.00
O956   O     0.20725   0.92693   0.27282   0.00000  Uiso   1.00
O957   O     0.07307   0.70725   0.72718   0.00000  Uiso   1.00
O958   O     0.42693   0.79274   0.27282   0.00000  Uiso   1.00
O959   O     0.45725   0.82307   0.77282   0.00000  Uiso   1.00
O960   O     0.04274   0.67693   0.22718   0.00000  Uiso   1.00
O961   O     0.17693   0.95725   0.77282   0.00000  Uiso   1.00
O962   O     0.00000   0.75000   0.75000   0.00000  Uiso   1.00
O963   O     0.32307   0.54274   0.22718   0.00000  Uiso   1.00
O964   O     0.04274   0.67693   0.77282   0.00000  Uiso   1.00
O965   O     0.45725   0.82307   0.22718   0.00000  Uiso   1.00
O966   O     0.32307   0.54274   0.77282   0.00000  Uiso   1.00
O967   O     0.17693   0.95725   0.22718   0.00000  Uiso   1.00
O968   O     0.45725   0.67693   0.22718   0.00000  Uiso   1.00
O969   O     0.04274   0.82307   0.77282   0.00000  Uiso   1.00
O970   O     0.17693   0.54274   0.22718   0.00000  Uiso   1.00
O971   O     0.32307   0.95725   0.77282   0.00000  Uiso   1.00
O972   O     0.04274   0.82307   0.22718   0.00000  Uiso   1.00
O973   O     0.25000   0.96964   0.33683   0.00000  Uiso   1.00
O974   O     0.45725   0.67693   0.77282   0.00000  Uiso   1.00
O975   O     0.32307   0.95725   0.22718   0.00000  Uiso   1.00
O976   O     0.17693   0.54274   0.77282   0.00000  Uiso   1.00
O977   O     0.25000   0.53036   0.66317   0.00000  Uiso   1.00
O978   O     0.03036   0.75000   0.33683   0.00000  Uiso   1.00
O979   O     0.46964   0.75000   0.66317   0.00000  Uiso   1.00
O980   O     0.25000   0.53036   0.33683   0.00000  Uiso   1.00
Zn981  Zn    0.20660   0.50000   0.21760   0.00000  Uiso   1.00
Zn982  Zn    0.04340   0.75000   0.28240   0.00000  Uiso   1.00
Zn983  Zn    0.25000   0.95660   0.71760   0.00000  Uiso   1.00
Zn984  Zn    0.25000   0.54340   0.28240   0.00000  Uiso   1.00
Zn985  Zn    0.04340   0.75000   0.71760   0.00000  Uiso   1.00
Zn986  Zn    0.45660   0.75000   0.28240   0.00000  Uiso   1.00
Zn987  Zn    0.25000   0.54340   0.71760   0.00000  Uiso   1.00
Zn988  Zn    0.25000   0.95660   0.28240   0.00000  Uiso   1.00
Zn989  Zn    0.29340   0.50000   0.78240   0.00000  Uiso   1.00
Zn990  Zn    0.00000   0.70660   0.21760   0.00000  Uiso   1.00
Zn991  Zn    0.00000   0.79340   0.78240   0.00000  Uiso   1.00
Zn992  Zn    0.29340   0.50000   0.21760   0.00000  Uiso   1.00
Zn993  Zn    0.20660   0.50000   0.78240   0.00000  Uiso   1.00
Zn994  Zn    0.00000   0.79340   0.21760   0.00000  Uiso   1.00
Zn995  Zn    0.00000   0.70660   0.78240   0.00000  Uiso   1.00
Zn996  Zn    0.45660   0.75000   0.71760   0.00000  Uiso   1.00
C997   C     0.72073   0.98428   0.04120   0.00000  Uiso   1.00
C998   C     0.52926   0.76573   0.45879   0.00000  Uiso   1.00
C999   C     0.84818   0.90196   0.74991   0.00000  Uiso   1.00
C1000  C     0.90188   0.65188   0.25000   0.00000  Uiso   1.00
C1001  C     0.59810   0.84814   0.74998   0.00000  Uiso   1.00
C1002  C     0.84810   0.90187   0.24999   0.00000  Uiso   1.00
C1003  C     0.65191   0.59815   0.75004   0.00000  Uiso   1.00
C1004  C     0.59816   0.65194   0.75006   0.00000  Uiso   1.00
C1005  C     0.90189   0.84812   0.24999   0.00000  Uiso   1.00
C1006  C     0.65190   0.90188   0.74999   0.00000  Uiso   1.00
C1007  C     0.84814   0.59809   0.25004   0.00000  Uiso   1.00
C1008  C     0.90199   0.84823   0.74987   0.00000  Uiso   1.00
C1009  C     0.76543   0.97056   0.54124   0.00000  Uiso   1.00
C1010  C     0.59813   0.65189   0.25001   0.00000  Uiso   1.00
C1011  C     0.84813   0.59810   0.75001   0.00000  Uiso   1.00
C1012  C     0.65192   0.90184   0.24995   0.00000  Uiso   1.00
C1013  C     0.74955   0.50060   0.10217   0.00000  Uiso   1.00
C1014  C     0.75045   0.50061   0.89784   0.00000  Uiso   1.00
C1015  C     0.50028   0.75007   0.10226   0.00000  Uiso   1.00
C1016  C     0.99931   0.74969   0.89790   0.00000  Uiso   1.00
C1017  C     0.99955   0.74938   0.60216   0.00000  Uiso   1.00
C1018  C     0.50045   0.74940   0.39783   0.00000  Uiso   1.00
C1019  C     0.74944   0.99959   0.60214   0.00000  Uiso   1.00
C1020  C     0.76608   0.52912   0.45875   0.00000  Uiso   1.00
C1021  C     0.74948   0.50043   0.39782   0.00000  Uiso   1.00
C1022  C     0.65808   0.99083   0.10326   0.00000  Uiso   1.00
C1023  C     0.84197   0.99147   0.89673   0.00000  Uiso   1.00
C1024  C     0.92737   0.70274   0.11251   0.00000  Uiso   1.00
C1025  C     0.92829   0.79946   0.88797   0.00000  Uiso   1.00
C1026  C     0.79965   0.57142   0.11239   0.00000  Uiso   1.00
C1027  C     0.69980   0.57107   0.88768   0.00000  Uiso   1.00
C1028  C     0.57339   0.79682   0.11349   0.00000  Uiso   1.00
C1029  C     0.50866   0.65825   0.89690   0.00000  Uiso   1.00
C1030  C     0.90802   0.75840   0.60327   0.00000  Uiso   1.00
C1031  C     0.52926   0.73535   0.54114   0.00000  Uiso   1.00
C1032  C     0.59191   0.75925   0.39674   0.00000  Uiso   1.00
C1033  C     0.75806   0.90802   0.60335   0.00000  Uiso   1.00
C1034  C     0.76011   0.59182   0.39667   0.00000  Uiso   1.00
C1035  C     0.55031   0.67898   0.61232   0.00000  Uiso   1.00
C1036  C     0.95041   0.67854   0.38759   0.00000  Uiso   1.00
C1037  C     0.67926   0.55069   0.61206   0.00000  Uiso   1.00
C1038  C     0.67815   0.95109   0.38769   0.00000  Uiso   1.00
C1039  C     0.97088   0.73510   0.45882   0.00000  Uiso   1.00
C1040  C     0.73561   0.52935   0.54107   0.00000  Uiso   1.00
C1041  C     0.73499   0.97098   0.45884   0.00000  Uiso   1.00
C1042  C     0.72008   0.98484   0.08154   0.00000  Uiso   1.00
C1043  C     0.78002   0.98504   0.91846   0.00000  Uiso   1.00
C1044  C     0.98302   0.72161   0.08148   0.00000  Uiso   1.00
C1045  C     0.77938   0.98448   0.95880   0.00000  Uiso   1.00
C1046  C     0.98366   0.77919   0.91851   0.00000  Uiso   1.00
C1047  C     0.77895   0.51631   0.08153   0.00000  Uiso   1.00
C1048  C     0.72094   0.51612   0.91850   0.00000  Uiso   1.00
C1049  C     0.51775   0.77865   0.08187   0.00000  Uiso   1.00
C1050  C     0.51495   0.72024   0.91862   0.00000  Uiso   1.00
C1051  C     0.96996   0.76490   0.58153   0.00000  Uiso   1.00
C1052  C     0.52991   0.76518   0.41846   0.00000  Uiso   1.00
C1053  C     0.76485   0.96992   0.58157   0.00000  Uiso   1.00
C1054  C     0.76551   0.52976   0.41841   0.00000  Uiso   1.00
C1055  C     0.52909   0.73390   0.58150   0.00000  Uiso   1.00
C1056  C     0.98405   0.72170   0.04112   0.00000  Uiso   1.00
C1057  C     0.97106   0.73366   0.41847   0.00000  Uiso   1.00
C1058  C     0.73412   0.52919   0.58142   0.00000  Uiso   1.00
C1059  C     0.73352   0.97118   0.41848   0.00000  Uiso   1.00
C1060  C     0.75006   0.99920   0.02111   0.00000  Uiso   1.00
C1061  C     0.74995   0.99920   0.97890   0.00000  Uiso   1.00
C1062  C     0.50056   0.75036   0.02123   0.00000  Uiso   1.00
C1063  C     0.50064   0.75045   0.97901   0.00000  Uiso   1.00
C1064  C     0.50006   0.75078   0.52110   0.00000  Uiso   1.00
C1065  C     0.99995   0.75078   0.47888   0.00000  Uiso   1.00
C1066  C     0.75090   0.50007   0.52108   0.00000  Uiso   1.00
C1067  C     0.98514   0.77954   0.95889   0.00000  Uiso   1.00
C1068  C     0.75090   0.99993   0.47887   0.00000  Uiso   1.00
C1069  C     0.74993   0.50008   0.35524   0.00000  Uiso   1.00
C1070  C     0.74992   0.99992   0.64474   0.00000  Uiso   1.00
C1071  C     0.50010   0.74992   0.35525   0.00000  Uiso   1.00
C1072  C     0.99990   0.74991   0.64474   0.00000  Uiso   1.00
C1073  C     0.99988   0.74994   0.85527   0.00000  Uiso   1.00
C1074  C     0.50006   0.75001   0.14479   0.00000  Uiso   1.00
C1075  C     0.75009   0.50009   0.85525   0.00000  Uiso   1.00
C1076  C     0.74990   0.50009   0.14475   0.00000  Uiso   1.00
C1077  C     0.67994   0.57005   0.25000   0.00000  Uiso   1.00
C1078  C     0.77914   0.51486   0.04117   0.00000  Uiso   1.00
C1079  C     0.82007   0.92996   0.74998   0.00000  Uiso   1.00
C1080  C     0.92995   0.67994   0.24999   0.00000  Uiso   1.00
C1081  C     0.57004   0.82006   0.75000   0.00000  Uiso   1.00
C1082  C     0.82005   0.92994   0.25000   0.00000  Uiso   1.00
C1083  C     0.67995   0.57006   0.75001   0.00000  Uiso   1.00
C1084  C     0.57006   0.82006   0.25001   0.00000  Uiso   1.00
C1085  C     0.92993   0.67996   0.75000   0.00000  Uiso   1.00
C1086  C     0.67995   0.92994   0.74999   0.00000  Uiso   1.00
C1087  C     0.82006   0.57005   0.25001   0.00000  Uiso   1.00
C1088  C     0.92997   0.82009   0.74996   0.00000  Uiso   1.00
C1089  C     0.72076   0.51467   0.95886   0.00000  Uiso   1.00
C1090  C     0.57006   0.67995   0.25000   0.00000  Uiso   1.00
C1091  C     0.82006   0.57005   0.75001   0.00000  Uiso   1.00
C1092  C     0.67995   0.92993   0.24998   0.00000  Uiso   1.00
C1093  C     0.57006   0.67996   0.75002   0.00000  Uiso   1.00
C1094  C     0.92995   0.82005   0.25000   0.00000  Uiso   1.00
C1095  C     0.62783   0.89881   0.21850   0.00000  Uiso   1.00
C1096  C     0.87025   0.60309   0.78278   0.00000  Uiso   1.00
C1097  C     0.60308   0.62983   0.21722   0.00000  Uiso   1.00
C1098  C     0.89842   0.87173   0.78174   0.00000  Uiso   1.00
C1099  C     0.87278   0.60049   0.21906   0.00000  Uiso   1.00
C1100  C     0.51694   0.77887   0.04149   0.00000  Uiso   1.00
C1101  C     0.62988   0.89689   0.78277   0.00000  Uiso   1.00
C1102  C     0.89679   0.87010   0.21718   0.00000  Uiso   1.00
C1103  C     0.60034   0.62701   0.78082   0.00000  Uiso   1.00
C1104  C     0.62697   0.60027   0.78077   0.00000  Uiso   1.00
C1105  C     0.87006   0.89681   0.21718   0.00000  Uiso   1.00
C1106  C     0.60315   0.87020   0.78276   0.00000  Uiso   1.00
C1107  C     0.89945   0.62718   0.21904   0.00000  Uiso   1.00
C1108  C     0.87163   0.89832   0.78182   0.00000  Uiso   1.00
C1109  C     0.62979   0.60310   0.21723   0.00000  Uiso   1.00
C1110  C     0.89695   0.62983   0.78278   0.00000  Uiso   1.00
C1111  C     0.51544   0.72100   0.95898   0.00000  Uiso   1.00
C1112  C     0.60109   0.87217   0.21855   0.00000  Uiso   1.00
C1113  C     0.87974   0.64692   0.71725   0.00000  Uiso   1.00
C1114  C     0.62221   0.85115   0.28145   0.00000  Uiso   1.00
C1115  C     0.85190   0.87865   0.71790   0.00000  Uiso   1.00
C1116  C     0.64692   0.62017   0.28279   0.00000  Uiso   1.00
C1117  C     0.62012   0.85312   0.71720   0.00000  Uiso   1.00
C1118  C     0.87725   0.64947   0.28099   0.00000  Uiso   1.00
C1119  C     0.64982   0.62317   0.71937   0.00000  Uiso   1.00
C1120  C     0.85320   0.87989   0.28280   0.00000  Uiso   1.00
C1121  C     0.87993   0.85318   0.28281   0.00000  Uiso   1.00
C1122  C     0.97061   0.76546   0.54119   0.00000  Uiso   1.00
C1123  C     0.62313   0.64984   0.71936   0.00000  Uiso   1.00
C1124  C     0.85063   0.62273   0.28104   0.00000  Uiso   1.00
C1125  C     0.64685   0.87982   0.71720   0.00000  Uiso   1.00
C1126  C     0.62022   0.64690   0.28279   0.00000  Uiso   1.00
C1127  C     0.87860   0.85194   0.71790   0.00000  Uiso   1.00
C1128  C     0.64896   0.87777   0.28139   0.00000  Uiso   1.00
C1129  C     0.85305   0.62019   0.71725   0.00000  Uiso   1.00
C1130  C     0.59811   0.84812   0.25000   0.00000  Uiso   1.00
C1131  C     0.90186   0.65191   0.75001   0.00000  Uiso   1.00
C1132  C     0.65187   0.59810   0.25001   0.00000  Uiso   1.00
F1133  F     0.63048   0.92108   0.18724   0.00000  Uiso   1.00
F1134  F     0.86518   0.91707   0.18470   0.00000  Uiso   1.00
F1135  F     0.58286   0.86543   0.81521   0.00000  Uiso   1.00
F1136  F     0.92241   0.62907   0.18832   0.00000  Uiso   1.00
F1137  F     0.86829   0.91995   0.81352   0.00000  Uiso   1.00
F1138  F     0.63453   0.58275   0.18478   0.00000  Uiso   1.00
F1139  F     0.91734   0.63460   0.81522   0.00000  Uiso   1.00
F1140  F     0.57860   0.86967   0.18742   0.00000  Uiso   1.00
F1141  F     0.88445   0.66727   0.68482   0.00000  Uiso   1.00
F1142  F     0.61957   0.82888   0.31271   0.00000  Uiso   1.00
F1143  F     0.83029   0.88210   0.68617   0.00000  Uiso   1.00
F1144  F     0.86555   0.58273   0.81521   0.00000  Uiso   1.00
F1145  F     0.66729   0.61539   0.31524   0.00000  Uiso   1.00
F1146  F     0.61528   0.83279   0.68475   0.00000  Uiso   1.00
F1147  F     0.87913   0.67253   0.31166   0.00000  Uiso   1.00
F1148  F     0.67317   0.62168   0.68895   0.00000  Uiso   1.00
F1149  F     0.83296   0.88474   0.31528   0.00000  Uiso   1.00
F1150  F     0.88481   0.83292   0.31528   0.00000  Uiso   1.00
F1151  F     0.62160   0.67320   0.68894   0.00000  Uiso   1.00
F1152  F     0.82780   0.62068   0.31187   0.00000  Uiso   1.00
F1153  F     0.66715   0.88459   0.68476   0.00000  Uiso   1.00
F1154  F     0.61548   0.66725   0.31524   0.00000  Uiso   1.00
F1155  F     0.58273   0.63461   0.18477   0.00000  Uiso   1.00
F1156  F     0.88198   0.83032   0.68619   0.00000  Uiso   1.00
F1157  F     0.67149   0.88023   0.31249   0.00000  Uiso   1.00
F1158  F     0.83266   0.61541   0.68481   0.00000  Uiso   1.00
F1159  F     0.92040   0.86871   0.81321   0.00000  Uiso   1.00
F1160  F     0.87091   0.57742   0.18839   0.00000  Uiso   1.00
F1161  F     0.63471   0.91722   0.81522   0.00000  Uiso   1.00
F1162  F     0.91702   0.86525   0.18471   0.00000  Uiso   1.00
F1163  F     0.57720   0.62874   0.81141   0.00000  Uiso   1.00
F1164  F     0.62852   0.57692   0.81120   0.00000  Uiso   1.00
H1165  H     0.69833   0.97194   0.02547   0.00000  Uiso   1.00
H1166  H     0.55166   0.77808   0.47452   0.00000  Uiso   1.00
H1167  H     0.77749   0.94800   0.52556   0.00000  Uiso   1.00
H1168  H     0.77862   0.55142   0.47445   0.00000  Uiso   1.00
H1169  H     0.55173   0.72335   0.52529   0.00000  Uiso   1.00
H1170  H     0.94851   0.72290   0.47466   0.00000  Uiso   1.00
H1171  H     0.72373   0.55188   0.52516   0.00000  Uiso   1.00
H1172  H     0.72260   0.94873   0.47471   0.00000  Uiso   1.00
H1173  H     0.68438   0.94253   0.09079   0.00000  Uiso   1.00
H1174  H     0.64649   0.99519   0.07390   0.00000  Uiso   1.00
H1175  H     0.66464   0.51764   0.11649   0.00000  Uiso   1.00
H1176  H     0.80186   0.97230   0.97452   0.00000  Uiso   1.00
H1177  H     0.63730   0.97717   0.12152   0.00000  Uiso   1.00
H1178  H     0.81603   0.94298   0.90922   0.00000  Uiso   1.00
H1179  H     0.85354   0.99593   0.92608   0.00000  Uiso   1.00
H1180  H     0.83521   0.51822   0.88349   0.00000  Uiso   1.00
H1181  H     0.86285   0.97794   0.87847   0.00000  Uiso   1.00
H1182  H     0.96477   0.66851   0.08651   0.00000  Uiso   1.00
H1183  H     0.91023   0.70831   0.08664   0.00000  Uiso   1.00
H1184  H     0.92760   0.72712   0.13154   0.00000  Uiso   1.00
H1185  H     0.91514   0.67979   0.12889   0.00000  Uiso   1.00
H1186  H     0.96710   0.83281   0.91304   0.00000  Uiso   1.00
H1187  H     0.97092   0.69992   0.02514   0.00000  Uiso   1.00
H1188  H     0.91149   0.79423   0.91412   0.00000  Uiso   1.00
H1189  H     0.92757   0.77515   0.86884   0.00000  Uiso   1.00
H1190  H     0.91632   0.82276   0.87194   0.00000  Uiso   1.00
H1191  H     0.83268   0.53266   0.08683   0.00000  Uiso   1.00
H1192  H     0.79463   0.58853   0.08639   0.00000  Uiso   1.00
H1193  H     0.82301   0.58301   0.12869   0.00000  Uiso   1.00
H1194  H     0.77529   0.57213   0.13140   0.00000  Uiso   1.00
H1195  H     0.66709   0.53206   0.91322   0.00000  Uiso   1.00
H1196  H     0.70466   0.58823   0.91369   0.00000  Uiso   1.00
H1197  H     0.67638   0.58247   0.87135   0.00000  Uiso   1.00
H1198  H     0.97304   0.80199   0.97470   0.00000  Uiso   1.00
H1199  H     0.72418   0.57197   0.86870   0.00000  Uiso   1.00
H1200  H     0.53638   0.83157   0.08753   0.00000  Uiso   1.00
H1201  H     0.59053   0.79115   0.08769   0.00000  Uiso   1.00
H1202  H     0.57285   0.77239   0.13242   0.00000  Uiso   1.00
H1203  H     0.58582   0.81959   0.13001   0.00000  Uiso   1.00
H1204  H     0.55708   0.68428   0.90958   0.00000  Uiso   1.00
H1205  H     0.50415   0.64674   0.92625   0.00000  Uiso   1.00
H1206  H     0.52225   0.63735   0.87872   0.00000  Uiso   1.00
H1207  H     0.98192   0.66494   0.88356   0.00000  Uiso   1.00
H1208  H     0.93389   0.80692   0.59076   0.00000  Uiso   1.00
H1209  H     0.80151   0.52704   0.02533   0.00000  Uiso   1.00
H1210  H     0.89646   0.75391   0.57392   0.00000  Uiso   1.00
H1211  H     0.88713   0.77191   0.62152   0.00000  Uiso   1.00
H1212  H     0.91482   0.73167   0.61651   0.00000  Uiso   1.00
H1213  H     0.56556   0.80753   0.40921   0.00000  Uiso   1.00
H1214  H     0.60351   0.75491   0.42610   0.00000  Uiso   1.00
H1215  H     0.61268   0.77293   0.37848   0.00000  Uiso   1.00
H1216  H     0.58538   0.73243   0.38351   0.00000  Uiso   1.00
H1217  H     0.80670   0.93367   0.59091   0.00000  Uiso   1.00
H1218  H     0.75354   0.89648   0.57400   0.00000  Uiso   1.00
H1219  H     0.73134   0.91493   0.61654   0.00000  Uiso   1.00
H1220  H     0.69830   0.52669   0.97471   0.00000  Uiso   1.00
H1221  H     0.77146   0.88706   0.62165   0.00000  Uiso   1.00
H1222  H     0.80817   0.56501   0.40908   0.00000  Uiso   1.00
H1223  H     0.75594   0.60344   0.42604   0.00000  Uiso   1.00
H1224  H     0.73319   0.58554   0.38350   0.00000  Uiso   1.00
H1225  H     0.77394   0.61246   0.37838   0.00000  Uiso   1.00
H1226  H     0.58296   0.71804   0.58678   0.00000  Uiso   1.00
H1227  H     0.54548   0.66182   0.58631   0.00000  Uiso   1.00
H1228  H     0.52592   0.67804   0.63129   0.00000  Uiso   1.00
H1229  H     0.57375   0.66763   0.62865   0.00000  Uiso   1.00
H1230  H     0.91736   0.71726   0.41317   0.00000  Uiso   1.00
H1231  H     0.53018   0.80074   0.02581   0.00000  Uiso   1.00
H1232  H     0.95546   0.66143   0.41357   0.00000  Uiso   1.00
H1233  H     0.97477   0.67786   0.36857   0.00000  Uiso   1.00
H1234  H     0.92707   0.66693   0.37129   0.00000  Uiso   1.00
H1235  H     0.71855   0.58314   0.58662   0.00000  Uiso   1.00
H1236  H     0.66211   0.54598   0.58600   0.00000  Uiso   1.00
H1237  H     0.66801   0.57419   0.62835   0.00000  Uiso   1.00
H1238  H     0.67815   0.52631   0.63104   0.00000  Uiso   1.00
H1239  H     0.71660   0.91764   0.41322   0.00000  Uiso   1.00
H1240  H     0.66117   0.95637   0.41370   0.00000  Uiso   1.00
H1241  H     0.66623   0.92785   0.37150   0.00000  Uiso   1.00
H1242  H     0.52763   0.69857   0.97477   0.00000  Uiso   1.00
H1243  H     0.67767   0.97542   0.36860   0.00000  Uiso   1.00
H1244  H     0.94811   0.77762   0.52547   0.00000  Uiso   1.00
N1245  N     0.69033   0.96823   0.10111   0.00000  Uiso   1.00
N1246  N     0.55965   0.78182   0.39889   0.00000  Uiso   1.00
N1247  N     0.78108   0.93995   0.60119   0.00000  Uiso   1.00
N1248  N     0.78238   0.55935   0.39880   0.00000  Uiso   1.00
N1249  N     0.55831   0.71606   0.60094   0.00000  Uiso   1.00
N1250  N     0.94203   0.71554   0.39900   0.00000  Uiso   1.00
N1251  N     0.71641   0.55850   0.60079   0.00000  Uiso   1.00
N1252  N     0.71508   0.94233   0.39904   0.00000  Uiso   1.00
N1253  N     0.80990   0.96863   0.89889   0.00000  Uiso   1.00
N1254  N     0.96398   0.69316   0.10085   0.00000  Uiso   1.00
N1255  N     0.96535   0.80805   0.89900   0.00000  Uiso   1.00
N1256  N     0.80800   0.53441   0.10099   0.00000  Uiso   1.00
N1257  N     0.69174   0.53401   0.89906   0.00000  Uiso   1.00
N1258  N     0.53690   0.80681   0.10165   0.00000  Uiso   1.00
N1259  N     0.53145   0.69035   0.89914   0.00000  Uiso   1.00
N1260  N     0.94006   0.78128   0.60110   0.00000  Uiso   1.00
O1261  O     0.75000   0.50000   0.25000   0.00000  Uiso   1.00
O1262  O     0.75000   0.96964   0.66317   0.00000  Uiso   1.00
O1263  O     0.96964   0.75000   0.33683   0.00000  Uiso   1.00
O1264  O     0.53036   0.75000   0.66317   0.00000  Uiso   1.00
O1265  O     0.50000   0.71964   0.83683   0.00000  Uiso   1.00
O1266  O     0.50000   0.78036   0.16317   0.00000  Uiso   1.00
O1267  O     0.78036   0.50000   0.83683   0.00000  Uiso   1.00
O1268  O     0.71964   0.50000   0.16317   0.00000  Uiso   1.00
O1269  O     0.50000   0.78036   0.83683   0.00000  Uiso   1.00
O1270  O     0.50000   0.71964   0.16317   0.00000  Uiso   1.00
O1271  O     0.71964   0.50000   0.83683   0.00000  Uiso   1.00
O1272  O     0.75000   0.50000   0.75000   0.00000  Uiso   1.00
O1273  O     0.78036   0.50000   0.16317   0.00000  Uiso   1.00
O1274  O     0.70725   0.57307   0.27282   0.00000  Uiso   1.00
O1275  O     0.79274   0.92693   0.72718   0.00000  Uiso   1.00
O1276  O     0.92693   0.70725   0.27282   0.00000  Uiso   1.00
O1277  O     0.57307   0.79274   0.72718   0.00000  Uiso   1.00
O1278  O     0.79274   0.92693   0.27282   0.00000  Uiso   1.00
O1279  O     0.70725   0.57307   0.72718   0.00000  Uiso   1.00
O1280  O     0.57307   0.79274   0.27282   0.00000  Uiso   1.00
O1281  O     0.92693   0.70725   0.72718   0.00000  Uiso   1.00
O1282  O     0.70725   0.92693   0.72718   0.00000  Uiso   1.00
O1283  O     0.50000   0.75000   0.25000   0.00000  Uiso   1.00
O1284  O     0.79274   0.57307   0.27282   0.00000  Uiso   1.00
O1285  O     0.92693   0.79274   0.72718   0.00000  Uiso   1.00
O1286  O     0.57307   0.70725   0.27282   0.00000  Uiso   1.00
O1287  O     0.79274   0.57307   0.72718   0.00000  Uiso   1.00
O1288  O     0.70725   0.92693   0.27282   0.00000  Uiso   1.00
O1289  O     0.57307   0.70725   0.72718   0.00000  Uiso   1.00
O1290  O     0.92693   0.79274   0.27282   0.00000  Uiso   1.00
O1291  O     0.95725   0.82307   0.77282   0.00000  Uiso   1.00
O1292  O     0.54274   0.67693   0.22718   0.00000  Uiso   1.00
O1293  O     0.67693   0.95725   0.77282   0.00000  Uiso   1.00
O1294  O     0.50000   0.75000   0.75000   0.00000  Uiso   1.00
O1295  O     0.82307   0.54274   0.22718   0.00000  Uiso   1.00
O1296  O     0.54274   0.67693   0.77282   0.00000  Uiso   1.00
O1297  O     0.95725   0.82307   0.22718   0.00000  Uiso   1.00
O1298  O     0.82307   0.54274   0.77282   0.00000  Uiso   1.00
O1299  O     0.67693   0.95725   0.22718   0.00000  Uiso   1.00
O1300  O     0.95725   0.67693   0.22718   0.00000  Uiso   1.00
O1301  O     0.54274   0.82307   0.77282   0.00000  Uiso   1.00
O1302  O     0.67693   0.54274   0.22718   0.00000  Uiso   1.00
O1303  O     0.82307   0.95725   0.77282   0.00000  Uiso   1.00
O1304  O     0.54274   0.82307   0.22718   0.00000  Uiso   1.00
O1305  O     0.75000   0.96964   0.33683   0.00000  Uiso   1.00
O1306  O     0.95725   0.67693   0.77282   0.00000  Uiso   1.00
O1307  O     0.82307   0.95725   0.22718   0.00000  Uiso   1.00
O1308  O     0.67693   0.54274   0.77282   0.00000  Uiso   1.00
O1309  O     0.75000   0.53036   0.66317   0.00000  Uiso   1.00
O1310  O     0.53036   0.75000   0.33683   0.00000  Uiso   1.00
O1311  O     0.96964   0.75000   0.66317   0.00000  Uiso   1.00
O1312  O     0.75000   0.53036   0.33683   0.00000  Uiso   1.00
Zn1313 Zn    0.70660   0.50000   0.21760   0.00000  Uiso   1.00
Zn1314 Zn    0.54340   0.75000   0.28240   0.00000  Uiso   1.00
Zn1315 Zn    0.75000   0.95660   0.71760   0.00000  Uiso   1.00
Zn1316 Zn    0.75000   0.54340   0.28240   0.00000  Uiso   1.00
Zn1317 Zn    0.54340   0.75000   0.71760   0.00000  Uiso   1.00
Zn1318 Zn    0.95660   0.75000   0.28240   0.00000  Uiso   1.00
Zn1319 Zn    0.75000   0.54340   0.71760   0.00000  Uiso   1.00
Zn1320 Zn    0.75000   0.95660   0.28240   0.00000  Uiso   1.00
Zn1321 Zn    0.79340   0.50000   0.78240   0.00000  Uiso   1.00
Zn1322 Zn    0.50000   0.70660   0.21760   0.00000  Uiso   1.00
Zn1323 Zn    0.50000   0.79340   0.78240   0.00000  Uiso   1.00
Zn1324 Zn    0.79340   0.50000   0.21760   0.00000  Uiso   1.00
Zn1325 Zn    0.70660   0.50000   0.78240   0.00000  Uiso   1.00
Zn1326 Zn    0.50000   0.79340   0.21760   0.00000  Uiso   1.00
Zn1327 Zn    0.50000   0.70660   0.78240   0.00000  Uiso   1.00
Zn1328 Zn    0.95660   0.75000   0.71760   0.00000  Uiso   1.00
loop_
_geom_bond_atom_site_label_1
_geom_bond_atom_site_label_2
_geom_bond_distance
_geom_bond_site_symmetry_2
_ccdc_geom_bond_type
C1     C46     1.395   .     A
C1     C64     1.394   .     A
C1     H169    1.084   .     S
C2     C56     1.395   .     A
C2     H170    1.084   .     S
C2     C401    1.394   1_455 S
C3     C112    1.405   .     A
C3     C83     1.456   .     S
C3     C119    1.405   .     A
C4     C84     1.457   .     S
C4     C122    1.405   .     A
C4     C111    1.405   .     A
C5     C110    1.404   .     A
C5     C85     1.457   .     S
C5     C121    1.405   .     A
C6     C109    1.405   .     A
C6     C86     1.457   .     S
C6     C124    1.405   .     A
C7     C123    1.405   .     A
C7     C87     1.457   .     S
C7     C108    1.405   .     A
C8     C107    1.405   .     A
C8     C97     1.457   .     S
C8     C127    1.405   .     A
C9     C125    1.405   .     A
C9     C98     1.457   .     S
C9     C106    1.405   .     A
C10    C129    1.405   .     A
C10    C90     1.457   .     S
C10    C105    1.405   .     A
C11    C91     1.457   .     S
C11    C128    1.405   .     A
C11    C103    1.405   .     A
C12    C102    1.405   .     A
C12    C92     1.457   .     S
C12    C131    1.405   .     A
C13    C57     1.395   .     A
C13    H171    1.084   .     S
C13    C734    1.394   .     S
C14    C130    1.405   .     A
C14    C101    1.405   .     A
C14    C94     1.456   .     S
C15    C100    1.405   .     A
C15    C95     1.457   .     S
C15    C133    1.405   .     A
C16    C96     1.457   .     S
C16    C132    1.405   .     A
C16    C99     1.405   .     A
C17    C80     1.472   .     S
C17    C51     1.417   .     A
C17    C710    1.418   1_545 S
C18    C52     1.417   .     A
C18    C79     1.472   .     S
C18    C711    1.418   1_545 S
C19    C78     1.470   .     S
C19    C53     1.418   .     A
C19    C380    1.417   1_455 S
C20    C77     1.474   .     S
C20    C50     1.418   .     A
C20    C386    1.418   .     S
C21    C76     1.472   .     S
C21    C55     1.418   .     A
C21    C391    1.417   .     S
C22    C56     1.418   .     A
C22    C75     1.472   .     S
C22    C393    1.417   1_455 S
C23    C74     1.473   .     S
C23    C57     1.418   .     A
C23    C726    1.417   .     S
C24    H172    1.084   .     S
C24    C58     1.395   .     A
C24    C736    1.394   1_545 S
C25    C73     1.472   .     S
C25    C58     1.418   .     A
C25    C727    1.417   1_545 S
C26    N249    1.447   .     S
C26    H181    1.110   .     S
C26    H178    1.112   .     S
C26    H843    1.111   .     S
C27    N257    1.447   .     S
C27    H183    1.112   .     S
C27    H185    1.110   .     S
C27    H848    1.111   .     S
C28    H187    1.112   .     S
C28    H189    1.110   .     S
C28    N258    1.447   .     S
C28    H188    1.111   .     S
C29    H193    1.111   .     S
C29    N259    1.447   .     S
C29    H194    1.109   .     S
C29    H192    1.112   .     S
C30    N260    1.447   .     S
C30    H198    1.111   .     S
C30    H196    1.112   .     S
C30    H197    1.110   .     S
C31    H200    1.112   .     S
C31    N261    1.447   .     S
C31    H203    1.111   .     S
C31    H201    1.110   .     S
C32    H206    1.111   .     S
C32    H205    1.112   .     S
C32    H207    1.110   .     S
C32    N262    1.447   .     S
C33    H210    1.110   .     S
C33    N263    1.447   .     S
C33    H209    1.112   .     S
C33    H543    1.111   1_455 S
C34    H215    1.110   .     S
C34    H214    1.112   .     S
C34    N264    1.447   .     S
C34    H216    1.111   .     S
C35    H173    1.084   .     S
C35    C59     1.396   .     A
C35    C68     1.396   .     A
C36    N250    1.447   .     S
C36    H219    1.110   .     S
C36    H218    1.112   .     S
C36    H220    1.111   .     S
C37    N251    1.447   .     S
C37    H223    1.111   .     S
C37    H225    1.110   .     S
C37    H222    1.112   .     S
C38    N252    1.447   .     S
C38    H229    1.110   .     S
C38    H227    1.112   .     S
C38    H228    1.111   .     S
C39    H233    1.110   .     S
C39    N253    1.447   .     S
C39    H232    1.111   .     S
C39    H231    1.112   .     S
C40    N254    1.447   .     S
C40    H238    1.110   .     S
C40    H236    1.112   .     S
C40    H237    1.111   .     S
C41    H240    1.112   .     S
C41    H241    1.110   .     S
C41    N255    1.447   .     S
C41    H242    1.111   .     S
C42    H245    1.110   .     S
C42    H247    1.111   .     S
C42    N256    1.447   .     S
C42    H244    1.112   .     S
C43    C61     1.396   .     A
C43    C69     1.396   .     A
C43    H174    1.084   .     S
C44    H175    1.084   .     S
C44    C70     1.396   .     A
C44    C62     1.396   .     A
C45    C72     1.396   .     A
C45    H176    1.084   .     S
C45    C63     1.396   .     A
C46    N249    1.423   .     S
C46    C681    1.418   .     S
C47    N257    1.423   .     S
C47    C49     1.395   .     A
C47    C682    1.418   .     S
C48    N258    1.424   .     S
C48    C60     1.396   .     A
C48    C351    1.417   .     S
C49    C65     1.394   .     A
C49    H180    1.084   .     S
C50    C71     1.397   .     A
C50    N259    1.424   .     S
C51    N260    1.424   .     S
C51    C82     1.396   .     A
C52    N261    1.424   .     S
C52    C93     1.396   .     A
C53    C104    1.396   .     A
C53    N262    1.424   .     S
C54    N263    1.423   .     S
C54    C115    1.395   .     A
C54    C352    1.418   1_455 S
C55    C126    1.395   .     A
C55    N264    1.423   .     S
C56    N250    1.423   .     S
C57    N251    1.423   .     S
C58    N252    1.423   .     S
C59    N253    1.424   .     S
C59    C353    1.417   1_455 S
C60    H191    1.084   .     S
C60    C398    1.396   .     S
C61    N254    1.424   .     S
C61    C354    1.417   .     S
C62    N255    1.424   .     S
C62    C687    1.417   1_545 S
C63    N256    1.424   .     S
C63    C689    1.417   .     S
C64    C65     1.459   1_554 S
C64    C746    1.396   .     S
C65    C64     1.459   1_556 S
C65    C757    1.396   .     S
C66    C104    1.395   .     A
C66    C392    1.396   1_455 S
C66    C67     1.459   1_554 S
C67    C115    1.394   .     A
C67    C66     1.459   1_556 S
C67    C403    1.395   1_455 S
C68    C401    1.459   1_455 S
C68    C458    1.394   1_455 S
C69    C334    1.394   .     S
C69    C400    1.459   .     S
C70    C677    1.394   1_545 S
C70    C736    1.459   1_545 S
C71    H202    1.084   .     S
C71    C399    1.395   .     S
C72    C688    1.394   .     S
C72    C734    1.459   .     S
C73    O316    1.281   .     A
C73    O973    1.286   1_545 S
C74    O266    1.281   .     A
C74    O977    1.286   .     S
C75    O314    1.281   .     A
C75    O599    1.286   1_455 S
C76    O315    1.281   .     A
C76    O600    1.286   .     S
C77    O601    1.282   .     S
C77    O605    1.286   .     S
C78    O270    1.282   .     S
C78    O274    1.283   .     S
C79    O271    1.281   .     A
C79    O275    1.286   .     A
C80    O272    1.281   .     A
C80    O277    1.286   .     A
C81    C136    1.456   .     S
C81    O278    1.280   .     A
C81    O306    1.280   .     A
C82    H213    1.084   .     S
C82    C728    1.396   1_545 S
C83    O279    1.280   .     A
C83    O307    1.280   .     A
C84    O280    1.280   .     A
C84    O304    1.281   .     A
C85    O281    1.280   .     A
C85    O305    1.281   .     A
C86    O311    1.281   .     A
C86    O282    1.281   .     A
C87    O312    1.281   .     A
C87    O283    1.281   .     A
C88    O284    1.280   .     A
C88    O308    1.280   .     A
C88    C134    1.457   .     S
C89    O285    1.280   .     A
C89    C135    1.456   .     S
C89    O310    1.280   .     A
C90    O286    1.281   .     A
C90    O297    1.280   .     A
C91    O288    1.281   .     A
C91    O299    1.280   .     A
C92    O295    1.280   .     A
C92    O289    1.280   .     A
C93    H224    1.084   .     S
C93    C729    1.396   1_545 S
C94    O290    1.280   .     A
C94    O296    1.280   .     A
C95    O291    1.280   .     A
C95    O302    1.280   .     A
C96    O303    1.280   .     A
C96    O292    1.280   .     A
C97    O300    1.281   .     A
C97    O293    1.281   .     A
C98    O301    1.281   .     A
C98    O294    1.281   .     A
C99    C116    1.385   .     A
C99    F137    1.359   .     S
C100   C114    1.387   .     A
C100   F148    1.359   .     S
C101   C113    1.387   .     A
C101   F159    1.358   .     S
C102   F163    1.358   .     S
C102   C112    1.385   .     A
C103   F164    1.358   .     S
C103   C111    1.385   .     A
C104   H235    1.084   .     S
C105   C110    1.387   .     A
C105   F165    1.358   .     S
C106   F166    1.358   .     S
C106   C109    1.387   .     A
C107   F167    1.359   .     S
C107   C108    1.385   .     A
C108   F168    1.358   .     S
C109   F138    1.358   .     S
C110   F139    1.358   .     S
C111   F140    1.358   .     S
C112   F141    1.359   .     S
C113   F142    1.359   .     S
C113   C136    1.404   .     A
C114   F143    1.359   .     S
C114   C135    1.405   .     A
C115   H246    1.084   .     S
C116   F144    1.358   .     S
C116   C134    1.405   .     A
C117   C133    1.387   .     A
C117   C135    1.404   .     A
C117   F145    1.359   .     S
C118   C134    1.405   .     A
C118   C132    1.385   .     A
C118   F146    1.359   .     S
C119   C131    1.386   .     A
C119   F147    1.359   .     S
C120   F149    1.359   .     S
C120   C136    1.405   .     A
C120   C130    1.387   .     A
C121   C129    1.387   .     A
C121   F150    1.359   .     S
C122   C128    1.385   .     A
C122   F151    1.358   .     S
C123   F152    1.358   .     S
C123   C127    1.384   .     A
C124   F153    1.358   .     S
C124   C125    1.387   .     A
C125   F154    1.358   .     S
C126   H248    1.084   .     S
C126   C400    1.394   .     S
C127   F155    1.358   .     S
C128   F156    1.359   .     S
C129   F157    1.359   .     S
C130   F158    1.359   .     S
C131   F160    1.359   .     S
C132   F161    1.358   .     S
C133   F162    1.359   .     S
H177   N249    1.032   .     S
H179   C690    1.111   1_545 S
H182   N257    1.032   .     S
H184   C691    1.111   1_545 S
H186   N258    1.032   .     S
H190   N259    1.032   .     S
H195   N260    1.032   .     S
H199   N261    1.032   .     S
H204   N262    1.032   .     S
H208   N263    1.032   .     S
H211   C365    1.111   .     S
H212   N264    1.032   .     S
H217   N250    1.032   .     S
H221   N251    1.032   .     S
H226   N252    1.032   .     S
H230   N253    1.032   .     S
H234   N254    1.032   .     S
H239   N255    1.032   .     S
H243   N256    1.032   .     S
O265   Zn320   1.947   .     S
O265   Zn317   1.946   .     S
O265   Zn328   1.948   .     S
O265   Zn988   1.948   1_545 S
O266   Zn319   1.942   .     S
O267   Zn322   1.941   .     S
O267   C407    1.286   .     S
O268   Zn321   1.941   .     S
O268   C408    1.286   1_455 S
O269   Zn331   1.941   .     S
O269   C409    1.282   1_455 S
O270   Zn330   1.941   .     S
O271   Zn325   1.942   .     S
O272   Zn317   1.942   .     S
O273   Zn327   1.942   .     S
O273   C409    1.286   1_455 S
O274   Zn326   1.942   .     S
O275   Zn329   1.941   .     S
O276   Zn323   1.948   .     S
O276   Zn325   1.946   .     S
O276   Zn329   1.948   .     S
O276   Zn983   1.947   1_545 S
O277   Zn328   1.941   .     S
O278   Zn320   1.938   .     S
O279   Zn319   1.938   .     S
O280   Zn322   1.938   .     S
O281   Zn321   1.938   .     S
O282   Zn324   1.939   .     S
O283   Zn323   1.939   .     S
O284   Zn318   1.939   .     S
O285   Zn332   1.939   .     S
O286   Zn319   1.939   .     S
O287   Zn318   1.946   .     S
O287   Zn326   1.947   .     S
O287   Zn330   1.948   .     S
O287   Zn654   1.948   1_455 S
O288   Zn320   1.939   .     S
O289   Zn332   1.938   .     S
O290   Zn318   1.938   .     S
O291   Zn323   1.938   .     S
O292   Zn324   1.938   .     S
O293   Zn321   1.938   .     S
O294   Zn322   1.938   .     S
O295   Zn659   1.938   .     S
O296   Zn326   1.938   .     S
O297   Zn993   1.938   .     S
O298   Zn321   1.948   .     S
O298   Zn327   1.947   .     S
O298   Zn331   1.948   .     S
O298   Zn664   1.946   1_455 S
O299   Zn328   1.938   .     S
O300   Zn331   1.939   .     S
O301   Zn662   1.939   .     S
O302   Zn325   1.939   .     S
O303   Zn981   1.939   .     S
O304   Zn658   1.939   .     S
O305   Zn327   1.939   .     S
O306   Zn317   1.938   .     S
O307   Zn989   1.938   .     S
O308   Zn330   1.938   .     S
O309   Zn324   1.941   .     S
O309   C737    1.286   .     S
O310   Zn663   1.938   .     S
O311   Zn992   1.938   .     S
O312   Zn329   1.938   .     S
O313   Zn323   1.941   .     S
O313   C738    1.286   1_545 S
O314   Zn318   1.942   .     S
O315   Zn332   1.942   .     S
O316   Zn320   1.942   .     S
Zn317  O967    1.939   1_545 S
Zn319  O940    1.947   .     S
Zn322  O619    1.948   .     S
Zn324  O929    1.948   .     S
Zn325  O971    1.938   1_545 S
Zn326  O636    1.939   1_455 S
Zn327  O627    1.938   1_455 S
Zn328  O975    1.938   1_545 S
Zn329  O961    1.938   1_545 S
Zn330  O633    1.939   1_455 S
Zn331  O642    1.938   1_455 S
Zn332  O630    1.946   .     S
C333   C378    1.395   .     A
C333   C396    1.394   .     A
C333   H501    1.084   .     S
C334   C388    1.395   .     A
C334   H502    1.084   .     S
C335   C444    1.405   .     A
C335   C415    1.456   .     S
C335   C451    1.405   .     A
C336   C416    1.457   .     S
C336   C454    1.405   .     A
C336   C443    1.405   .     A
C337   C442    1.404   .     A
C337   C417    1.457   .     S
C337   C453    1.405   .     A
C338   C441    1.405   .     A
C338   C418    1.457   .     S
C338   C456    1.405   .     A
C339   C455    1.405   .     A
C339   C419    1.457   .     S
C339   C440    1.405   .     A
C340   C439    1.405   .     A
C340   C429    1.457   .     S
C340   C459    1.405   .     A
C341   C457    1.405   .     A
C341   C430    1.457   .     S
C341   C438    1.405   .     A
C342   C461    1.405   .     A
C342   C422    1.457   .     S
C342   C437    1.405   .     A
C343   C423    1.457   .     S
C343   C460    1.405   .     A
C343   C435    1.405   .     A
C344   C434    1.405   .     A
C344   C424    1.457   .     S
C344   C463    1.405   .     A
C345   C389    1.395   .     A
C345   H503    1.084   .     S
C345   C1066   1.394   .     S
C346   C462    1.405   .     A
C346   C433    1.405   .     A
C346   C426    1.456   .     S
C347   C432    1.405   .     A
C347   C427    1.457   .     S
C347   C465    1.405   .     A
C348   C428    1.457   .     S
C348   C464    1.405   .     A
C348   C431    1.405   .     A
C349   C412    1.472   .     S
C349   C383    1.417   .     A
C349   C1042   1.418   1_545 S
C350   C384    1.417   .     A
C350   C411    1.472   .     S
C350   C1043   1.418   1_545 S
C351   C410    1.470   .     S
C351   C385    1.418   .     A
C352   C409    1.474   .     S
C352   C382    1.418   .     A
C352   C54     1.418   1_655 S
C353   C408    1.472   .     S
C353   C387    1.418   .     A
C353   C59     1.417   1_655 S
C354   C388    1.418   .     A
C354   C407    1.472   .     S
C355   C406    1.473   .     S
C355   C389    1.418   .     A
C355   C1058   1.417   .     S
C356   H504    1.084   .     S
C356   C390    1.395   .     A
C356   C1068   1.394   1_545 S
C357   C405    1.472   .     S
C357   C390    1.418   .     A
C357   C1059   1.417   1_545 S
C358   N581    1.447   .     S
C358   H513    1.110   .     S
C358   H510    1.112   .     S
C358   H1175   1.111   .     S
C359   N589    1.447   .     S
C359   H515    1.112   .     S
C359   H517    1.110   .     S
C359   H1180   1.111   .     S
C360   H519    1.112   .     S
C360   H521    1.110   .     S
C360   N590    1.447   .     S
C360   H520    1.111   .     S
C361   H525    1.111   .     S
C361   N591    1.447   .     S
C361   H526    1.109   .     S
C361   H524    1.112   .     S
C362   N592    1.447   .     S
C362   H530    1.111   .     S
C362   H528    1.112   .     S
C362   H529    1.110   .     S
C363   H532    1.112   .     S
C363   N593    1.447   .     S
C363   H535    1.111   .     S
C363   H533    1.110   .     S
C364   H538    1.111   .     S
C364   H537    1.112   .     S
C364   H539    1.110   .     S
C364   N594    1.447   .     S
C365   H542    1.110   .     S
C365   N595    1.447   .     S
C365   H541    1.112   .     S
C366   H547    1.110   .     S
C366   H546    1.112   .     S
C366   N596    1.447   .     S
C366   H548    1.111   .     S
C367   H505    1.084   .     S
C367   C391    1.396   .     A
C367   C400    1.396   .     A
C368   N582    1.447   .     S
C368   H551    1.110   .     S
C368   H550    1.112   .     S
C368   H552    1.111   .     S
C369   N583    1.447   .     S
C369   H555    1.111   .     S
C369   H557    1.110   .     S
C369   H554    1.112   .     S
C370   N584    1.447   .     S
C370   H561    1.110   .     S
C370   H559    1.112   .     S
C370   H560    1.111   .     S
C371   H565    1.110   .     S
C371   N585    1.447   .     S
C371   H564    1.111   .     S
C371   H563    1.112   .     S
C372   N586    1.447   .     S
C372   H570    1.110   .     S
C372   H568    1.112   .     S
C372   H569    1.111   .     S
C373   H572    1.112   .     S
C373   H573    1.110   .     S
C373   N587    1.447   .     S
C373   H574    1.111   .     S
C374   H577    1.110   .     S
C374   H579    1.111   .     S
C374   N588    1.447   .     S
C374   H576    1.112   .     S
C375   C393    1.396   .     A
C375   C401    1.396   .     A
C375   H506    1.084   .     S
C376   H507    1.084   .     S
C376   C402    1.396   .     A
C376   C394    1.396   .     A
C377   C404    1.396   .     A
C377   H508    1.084   .     S
C377   C395    1.396   .     A
C378   N581    1.423   .     S
C378   C1013   1.418   .     S
C379   N589    1.423   .     S
C379   C381    1.395   .     A
C379   C1014   1.418   .     S
C380   N590    1.424   .     S
C380   C392    1.396   .     A
C380   C19     1.417   1_655 S
C381   C397    1.394   .     A
C381   H512    1.084   .     S
C382   C403    1.397   .     A
C382   N591    1.424   .     S
C383   N592    1.424   .     S
C383   C414    1.396   .     A
C384   N593    1.424   .     S
C384   C425    1.396   .     A
C385   C436    1.396   .     A
C385   N594    1.424   .     S
C386   N595    1.423   .     S
C386   C447    1.395   .     A
C387   C458    1.395   .     A
C387   N596    1.423   .     S
C388   N582    1.423   .     S
C389   N583    1.423   .     S
C390   N584    1.423   .     S
C391   N585    1.424   .     S
C392   H523    1.084   .     S
C392   C66     1.396   1_655 S
C393   N586    1.424   .     S
C393   C22     1.417   1_655 S
C394   N587    1.424   .     S
C394   C1019   1.417   1_545 S
C395   N588    1.424   .     S
C395   C1021   1.417   .     S
C396   C397    1.459   1_554 S
C396   C1078   1.396   .     S
C397   C396    1.459   1_556 S
C397   C1089   1.396   .     S
C398   C436    1.395   .     A
C398   C399    1.459   1_554 S
C399   C447    1.394   .     A
C399   C398    1.459   1_556 S
C401   C2      1.394   1_655 S
C401   C68     1.459   1_655 S
C402   C1009   1.394   1_545 S
C402   C1068   1.459   1_545 S
C403   H534    1.084   .     S
C403   C67     1.395   1_655 S
C404   C1020   1.394   .     S
C404   C1066   1.459   .     S
C405   O648    1.281   .     A
C405   O1305   1.286   1_545 S
C406   O598    1.281   .     A
C406   O1309   1.286   .     S
C407   O646    1.281   .     A
C408   O647    1.281   .     A
C408   O268    1.286   1_655 S
C409   O269    1.282   1_655 S
C409   O273    1.286   1_655 S
C410   O602    1.282   .     S
C410   O606    1.283   .     S
C411   O603    1.281   .     A
C411   O607    1.286   .     A
C412   O604    1.281   .     A
C412   O609    1.286   .     A
C413   C468    1.456   .     S
C413   O610    1.280   .     A
C413   O638    1.280   .     A
C414   H545    1.084   .     S
C414   C1060   1.396   1_545 S
C415   O611    1.280   .     A
C415   O639    1.280   .     A
C416   O612    1.280   .     A
C416   O636    1.281   .     A
C417   O613    1.280   .     A
C417   O637    1.281   .     A
C418   O643    1.281   .     A
C418   O614    1.281   .     A
C419   O644    1.281   .     A
C419   O615    1.281   .     A
C420   O616    1.280   .     A
C420   O640    1.280   .     A
C420   C466    1.457   .     S
C421   O617    1.280   .     A
C421   C467    1.456   .     S
C421   O642    1.280   .     A
C422   O618    1.281   .     A
C422   O629    1.280   .     A
C423   O620    1.281   .     A
C423   O631    1.280   .     A
C424   O627    1.280   .     A
C424   O621    1.280   .     A
C425   H556    1.084   .     S
C425   C1061   1.396   1_545 S
C426   O622    1.280   .     A
C426   O628    1.280   .     A
C427   O623    1.280   .     A
C427   O634    1.280   .     A
C428   O635    1.280   .     A
C428   O624    1.280   .     A
C429   O632    1.281   .     A
C429   O625    1.281   .     A
C430   O633    1.281   .     A
C430   O626    1.281   .     A
C431   C448    1.385   .     A
C431   F469    1.359   .     S
C432   C446    1.387   .     A
C432   F480    1.359   .     S
C433   C445    1.387   .     A
C433   F491    1.358   .     S
C434   F495    1.358   .     S
C434   C444    1.385   .     A
C435   F496    1.358   .     S
C435   C443    1.385   .     A
C436   H567    1.084   .     S
C437   C442    1.387   .     A
C437   F497    1.358   .     S
C438   F498    1.358   .     S
C438   C441    1.387   .     A
C439   F499    1.359   .     S
C439   C440    1.385   .     A
C440   F500    1.358   .     S
C441   F470    1.358   .     S
C442   F471    1.358   .     S
C443   F472    1.358   .     S
C444   F473    1.359   .     S
C445   F474    1.359   .     S
C445   C468    1.404   .     A
C446   F475    1.359   .     S
C446   C467    1.405   .     A
C447   H578    1.084   .     S
C448   F476    1.358   .     S
C448   C466    1.405   .     A
C449   C465    1.387   .     A
C449   C467    1.404   .     A
C449   F477    1.359   .     S
C450   C466    1.405   .     A
C450   C464    1.385   .     A
C450   F478    1.359   .     S
C451   C463    1.386   .     A
C451   F479    1.359   .     S
C452   F481    1.359   .     S
C452   C468    1.405   .     A
C452   C462    1.387   .     A
C453   C461    1.387   .     A
C453   F482    1.359   .     S
C454   C460    1.385   .     A
C454   F483    1.358   .     S
C455   F484    1.358   .     S
C455   C459    1.384   .     A
C456   F485    1.358   .     S
C456   C457    1.387   .     A
C457   F486    1.358   .     S
C458   H580    1.084   .     S
C458   C68     1.394   1_655 S
C459   F487    1.358   .     S
C460   F488    1.359   .     S
C461   F489    1.359   .     S
C462   F490    1.359   .     S
C463   F492    1.359   .     S
C464   F493    1.358   .     S
C465   F494    1.359   .     S
H509   N581    1.032   .     S
H511   C1022   1.111   1_545 S
H514   N589    1.032   .     S
H516   C1023   1.111   1_545 S
H518   N590    1.032   .     S
H522   N591    1.032   .     S
H527   N592    1.032   .     S
H531   N593    1.032   .     S
H536   N594    1.032   .     S
H540   N595    1.032   .     S
H543   C33     1.111   1_655 S
H544   N596    1.032   .     S
H549   N582    1.032   .     S
H553   N583    1.032   .     S
H558   N584    1.032   .     S
H562   N585    1.032   .     S
H566   N586    1.032   .     S
H571   N587    1.032   .     S
H575   N588    1.032   .     S
O597   Zn652   1.947   .     S
O597   Zn649   1.946   .     S
O597   Zn660   1.948   .     S
O597   Zn1320  1.948   1_545 S
O598   Zn651   1.942   .     S
O599   Zn654   1.941   .     S
O599   C75     1.286   1_655 S
O600   Zn653   1.941   .     S
O601   Zn663   1.941   .     S
O602   Zn662   1.941   .     S
O603   Zn657   1.942   .     S
O604   Zn649   1.942   .     S
O605   Zn659   1.942   .     S
O606   Zn658   1.942   .     S
O607   Zn661   1.941   .     S
O608   Zn655   1.948   .     S
O608   Zn657   1.946   .     S
O608   Zn661   1.948   .     S
O608   Zn1315  1.947   1_545 S
O609   Zn660   1.941   .     S
O610   Zn652   1.938   .     S
O611   Zn651   1.938   .     S
O612   Zn654   1.938   .     S
O613   Zn653   1.938   .     S
O614   Zn656   1.939   .     S
O615   Zn655   1.939   .     S
O616   Zn650   1.939   .     S
O617   Zn664   1.939   .     S
O618   Zn651   1.939   .     S
O619   Zn650   1.946   .     S
O619   Zn658   1.947   .     S
O619   Zn662   1.948   .     S
O620   Zn652   1.939   .     S
O621   Zn664   1.938   .     S
O622   Zn650   1.938   .     S
O623   Zn655   1.938   .     S
O624   Zn656   1.938   .     S
O625   Zn653   1.938   .     S
O626   Zn654   1.938   .     S
O627   Zn327   1.938   1_655 S
O628   Zn658   1.938   .     S
O629   Zn1325  1.938   .     S
O630   Zn653   1.948   .     S
O630   Zn659   1.947   .     S
O630   Zn663   1.948   .     S
O631   Zn660   1.938   .     S
O632   Zn663   1.939   .     S
O633   Zn330   1.939   1_655 S
O634   Zn657   1.939   .     S
O635   Zn1313  1.939   .     S
O636   Zn326   1.939   1_655 S
O637   Zn659   1.939   .     S
O638   Zn649   1.938   .     S
O639   Zn1321  1.938   .     S
O640   Zn662   1.938   .     S
O641   Zn656   1.941   .     S
O641   C1069   1.286   .     S
O642   Zn331   1.938   1_655 S
O643   Zn1324  1.938   .     S
O644   Zn661   1.938   .     S
O645   Zn655   1.941   .     S
O645   C1070   1.286   1_545 S
O646   Zn650   1.942   .     S
O647   Zn664   1.942   .     S
O648   Zn652   1.942   .     S
Zn649  O1299   1.939   1_545 S
Zn651  O1272   1.947   .     S
Zn654  O287    1.948   1_655 S
Zn656  O1261   1.948   .     S
Zn657  O1303   1.938   1_545 S
Zn660  O1307   1.938   1_545 S
Zn661  O1293   1.938   1_545 S
Zn664  O298    1.946   1_655 S
C665   C710    1.395   .     A
C665   C728    1.394   .     A
C665   H833    1.084   .     S
C666   C720    1.395   .     A
C666   H834    1.084   .     S
C666   C1065   1.394   1_455 S
C667   C776    1.405   .     A
C667   C747    1.456   .     S
C667   C783    1.405   .     A
C668   C748    1.457   .     S
C668   C786    1.405   .     A
C668   C775    1.405   .     A
C669   C774    1.404   .     A
C669   C749    1.457   .     S
C669   C785    1.405   .     A
C670   C773    1.405   .     A
C670   C750    1.457   .     S
C670   C788    1.405   .     A
C671   C787    1.405   .     A
C671   C751    1.457   .     S
C671   C772    1.405   .     A
C672   C771    1.405   .     A
C672   C761    1.457   .     S
C672   C791    1.405   .     A
C673   C789    1.405   .     A
C673   C762    1.457   .     S
C673   C770    1.405   .     A
C674   C793    1.405   .     A
C674   C754    1.457   .     S
C674   C769    1.405   .     A
C675   C755    1.457   .     S
C675   C792    1.405   .     A
C675   C767    1.405   .     A
C676   C766    1.405   .     A
C676   C756    1.457   .     S
C676   C795    1.405   .     A
C677   C721    1.395   .     A
C677   H835    1.084   .     S
C677   C70     1.394   1_565 S
C678   C794    1.405   .     A
C678   C765    1.405   .     A
C678   C758    1.456   .     S
C679   C764    1.405   .     A
C679   C759    1.457   .     S
C679   C797    1.405   .     A
C680   C760    1.457   .     S
C680   C796    1.405   .     A
C680   C763    1.405   .     A
C681   C744    1.472   .     S
C681   C715    1.417   .     A
C682   C716    1.417   .     A
C682   C743    1.472   .     S
C683   C742    1.470   .     S
C683   C717    1.418   .     A
C683   C1044   1.417   1_455 S
C684   C741    1.474   .     S
C684   C714    1.418   .     A
C684   C1050   1.418   .     S
C685   C740    1.472   .     S
C685   C719    1.418   .     A
C685   C1055   1.417   .     S
C686   C720    1.418   .     A
C686   C739    1.472   .     S
C686   C1057   1.417   1_455 S
C687   C738    1.473   .     S
C687   C721    1.418   .     A
C687   C62     1.417   1_565 S
C688   H836    1.084   .     S
C688   C722    1.395   .     A
C689   C737    1.472   .     S
C689   C722    1.418   .     A
C690   N913    1.447   .     S
C690   H845    1.110   .     S
C690   H842    1.112   .     S
C690   H179    1.111   1_565 S
C691   N921    1.447   .     S
C691   H847    1.112   .     S
C691   H849    1.110   .     S
C691   H184    1.111   1_565 S
C692   H851    1.112   .     S
C692   H853    1.110   .     S
C692   N922    1.447   .     S
C692   H852    1.111   .     S
C693   H857    1.111   .     S
C693   N923    1.447   .     S
C693   H858    1.109   .     S
C693   H856    1.112   .     S
C694   N924    1.447   .     S
C694   H862    1.111   .     S
C694   H860    1.112   .     S
C694   H861    1.110   .     S
C695   H864    1.112   .     S
C695   N925    1.447   .     S
C695   H867    1.111   .     S
C695   H865    1.110   .     S
C696   H870    1.111   .     S
C696   H869    1.112   .     S
C696   H871    1.110   .     S
C696   N926    1.447   .     S
C697   H874    1.110   .     S
C697   N927    1.447   .     S
C697   H873    1.112   .     S
C697   H1207   1.111   1_455 S
C698   H879    1.110   .     S
C698   H878    1.112   .     S
C698   N928    1.447   .     S
C698   H880    1.111   .     S
C699   H837    1.084   .     S
C699   C723    1.396   .     A
C699   C732    1.396   .     A
C700   N914    1.447   .     S
C700   H883    1.110   .     S
C700   H882    1.112   .     S
C700   H884    1.111   .     S
C701   N915    1.447   .     S
C701   H887    1.111   .     S
C701   H889    1.110   .     S
C701   H886    1.112   .     S
C702   N916    1.447   .     S
C702   H893    1.110   .     S
C702   H891    1.112   .     S
C702   H892    1.111   .     S
C703   H897    1.110   .     S
C703   N917    1.447   .     S
C703   H896    1.111   .     S
C703   H895    1.112   .     S
C704   N918    1.447   .     S
C704   H902    1.110   .     S
C704   H900    1.112   .     S
C704   H901    1.111   .     S
C705   H904    1.112   .     S
C705   H905    1.110   .     S
C705   N919    1.447   .     S
C705   H906    1.111   .     S
C706   H909    1.110   .     S
C706   H911    1.111   .     S
C706   N920    1.447   .     S
C706   H908    1.112   .     S
C707   C725    1.396   .     A
C707   C733    1.396   .     A
C707   H838    1.084   .     S
C708   H839    1.084   .     S
C708   C734    1.396   .     A
C708   C726    1.396   .     A
C709   C736    1.396   .     A
C709   H840    1.084   .     S
C709   C727    1.396   .     A
C710   N913    1.423   .     S
C710   C17     1.418   1_565 S
C711   N921    1.423   .     S
C711   C713    1.395   .     A
C711   C18     1.418   1_565 S
C712   N922    1.424   .     S
C712   C724    1.396   .     A
C712   C1015   1.417   .     S
C713   C729    1.394   .     A
C713   H844    1.084   .     S
C714   C735    1.397   .     A
C714   N923    1.424   .     S
C715   N924    1.424   .     S
C715   C746    1.396   .     A
C716   N925    1.424   .     S
C716   C757    1.396   .     A
C717   C768    1.396   .     A
C717   N926    1.424   .     S
C718   N927    1.423   .     S
C718   C779    1.395   .     A
C718   C1016   1.418   1_455 S
C719   C790    1.395   .     A
C719   N928    1.423   .     S
C720   N914    1.423   .     S
C721   N915    1.423   .     S
C722   N916    1.423   .     S
C723   N917    1.424   .     S
C723   C1017   1.417   1_455 S
C724   H855    1.084   .     S
C724   C1062   1.396   .     S
C725   N918    1.424   .     S
C725   C1018   1.417   .     S
C726   N919    1.424   .     S
C727   N920    1.424   .     S
C727   C25     1.417   1_565 S
C728   C729    1.459   1_554 S
C728   C82     1.396   1_565 S
C729   C728    1.459   1_556 S
C729   C93     1.396   1_565 S
C730   C768    1.395   .     A
C730   C1056   1.396   1_455 S
C730   C731    1.459   1_554 S
C731   C779    1.394   .     A
C731   C730    1.459   1_556 S
C731   C1067   1.395   1_455 S
C732   C1065   1.459   1_455 S
C732   C1122   1.394   1_455 S
C733   C998    1.394   .     S
C733   C1064   1.459   .     S
C735   H866    1.084   .     S
C735   C1063   1.395   .     S
C736   C24     1.394   1_565 S
C736   C70     1.459   1_565 S
C737   O980    1.281   .     A
C738   O930    1.281   .     A
C738   O313    1.286   1_565 S
C739   O978    1.281   .     A
C739   O1263   1.286   1_455 S
C740   O979    1.281   .     A
C740   O1264   1.286   .     S
C741   O1265   1.282   .     S
C741   O1269   1.286   .     S
C742   O934    1.282   .     S
C742   O938    1.283   .     S
C743   O935    1.281   .     A
C743   O939    1.286   .     A
C744   O936    1.281   .     A
C744   O941    1.286   .     A
C745   C800    1.456   .     S
C745   O942    1.280   .     A
C745   O970    1.280   .     A
C746   H877    1.084   .     S
C747   O943    1.280   .     A
C747   O971    1.280   .     A
C748   O944    1.280   .     A
C748   O968    1.281   .     A
C749   O945    1.280   .     A
C749   O969    1.281   .     A
C750   O975    1.281   .     A
C750   O946    1.281   .     A
C751   O976    1.281   .     A
C751   O947    1.281   .     A
C752   O948    1.280   .     A
C752   O972    1.280   .     A
C752   C798    1.457   .     S
C753   O949    1.280   .     A
C753   C799    1.456   .     S
C753   O974    1.280   .     A
C754   O950    1.281   .     A
C754   O961    1.280   .     A
C755   O952    1.281   .     A
C755   O963    1.280   .     A
C756   O959    1.280   .     A
C756   O953    1.280   .     A
C757   H888    1.084   .     S
C758   O954    1.280   .     A
C758   O960    1.280   .     A
C759   O955    1.280   .     A
C759   O966    1.280   .     A
C760   O967    1.280   .     A
C760   O956    1.280   .     A
C761   O964    1.281   .     A
C761   O957    1.281   .     A
C762   O965    1.281   .     A
C762   O958    1.281   .     A
C763   C780    1.385   .     A
C763   F801    1.359   .     S
C764   C778    1.387   .     A
C764   F812    1.359   .     S
C765   C777    1.387   .     A
C765   F823    1.358   .     S
C766   F827    1.358   .     S
C766   C776    1.385   .     A
C767   F828    1.358   .     S
C767   C775    1.385   .     A
C768   H899    1.084   .     S
C769   C774    1.387   .     A
C769   F829    1.358   .     S
C770   F830    1.358   .     S
C770   C773    1.387   .     A
C771   F831    1.359   .     S
C771   C772    1.385   .     A
C772   F832    1.358   .     S
C773   F802    1.358   .     S
C774   F803    1.358   .     S
C775   F804    1.358   .     S
C776   F805    1.359   .     S
C777   F806    1.359   .     S
C777   C800    1.404   .     A
C778   F807    1.359   .     S
C778   C799    1.405   .     A
C779   H910    1.084   .     S
C780   F808    1.358   .     S
C780   C798    1.405   .     A
C781   C797    1.387   .     A
C781   C799    1.404   .     A
C781   F809    1.359   .     S
C782   C798    1.405   .     A
C782   C796    1.385   .     A
C782   F810    1.359   .     S
C783   C795    1.386   .     A
C783   F811    1.359   .     S
C784   F813    1.359   .     S
C784   C800    1.405   .     A
C784   C794    1.387   .     A
C785   C793    1.387   .     A
C785   F814    1.359   .     S
C786   C792    1.385   .     A
C786   F815    1.358   .     S
C787   F816    1.358   .     S
C787   C791    1.384   .     A
C788   F817    1.358   .     S
C788   C789    1.387   .     A
C789   F818    1.358   .     S
C790   H912    1.084   .     S
C790   C1064   1.394   .     S
C791   F819    1.358   .     S
C792   F820    1.359   .     S
C793   F821    1.359   .     S
C794   F822    1.359   .     S
C795   F824    1.359   .     S
C796   F825    1.358   .     S
C797   F826    1.359   .     S
H841   N913    1.032   .     S
H846   N921    1.032   .     S
H850   N922    1.032   .     S
H854   N923    1.032   .     S
H859   N924    1.032   .     S
H863   N925    1.032   .     S
H868   N926    1.032   .     S
H872   N927    1.032   .     S
H875   C1029   1.111   .     S
H876   N928    1.032   .     S
H881   N914    1.032   .     S
H885   N915    1.032   .     S
H890   N916    1.032   .     S
H894   N917    1.032   .     S
H898   N918    1.032   .     S
H903   N919    1.032   .     S
H907   N920    1.032   .     S
O929   Zn984   1.947   .     S
O929   Zn981   1.946   .     S
O929   Zn992   1.948   .     S
O930   Zn983   1.942   .     S
O931   Zn986   1.941   .     S
O931   C1071   1.286   .     S
O932   Zn985   1.941   .     S
O932   C1072   1.286   1_455 S
O933   Zn995   1.941   .     S
O933   C1073   1.282   1_455 S
O934   Zn994   1.941   .     S
O935   Zn989   1.942   .     S
O936   Zn981   1.942   .     S
O937   Zn991   1.942   .     S
O937   C1073   1.286   1_455 S
O938   Zn990   1.942   .     S
O939   Zn993   1.941   .     S
O940   Zn987   1.948   .     S
O940   Zn989   1.946   .     S
O940   Zn993   1.948   .     S
O941   Zn992   1.941   .     S
O942   Zn984   1.938   .     S
O943   Zn983   1.938   .     S
O944   Zn986   1.938   .     S
O945   Zn985   1.938   .     S
O946   Zn988   1.939   .     S
O947   Zn987   1.939   .     S
O948   Zn982   1.939   .     S
O949   Zn996   1.939   .     S
O950   Zn983   1.939   .     S
O951   Zn982   1.946   .     S
O951   Zn990   1.947   .     S
O951   Zn994   1.948   .     S
O951   Zn1318  1.948   1_455 S
O952   Zn984   1.939   .     S
O953   Zn996   1.938   .     S
O954   Zn982   1.938   .     S
O955   Zn987   1.938   .     S
O956   Zn988   1.938   .     S
O957   Zn985   1.938   .     S
O958   Zn986   1.938   .     S
O959   Zn1323  1.938   .     S
O960   Zn990   1.938   .     S
O961   Zn329   1.938   1_565 S
O962   Zn985   1.948   .     S
O962   Zn991   1.947   .     S
O962   Zn995   1.948   .     S
O962   Zn1328  1.946   1_455 S
O963   Zn992   1.938   .     S
O964   Zn995   1.939   .     S
O965   Zn1326  1.939   .     S
O966   Zn989   1.939   .     S
O967   Zn317   1.939   1_565 S
O968   Zn1322  1.939   .     S
O969   Zn991   1.939   .     S
O970   Zn981   1.938   .     S
O971   Zn325   1.938   1_565 S
O972   Zn994   1.938   .     S
O973   Zn988   1.941   .     S
O973   C73     1.286   1_565 S
O974   Zn1327  1.938   .     S
O975   Zn328   1.938   1_565 S
O976   Zn993   1.938   .     S
O977   Zn987   1.941   .     S
O978   Zn982   1.942   .     S
O979   Zn996   1.942   .     S
O980   Zn984   1.942   .     S
Zn983  O276    1.947   1_565 S
Zn986  O1283   1.948   .     S
Zn988  O265    1.948   1_565 S
Zn990  O1300   1.939   1_455 S
Zn991  O1291   1.938   1_455 S
Zn994  O1297   1.939   1_455 S
Zn995  O1306   1.938   1_455 S
Zn996  O1294   1.946   .     S
C997   C1042   1.395   .     A
C997   C1060   1.394   .     A
C997   H1165   1.084   .     S
C998   C1052   1.395   .     A
C998   H1166   1.084   .     S
C999   C1108   1.405   .     A
C999   C1079   1.456   .     S
C999   C1115   1.405   .     A
C1000  C1080   1.457   .     S
C1000  C1118   1.405   .     A
C1000  C1107   1.405   .     A
C1001  C1106   1.404   .     A
C1001  C1081   1.457   .     S
C1001  C1117   1.405   .     A
C1002  C1105   1.405   .     A
C1002  C1082   1.457   .     S
C1002  C1120   1.405   .     A
C1003  C1119   1.405   .     A
C1003  C1083   1.457   .     S
C1003  C1104   1.405   .     A
C1004  C1103   1.405   .     A
C1004  C1093   1.457   .     S
C1004  C1123   1.405   .     A
C1005  C1121   1.405   .     A
C1005  C1094   1.457   .     S
C1005  C1102   1.405   .     A
C1006  C1125   1.405   .     A
C1006  C1086   1.457   .     S
C1006  C1101   1.405   .     A
C1007  C1087   1.457   .     S
C1007  C1124   1.405   .     A
C1007  C1099   1.405   .     A
C1008  C1098   1.405   .     A
C1008  C1088   1.457   .     S
C1008  C1127   1.405   .     A
C1009  C1053   1.395   .     A
C1009  H1167   1.084   .     S
C1009  C402    1.394   1_565 S
C1010  C1126   1.405   .     A
C1010  C1097   1.405   .     A
C1010  C1090   1.456   .     S
C1011  C1096   1.405   .     A
C1011  C1091   1.457   .     S
C1011  C1129   1.405   .     A
C1012  C1092   1.457   .     S
C1012  C1128   1.405   .     A
C1012  C1095   1.405   .     A
C1013  C1076   1.472   .     S
C1013  C1047   1.417   .     A
C1014  C1048   1.417   .     A
C1014  C1075   1.472   .     S
C1015  C1074   1.470   .     S
C1015  C1049   1.418   .     A
C1016  C1073   1.474   .     S
C1016  C1046   1.418   .     A
C1016  C718    1.418   1_655 S
C1017  C1072   1.472   .     S
C1017  C1051   1.418   .     A
C1017  C723    1.417   1_655 S
C1018  C1052   1.418   .     A
C1018  C1071   1.472   .     S
C1019  C1070   1.473   .     S
C1019  C1053   1.418   .     A
C1019  C394    1.417   1_565 S
C1020  H1168   1.084   .     S
C1020  C1054   1.395   .     A
C1021  C1069   1.472   .     S
C1021  C1054   1.418   .     A
C1022  N1245   1.447   .     S
C1022  H1177   1.110   .     S
C1022  H1174   1.112   .     S
C1022  H511    1.111   1_565 S
C1023  N1253   1.447   .     S
C1023  H1179   1.112   .     S
C1023  H1181   1.110   .     S
C1023  H516    1.111   1_565 S
C1024  H1183   1.112   .     S
C1024  H1185   1.110   .     S
C1024  N1254   1.447   .     S
C1024  H1184   1.111   .     S
C1025  H1189   1.111   .     S
C1025  N1255   1.447   .     S
C1025  H1190   1.109   .     S
C1025  H1188   1.112   .     S
C1026  N1256   1.447   .     S
C1026  H1194   1.111   .     S
C1026  H1192   1.112   .     S
C1026  H1193   1.110   .     S
C1027  H1196   1.112   .     S
C1027  N1257   1.447   .     S
C1027  H1199   1.111   .     S
C1027  H1197   1.110   .     S
C1028  H1202   1.111   .     S
C1028  H1201   1.112   .     S
C1028  H1203   1.110   .     S
C1028  N1258   1.447   .     S
C1029  H1206   1.110   .     S
C1029  N1259   1.447   .     S
C1029  H1205   1.112   .     S
C1030  H1211   1.110   .     S
C1030  H1210   1.112   .     S
C1030  N1260   1.447   .     S
C1030  H1212   1.111   .     S
C1031  H1169   1.084   .     S
C1031  C1055   1.396   .     A
C1031  C1064   1.396   .     A
C1032  N1246   1.447   .     S
C1032  H1215   1.110   .     S
C1032  H1214   1.112   .     S
C1032  H1216   1.111   .     S
C1033  N1247   1.447   .     S
C1033  H1219   1.111   .     S
C1033  H1221   1.110   .     S
C1033  H1218   1.112   .     S
C1034  N1248   1.447   .     S
C1034  H1225   1.110   .     S
C1034  H1223   1.112   .     S
C1034  H1224   1.111   .     S
C1035  H1229   1.110   .     S
C1035  N1249   1.447   .     S
C1035  H1228   1.111   .     S
C1035  H1227   1.112   .     S
C1036  N1250   1.447   .     S
C1036  H1234   1.110   .     S
C1036  H1232   1.112   .     S
C1036  H1233   1.111   .     S
C1037  H1236   1.112   .     S
C1037  H1237   1.110   .     S
C1037  N1251   1.447   .     S
C1037  H1238   1.111   .     S
C1038  H1241   1.110   .     S
C1038  H1243   1.111   .     S
C1038  N1252   1.447   .     S
C1038  H1240   1.112   .     S
C1039  C1057   1.396   .     A
C1039  C1065   1.396   .     A
C1039  H1170   1.084   .     S
C1040  H1171   1.084   .     S
C1040  C1066   1.396   .     A
C1040  C1058   1.396   .     A
C1041  C1068   1.396   .     A
C1041  H1172   1.084   .     S
C1041  C1059   1.396   .     A
C1042  N1245   1.423   .     S
C1042  C349    1.418   1_565 S
C1043  N1253   1.423   .     S
C1043  C1045   1.395   .     A
C1043  C350    1.418   1_565 S
C1044  N1254   1.424   .     S
C1044  C1056   1.396   .     A
C1044  C683    1.417   1_655 S
C1045  C1061   1.394   .     A
C1045  H1176   1.084   .     S
C1046  C1067   1.397   .     A
C1046  N1255   1.424   .     S
C1047  N1256   1.424   .     S
C1047  C1078   1.396   .     A
C1048  N1257   1.424   .     S
C1048  C1089   1.396   .     A
C1049  C1100   1.396   .     A
C1049  N1258   1.424   .     S
C1050  N1259   1.423   .     S
C1050  C1111   1.395   .     A
C1051  C1122   1.395   .     A
C1051  N1260   1.423   .     S
C1052  N1246   1.423   .     S
C1053  N1247   1.423   .     S
C1054  N1248   1.423   .     S
C1055  N1249   1.424   .     S
C1056  H1187   1.084   .     S
C1056  C730    1.396   1_655 S
C1057  N1250   1.424   .     S
C1057  C686    1.417   1_655 S
C1058  N1251   1.424   .     S
C1059  N1252   1.424   .     S
C1059  C357    1.417   1_565 S
C1060  C1061   1.459   1_554 S
C1060  C414    1.396   1_565 S
C1061  C1060   1.459   1_556 S
C1061  C425    1.396   1_565 S
C1062  C1100   1.395   .     A
C1062  C1063   1.459   1_554 S
C1063  C1111   1.394   .     A
C1063  C1062   1.459   1_556 S
C1065  C666    1.394   1_655 S
C1065  C732    1.459   1_655 S
C1067  H1198   1.084   .     S
C1067  C731    1.395   1_655 S
C1068  C356    1.394   1_565 S
C1068  C402    1.459   1_565 S
C1069  O1312   1.281   .     A
C1070  O1262   1.281   .     A
C1070  O645    1.286   1_565 S
C1071  O1310   1.281   .     A
C1072  O1311   1.281   .     A
C1072  O932    1.286   1_655 S
C1073  O933    1.282   1_655 S
C1073  O937    1.286   1_655 S
C1074  O1266   1.282   .     S
C1074  O1270   1.283   .     S
C1075  O1267   1.281   .     A
C1075  O1271   1.286   .     A
C1076  O1268   1.281   .     A
C1076  O1273   1.286   .     A
C1077  C1132   1.456   .     S
C1077  O1274   1.280   .     A
C1077  O1302   1.280   .     A
C1078  H1209   1.084   .     S
C1079  O1275   1.280   .     A
C1079  O1303   1.280   .     A
C1080  O1276   1.280   .     A
C1080  O1300   1.281   .     A
C1081  O1277   1.280   .     A
C1081  O1301   1.281   .     A
C1082  O1307   1.281   .     A
C1082  O1278   1.281   .     A
C1083  O1308   1.281   .     A
C1083  O1279   1.281   .     A
C1084  O1280   1.280   .     A
C1084  O1304   1.280   .     A
C1084  C1130   1.457   .     S
C1085  O1281   1.280   .     A
C1085  C1131   1.456   .     S
C1085  O1306   1.280   .     A
C1086  O1282   1.281   .     A
C1086  O1293   1.280   .     A
C1087  O1284   1.281   .     A
C1087  O1295   1.280   .     A
C1088  O1291   1.280   .     A
C1088  O1285   1.280   .     A
C1089  H1220   1.084   .     S
C1090  O1286   1.280   .     A
C1090  O1292   1.280   .     A
C1091  O1287   1.280   .     A
C1091  O1298   1.280   .     A
C1092  O1299   1.280   .     A
C1092  O1288   1.280   .     A
C1093  O1296   1.281   .     A
C1093  O1289   1.281   .     A
C1094  O1297   1.281   .     A
C1094  O1290   1.281   .     A
C1095  C1112   1.385   .     A
C1095  F1133   1.359   .     S
C1096  C1110   1.387   .     A
C1096  F1144   1.359   .     S
C1097  C1109   1.387   .     A
C1097  F1155   1.358   .     S
C1098  F1159   1.358   .     S
C1098  C1108   1.385   .     A
C1099  F1160   1.358   .     S
C1099  C1107   1.385   .     A
C1100  H1231   1.084   .     S
C1101  C1106   1.387   .     A
C1101  F1161   1.358   .     S
C1102  F1162   1.358   .     S
C1102  C1105   1.387   .     A
C1103  F1163   1.359   .     S
C1103  C1104   1.385   .     A
C1104  F1164   1.358   .     S
C1105  F1134   1.358   .     S
C1106  F1135   1.358   .     S
C1107  F1136   1.358   .     S
C1108  F1137   1.359   .     S
C1109  F1138   1.359   .     S
C1109  C1132   1.404   .     A
C1110  F1139   1.359   .     S
C1110  C1131   1.405   .     A
C1111  H1242   1.084   .     S
C1112  F1140   1.358   .     S
C1112  C1130   1.405   .     A
C1113  C1129   1.387   .     A
C1113  C1131   1.404   .     A
C1113  F1141   1.359   .     S
C1114  C1130   1.405   .     A
C1114  C1128   1.385   .     A
C1114  F1142   1.359   .     S
C1115  C1127   1.386   .     A
C1115  F1143   1.359   .     S
C1116  F1145   1.359   .     S
C1116  C1132   1.405   .     A
C1116  C1126   1.387   .     A
C1117  C1125   1.387   .     A
C1117  F1146   1.359   .     S
C1118  C1124   1.385   .     A
C1118  F1147   1.358   .     S
C1119  F1148   1.358   .     S
C1119  C1123   1.384   .     A
C1120  F1149   1.358   .     S
C1120  C1121   1.387   .     A
C1121  F1150   1.358   .     S
C1122  H1244   1.084   .     S
C1122  C732    1.394   1_655 S
C1123  F1151   1.358   .     S
C1124  F1152   1.359   .     S
C1125  F1153   1.359   .     S
C1126  F1154   1.359   .     S
C1127  F1156   1.359   .     S
C1128  F1157   1.358   .     S
C1129  F1158   1.359   .     S
H1173  N1245   1.032   .     S
H1178  N1253   1.032   .     S
H1182  N1254   1.032   .     S
H1186  N1255   1.032   .     S
H1191  N1256   1.032   .     S
H1195  N1257   1.032   .     S
H1200  N1258   1.032   .     S
H1204  N1259   1.032   .     S
H1207  C697    1.111   1_655 S
H1208  N1260   1.032   .     S
H1213  N1246   1.032   .     S
H1217  N1247   1.032   .     S
H1222  N1248   1.032   .     S
H1226  N1249   1.032   .     S
H1230  N1250   1.032   .     S
H1235  N1251   1.032   .     S
H1239  N1252   1.032   .     S
O1261  Zn1316  1.947   .     S
O1261  Zn1313  1.946   .     S
O1261  Zn1324  1.948   .     S
O1262  Zn1315  1.942   .     S
O1263  Zn1318  1.941   .     S
O1263  C739    1.286   1_655 S
O1264  Zn1317  1.941   .     S
O1265  Zn1327  1.941   .     S
O1266  Zn1326  1.941   .     S
O1267  Zn1321  1.942   .     S
O1268  Zn1313  1.942   .     S
O1269  Zn1323  1.942   .     S
O1270  Zn1322  1.942   .     S
O1271  Zn1325  1.941   .     S
O1272  Zn1319  1.948   .     S
O1272  Zn1321  1.946   .     S
O1272  Zn1325  1.948   .     S
O1273  Zn1324  1.941   .     S
O1274  Zn1316  1.938   .     S
O1275  Zn1315  1.938   .     S
O1276  Zn1318  1.938   .     S
O1277  Zn1317  1.938   .     S
O1278  Zn1320  1.939   .     S
O1279  Zn1319  1.939   .     S
O1280  Zn1314  1.939   .     S
O1281  Zn1328  1.939   .     S
O1282  Zn1315  1.939   .     S
O1283  Zn1314  1.946   .     S
O1283  Zn1322  1.947   .     S
O1283  Zn1326  1.948   .     S
O1284  Zn1316  1.939   .     S
O1285  Zn1328  1.938   .     S
O1286  Zn1314  1.938   .     S
O1287  Zn1319  1.938   .     S
O1288  Zn1320  1.938   .     S
O1289  Zn1317  1.938   .     S
O1290  Zn1318  1.938   .     S
O1291  Zn991   1.938   1_655 S
O1292  Zn1322  1.938   .     S
O1293  Zn661   1.938   1_565 S
O1294  Zn1317  1.948   .     S
O1294  Zn1323  1.947   .     S
O1294  Zn1327  1.948   .     S
O1295  Zn1324  1.938   .     S
O1296  Zn1327  1.939   .     S
O1297  Zn994   1.939   1_655 S
O1298  Zn1321  1.939   .     S
O1299  Zn649   1.939   1_565 S
O1300  Zn990   1.939   1_655 S
O1301  Zn1323  1.939   .     S
O1302  Zn1313  1.938   .     S
O1303  Zn657   1.938   1_565 S
O1304  Zn1326  1.938   .     S
O1305  Zn1320  1.941   .     S
O1305  C405    1.286   1_565 S
O1306  Zn995   1.938   1_655 S
O1307  Zn660   1.938   1_565 S
O1308  Zn1325  1.938   .     S
O1309  Zn1319  1.941   .     S
O1310  Zn1314  1.942   .     S
O1311  Zn1328  1.942   .     S
O1312  Zn1316  1.942   .     S
Zn1315 O608    1.947   1_565 S
Zn1318 O951    1.948   1_655 S
Zn1320 O597    1.948   1_565 S
Zn1328 O962    1.946   1_655 S
