data_str_m3_o1_o2_pcu_sym.139
_audit_creation_date              2020-01-03
_audit_creation_method            'Materials Studio'
_symmetry_space_group_name_H-M    'P1'
_symmetry_Int_Tables_number       1
_symmetry_cell_setting            triclinic
loop_
_symmetry_equiv_pos_as_xyz
  x,y,z
_cell_length_a                    32.0146
_cell_length_b                    29.8346
_cell_length_c                    30.2575
_cell_angle_alpha                 90.0082
_cell_angle_beta                  94.4146
_cell_angle_gamma                 90.0073
loop_
_atom_site_label
_atom_site_type_symbol
_atom_site_fract_x
_atom_site_fract_y
_atom_site_fract_z
_atom_site_U_iso_or_equiv
_atom_site_adp_type
_atom_site_occupancy
C1     C     0.08696   0.16666   0.25511   0.00000  Uiso   1.00
C2     C     0.24605   0.16667   0.24402   0.00000  Uiso   1.00
C3     C     0.16998   0.16666   0.16416   0.00000  Uiso   1.00
C4     C     0.16262   0.16667   0.33574   0.00000  Uiso   1.00
C5     C     0.19459   0.02395   0.27805   0.00000  Uiso   1.00
C6     C     0.13890   0.30938   0.22176   0.00000  Uiso   1.00
C7     C     0.13890   0.02394   0.22176   0.00000  Uiso   1.00
C8     C     0.19459   0.30940   0.27805   0.00000  Uiso   1.00
C9     C     0.02005   0.12572   0.25763   0.00000  Uiso   1.00
C10    C     0.31243   0.20755   0.23887   0.00000  Uiso   1.00
C11    C     0.31241   0.12579   0.23883   0.00000  Uiso   1.00
C12    C     0.02007   0.20760   0.25767   0.00000  Uiso   1.00
C13    C     0.16762   0.20694   0.04662   0.00000  Uiso   1.00
C14    C     0.14294   0.12659   0.45113   0.00000  Uiso   1.00
C15    C     0.14298   0.20676   0.45115   0.00000  Uiso   1.00
C16    C     0.16760   0.12639   0.04660   0.00000  Uiso   1.00
C17    C     0.17676   0.20738   0.09224   0.00000  Uiso   1.00
C18    C     0.14507   0.12577   0.40543   0.00000  Uiso   1.00
C19    C     0.14511   0.20758   0.40545   0.00000  Uiso   1.00
C20    C     0.17673   0.12594   0.09222   0.00000  Uiso   1.00
C21    C     0.17482   0.16666   0.11607   0.00000  Uiso   1.00
C22    C     0.15172   0.16667   0.38259   0.00000  Uiso   1.00
C23    C     0.15899   0.16667   0.02361   0.00000  Uiso   1.00
C24    C     0.14779   0.16667   0.47494   0.00000  Uiso   1.00
C25    C     0.29043   0.16667   0.23623   0.00000  Uiso   1.00
C26    C     0.04210   0.16666   0.26090   0.00000  Uiso   1.00
H27    H     0.16896   0.23858   0.02972   0.00000  Uiso   1.00
H28    H     0.13816   0.09521   0.46761   0.00000  Uiso   1.00
H29    H     0.13823   0.23814   0.46764   0.00000  Uiso   1.00
H30    H     0.16892   0.09475   0.02968   0.00000  Uiso   1.00
N31    N     0.16667   0.28573   0.25000   0.00000  Uiso   1.00
N32    N     0.16667   0.04760   0.25000   0.00000  Uiso   1.00
O33    O     0.10559   0.20487   0.25000   0.00000  Uiso   1.00
O34    O     0.22774   0.12846   0.25001   0.00000  Uiso   1.00
O35    O     0.22774   0.20487   0.25001   0.00000  Uiso   1.00
O36    O     0.10559   0.12846   0.25000   0.00000  Uiso   1.00
O37    O     0.16666   0.20489   0.18453   0.00000  Uiso   1.00
O38    O     0.16667   0.12845   0.31547   0.00000  Uiso   1.00
O39    O     0.16667   0.20489   0.31547   0.00000  Uiso   1.00
O40    O     0.16666   0.12845   0.18453   0.00000  Uiso   1.00
Zn41   Zn    0.16667   0.21771   0.25000   0.00000  Uiso   1.00
Zn42   Zn    0.16667   0.11563   0.25000   0.00000  Uiso   1.00
C43    C     0.22636   0.04769   0.30957   0.00000  Uiso   1.00
H44    H     0.22382   0.08396   0.30986   0.00000  Uiso   1.00
H45    H     0.22321   0.03695   0.34411   0.00000  Uiso   1.00
H46    H     0.25854   0.03923   0.30162   0.00000  Uiso   1.00
C47    C     0.10757   0.28565   0.18970   0.00000  Uiso   1.00
H48    H     0.10955   0.24935   0.19005   0.00000  Uiso   1.00
H49    H     0.07523   0.29464   0.19657   0.00000  Uiso   1.00
H50    H     0.11174   0.29592   0.15519   0.00000  Uiso   1.00
C51    C     0.10757   0.04765   0.18971   0.00000  Uiso   1.00
H52    H     0.10955   0.08396   0.19005   0.00000  Uiso   1.00
H53    H     0.11172   0.03736   0.15519   0.00000  Uiso   1.00
H54    H     0.07523   0.03866   0.19659   0.00000  Uiso   1.00
C55    C     0.22637   0.28567   0.30955   0.00000  Uiso   1.00
H56    H     0.22382   0.24941   0.30986   0.00000  Uiso   1.00
H57    H     0.25855   0.29413   0.30158   0.00000  Uiso   1.00
H58    H     0.22326   0.29644   0.34409   0.00000  Uiso   1.00
C59    C     0.19292   0.25061   0.11315   0.00000  Uiso   1.00
H60    H     0.16927   0.26623   0.13267   0.00000  Uiso   1.00
H61    H     0.22190   0.24390   0.13444   0.00000  Uiso   1.00
H62    H     0.20109   0.27558   0.08799   0.00000  Uiso   1.00
C63    C     0.13993   0.08062   0.38322   0.00000  Uiso   1.00
H64    H     0.17030   0.06940   0.37261   0.00000  Uiso   1.00
H65    H     0.12905   0.05438   0.40573   0.00000  Uiso   1.00
H66    H     0.11628   0.08246   0.35474   0.00000  Uiso   1.00
C67    C     0.14006   0.25275   0.38327   0.00000  Uiso   1.00
H68    H     0.17047   0.26390   0.37267   0.00000  Uiso   1.00
H69    H     0.11642   0.25097   0.35478   0.00000  Uiso   1.00
H70    H     0.12924   0.27900   0.40579   0.00000  Uiso   1.00
C71    C     0.19283   0.08270   0.11312   0.00000  Uiso   1.00
H72    H     0.16916   0.06711   0.13264   0.00000  Uiso   1.00
H73    H     0.20096   0.05770   0.08795   0.00000  Uiso   1.00
H74    H     0.22182   0.08937   0.13440   0.00000  Uiso   1.00
C75    C     0.03699   0.08312   0.27938   0.00000  Uiso   1.00
H76    H     0.04212   0.05709   0.25447   0.00000  Uiso   1.00
H77    H     0.06611   0.08890   0.30048   0.00000  Uiso   1.00
H78    H     0.01398   0.06999   0.30183   0.00000  Uiso   1.00
C79    C     0.29491   0.25011   0.21742   0.00000  Uiso   1.00
H80    H     0.29041   0.27622   0.24244   0.00000  Uiso   1.00
H81    H     0.31730   0.26315   0.19426   0.00000  Uiso   1.00
H82    H     0.26515   0.24435   0.19726   0.00000  Uiso   1.00
C83    C     0.29486   0.08325   0.21736   0.00000  Uiso   1.00
H84    H     0.29029   0.05715   0.24237   0.00000  Uiso   1.00
H85    H     0.26513   0.08905   0.19717   0.00000  Uiso   1.00
H86    H     0.31726   0.07017   0.19423   0.00000  Uiso   1.00
C87    C     0.03703   0.25019   0.27945   0.00000  Uiso   1.00
H88    H     0.04221   0.27621   0.25455   0.00000  Uiso   1.00
H89    H     0.01403   0.26334   0.30188   0.00000  Uiso   1.00
H90    H     0.06614   0.24438   0.30057   0.00000  Uiso   1.00
C91    C     0.42029   0.16666   0.25511   0.00000  Uiso   1.00
C92    C     0.57938   0.16667   0.24402   0.00000  Uiso   1.00
C93    C     0.50332   0.16666   0.16416   0.00000  Uiso   1.00
C94    C     0.49595   0.16667   0.33574   0.00000  Uiso   1.00
C95    C     0.52792   0.02395   0.27805   0.00000  Uiso   1.00
C96    C     0.47223   0.30938   0.22176   0.00000  Uiso   1.00
C97    C     0.47223   0.02394   0.22176   0.00000  Uiso   1.00
C98    C     0.52793   0.30940   0.27805   0.00000  Uiso   1.00
C99    C     0.35338   0.12572   0.25763   0.00000  Uiso   1.00
C100   C     0.64576   0.20755   0.23887   0.00000  Uiso   1.00
C101   C     0.64574   0.12579   0.23883   0.00000  Uiso   1.00
C102   C     0.35340   0.20760   0.25767   0.00000  Uiso   1.00
C103   C     0.50096   0.20694   0.04662   0.00000  Uiso   1.00
C104   C     0.47627   0.12659   0.45113   0.00000  Uiso   1.00
C105   C     0.47631   0.20676   0.45115   0.00000  Uiso   1.00
C106   C     0.50093   0.12639   0.04660   0.00000  Uiso   1.00
C107   C     0.51009   0.20738   0.09224   0.00000  Uiso   1.00
C108   C     0.47840   0.12577   0.40543   0.00000  Uiso   1.00
C109   C     0.47845   0.20758   0.40545   0.00000  Uiso   1.00
C110   C     0.51006   0.12594   0.09222   0.00000  Uiso   1.00
C111   C     0.50815   0.16666   0.11607   0.00000  Uiso   1.00
C112   C     0.48505   0.16667   0.38259   0.00000  Uiso   1.00
C113   C     0.49232   0.16667   0.02361   0.00000  Uiso   1.00
C114   C     0.48113   0.16667   0.47494   0.00000  Uiso   1.00
C115   C     0.62376   0.16667   0.23623   0.00000  Uiso   1.00
C116   C     0.37543   0.16666   0.26090   0.00000  Uiso   1.00
H117   H     0.50229   0.23858   0.02972   0.00000  Uiso   1.00
H118   H     0.47149   0.09521   0.46761   0.00000  Uiso   1.00
H119   H     0.47156   0.23814   0.46764   0.00000  Uiso   1.00
H120   H     0.50225   0.09475   0.02968   0.00000  Uiso   1.00
N121   N     0.50000   0.28573   0.25000   0.00000  Uiso   1.00
N122   N     0.50000   0.04760   0.25000   0.00000  Uiso   1.00
O123   O     0.43892   0.20487   0.25000   0.00000  Uiso   1.00
O124   O     0.56108   0.12846   0.25001   0.00000  Uiso   1.00
O125   O     0.56108   0.20487   0.25001   0.00000  Uiso   1.00
O126   O     0.43892   0.12846   0.25000   0.00000  Uiso   1.00
O127   O     0.50000   0.20489   0.18453   0.00000  Uiso   1.00
O128   O     0.50000   0.12845   0.31547   0.00000  Uiso   1.00
O129   O     0.50000   0.20489   0.31547   0.00000  Uiso   1.00
O130   O     0.50000   0.12845   0.18453   0.00000  Uiso   1.00
Zn131  Zn    0.50000   0.21771   0.25000   0.00000  Uiso   1.00
Zn132  Zn    0.50000   0.11563   0.25000   0.00000  Uiso   1.00
C133   C     0.55970   0.04769   0.30957   0.00000  Uiso   1.00
H134   H     0.55716   0.08396   0.30986   0.00000  Uiso   1.00
H135   H     0.55655   0.03695   0.34411   0.00000  Uiso   1.00
H136   H     0.59188   0.03923   0.30162   0.00000  Uiso   1.00
C137   C     0.44090   0.28565   0.18970   0.00000  Uiso   1.00
H138   H     0.44288   0.24935   0.19005   0.00000  Uiso   1.00
H139   H     0.40856   0.29464   0.19657   0.00000  Uiso   1.00
H140   H     0.44508   0.29592   0.15519   0.00000  Uiso   1.00
C141   C     0.44090   0.04765   0.18971   0.00000  Uiso   1.00
H142   H     0.44289   0.08396   0.19005   0.00000  Uiso   1.00
H143   H     0.44505   0.03736   0.15519   0.00000  Uiso   1.00
H144   H     0.40856   0.03866   0.19659   0.00000  Uiso   1.00
C145   C     0.55971   0.28567   0.30955   0.00000  Uiso   1.00
H146   H     0.55715   0.24941   0.30986   0.00000  Uiso   1.00
H147   H     0.59188   0.29413   0.30158   0.00000  Uiso   1.00
H148   H     0.55659   0.29644   0.34409   0.00000  Uiso   1.00
C149   C     0.52625   0.25061   0.11315   0.00000  Uiso   1.00
H150   H     0.50260   0.26623   0.13267   0.00000  Uiso   1.00
H151   H     0.55523   0.24390   0.13444   0.00000  Uiso   1.00
H152   H     0.53443   0.27558   0.08799   0.00000  Uiso   1.00
C153   C     0.47326   0.08062   0.38322   0.00000  Uiso   1.00
H154   H     0.50364   0.06940   0.37261   0.00000  Uiso   1.00
H155   H     0.46238   0.05438   0.40573   0.00000  Uiso   1.00
H156   H     0.44962   0.08246   0.35474   0.00000  Uiso   1.00
C157   C     0.47339   0.25275   0.38327   0.00000  Uiso   1.00
H158   H     0.50380   0.26390   0.37267   0.00000  Uiso   1.00
H159   H     0.44975   0.25097   0.35478   0.00000  Uiso   1.00
H160   H     0.46257   0.27900   0.40579   0.00000  Uiso   1.00
C161   C     0.52616   0.08270   0.11312   0.00000  Uiso   1.00
H162   H     0.50250   0.06711   0.13264   0.00000  Uiso   1.00
H163   H     0.53429   0.05770   0.08795   0.00000  Uiso   1.00
H164   H     0.55516   0.08937   0.13440   0.00000  Uiso   1.00
C165   C     0.37032   0.08312   0.27938   0.00000  Uiso   1.00
H166   H     0.37545   0.05709   0.25447   0.00000  Uiso   1.00
H167   H     0.39944   0.08890   0.30048   0.00000  Uiso   1.00
H168   H     0.34732   0.06999   0.30183   0.00000  Uiso   1.00
C169   C     0.62824   0.25011   0.21742   0.00000  Uiso   1.00
H170   H     0.62375   0.27622   0.24244   0.00000  Uiso   1.00
H171   H     0.65064   0.26315   0.19426   0.00000  Uiso   1.00
H172   H     0.59848   0.24435   0.19726   0.00000  Uiso   1.00
C173   C     0.62820   0.08325   0.21736   0.00000  Uiso   1.00
H174   H     0.62362   0.05715   0.24237   0.00000  Uiso   1.00
H175   H     0.59846   0.08905   0.19717   0.00000  Uiso   1.00
H176   H     0.65060   0.07017   0.19423   0.00000  Uiso   1.00
C177   C     0.37036   0.25019   0.27945   0.00000  Uiso   1.00
H178   H     0.37554   0.27621   0.25455   0.00000  Uiso   1.00
H179   H     0.34736   0.26334   0.30188   0.00000  Uiso   1.00
H180   H     0.39947   0.24438   0.30057   0.00000  Uiso   1.00
C181   C     0.75363   0.16666   0.25511   0.00000  Uiso   1.00
C182   C     0.91272   0.16667   0.24402   0.00000  Uiso   1.00
C183   C     0.83665   0.16666   0.16416   0.00000  Uiso   1.00
C184   C     0.82928   0.16667   0.33574   0.00000  Uiso   1.00
C185   C     0.86126   0.02395   0.27805   0.00000  Uiso   1.00
C186   C     0.80556   0.30938   0.22176   0.00000  Uiso   1.00
C187   C     0.80556   0.02394   0.22176   0.00000  Uiso   1.00
C188   C     0.86126   0.30940   0.27805   0.00000  Uiso   1.00
C189   C     0.68672   0.12572   0.25763   0.00000  Uiso   1.00
C190   C     0.97909   0.20755   0.23887   0.00000  Uiso   1.00
C191   C     0.97908   0.12579   0.23883   0.00000  Uiso   1.00
C192   C     0.68673   0.20760   0.25767   0.00000  Uiso   1.00
C193   C     0.83429   0.20694   0.04662   0.00000  Uiso   1.00
C194   C     0.80961   0.12659   0.45113   0.00000  Uiso   1.00
C195   C     0.80964   0.20676   0.45115   0.00000  Uiso   1.00
C196   C     0.83426   0.12639   0.04660   0.00000  Uiso   1.00
C197   C     0.84343   0.20738   0.09224   0.00000  Uiso   1.00
C198   C     0.81173   0.12577   0.40543   0.00000  Uiso   1.00
C199   C     0.81178   0.20758   0.40545   0.00000  Uiso   1.00
C200   C     0.84340   0.12594   0.09222   0.00000  Uiso   1.00
C201   C     0.84148   0.16666   0.11607   0.00000  Uiso   1.00
C202   C     0.81838   0.16667   0.38259   0.00000  Uiso   1.00
C203   C     0.82566   0.16667   0.02361   0.00000  Uiso   1.00
C204   C     0.81446   0.16667   0.47494   0.00000  Uiso   1.00
C205   C     0.95709   0.16667   0.23623   0.00000  Uiso   1.00
C206   C     0.70876   0.16666   0.26090   0.00000  Uiso   1.00
H207   H     0.83563   0.23858   0.02972   0.00000  Uiso   1.00
H208   H     0.80482   0.09521   0.46761   0.00000  Uiso   1.00
H209   H     0.80489   0.23814   0.46764   0.00000  Uiso   1.00
H210   H     0.83558   0.09475   0.02968   0.00000  Uiso   1.00
N211   N     0.83333   0.28573   0.25000   0.00000  Uiso   1.00
N212   N     0.83333   0.04760   0.25000   0.00000  Uiso   1.00
O213   O     0.77226   0.20487   0.25000   0.00000  Uiso   1.00
O214   O     0.89441   0.12846   0.25001   0.00000  Uiso   1.00
O215   O     0.89441   0.20487   0.25001   0.00000  Uiso   1.00
O216   O     0.77226   0.12846   0.25000   0.00000  Uiso   1.00
O217   O     0.83333   0.20489   0.18453   0.00000  Uiso   1.00
O218   O     0.83334   0.12845   0.31547   0.00000  Uiso   1.00
O219   O     0.83334   0.20489   0.31547   0.00000  Uiso   1.00
O220   O     0.83333   0.12845   0.18453   0.00000  Uiso   1.00
Zn221  Zn    0.83333   0.21771   0.25000   0.00000  Uiso   1.00
Zn222  Zn    0.83333   0.11563   0.25000   0.00000  Uiso   1.00
C223   C     0.89303   0.04769   0.30957   0.00000  Uiso   1.00
H224   H     0.89049   0.08396   0.30986   0.00000  Uiso   1.00
H225   H     0.88988   0.03695   0.34411   0.00000  Uiso   1.00
H226   H     0.92521   0.03923   0.30162   0.00000  Uiso   1.00
C227   C     0.77424   0.28565   0.18970   0.00000  Uiso   1.00
H228   H     0.77621   0.24935   0.19005   0.00000  Uiso   1.00
H229   H     0.74189   0.29464   0.19657   0.00000  Uiso   1.00
H230   H     0.77841   0.29592   0.15519   0.00000  Uiso   1.00
C231   C     0.77423   0.04765   0.18971   0.00000  Uiso   1.00
H232   H     0.77622   0.08396   0.19005   0.00000  Uiso   1.00
H233   H     0.77838   0.03736   0.15519   0.00000  Uiso   1.00
H234   H     0.74189   0.03866   0.19659   0.00000  Uiso   1.00
C235   C     0.89304   0.28567   0.30955   0.00000  Uiso   1.00
H236   H     0.89048   0.24941   0.30986   0.00000  Uiso   1.00
H237   H     0.92521   0.29413   0.30158   0.00000  Uiso   1.00
H238   H     0.88992   0.29644   0.34409   0.00000  Uiso   1.00
C239   C     0.85958   0.25061   0.11315   0.00000  Uiso   1.00
H240   H     0.83593   0.26623   0.13267   0.00000  Uiso   1.00
H241   H     0.88856   0.24390   0.13444   0.00000  Uiso   1.00
H242   H     0.86776   0.27558   0.08799   0.00000  Uiso   1.00
C243   C     0.80659   0.08062   0.38322   0.00000  Uiso   1.00
H244   H     0.83697   0.06940   0.37261   0.00000  Uiso   1.00
H245   H     0.79571   0.05438   0.40573   0.00000  Uiso   1.00
H246   H     0.78295   0.08246   0.35474   0.00000  Uiso   1.00
C247   C     0.80673   0.25275   0.38327   0.00000  Uiso   1.00
H248   H     0.83713   0.26390   0.37267   0.00000  Uiso   1.00
H249   H     0.78308   0.25097   0.35478   0.00000  Uiso   1.00
H250   H     0.79590   0.27900   0.40579   0.00000  Uiso   1.00
C251   C     0.85950   0.08270   0.11312   0.00000  Uiso   1.00
H252   H     0.83583   0.06711   0.13264   0.00000  Uiso   1.00
H253   H     0.86763   0.05770   0.08795   0.00000  Uiso   1.00
H254   H     0.88849   0.08937   0.13440   0.00000  Uiso   1.00
C255   C     0.70365   0.08312   0.27938   0.00000  Uiso   1.00
H256   H     0.70878   0.05709   0.25447   0.00000  Uiso   1.00
H257   H     0.73278   0.08890   0.30048   0.00000  Uiso   1.00
H258   H     0.68065   0.06999   0.30183   0.00000  Uiso   1.00
C259   C     0.96158   0.25011   0.21742   0.00000  Uiso   1.00
H260   H     0.95708   0.27622   0.24244   0.00000  Uiso   1.00
H261   H     0.98397   0.26315   0.19426   0.00000  Uiso   1.00
H262   H     0.93182   0.24435   0.19726   0.00000  Uiso   1.00
C263   C     0.96153   0.08325   0.21736   0.00000  Uiso   1.00
H264   H     0.95696   0.05715   0.24237   0.00000  Uiso   1.00
H265   H     0.93180   0.08905   0.19717   0.00000  Uiso   1.00
H266   H     0.98393   0.07017   0.19423   0.00000  Uiso   1.00
C267   C     0.70370   0.25019   0.27945   0.00000  Uiso   1.00
H268   H     0.70887   0.27621   0.25455   0.00000  Uiso   1.00
H269   H     0.68069   0.26334   0.30188   0.00000  Uiso   1.00
H270   H     0.73281   0.24438   0.30057   0.00000  Uiso   1.00
C271   C     0.08696   0.50000   0.25511   0.00000  Uiso   1.00
C272   C     0.24605   0.50000   0.24402   0.00000  Uiso   1.00
C273   C     0.16998   0.50000   0.16416   0.00000  Uiso   1.00
C274   C     0.16262   0.50000   0.33574   0.00000  Uiso   1.00
C275   C     0.19459   0.35729   0.27805   0.00000  Uiso   1.00
C276   C     0.13890   0.64271   0.22176   0.00000  Uiso   1.00
C277   C     0.13890   0.35727   0.22176   0.00000  Uiso   1.00
C278   C     0.19459   0.64273   0.27805   0.00000  Uiso   1.00
C279   C     0.02005   0.45906   0.25763   0.00000  Uiso   1.00
C280   C     0.31243   0.54088   0.23887   0.00000  Uiso   1.00
C281   C     0.31241   0.45913   0.23883   0.00000  Uiso   1.00
C282   C     0.02007   0.54093   0.25767   0.00000  Uiso   1.00
C283   C     0.16762   0.54027   0.04662   0.00000  Uiso   1.00
C284   C     0.14294   0.45992   0.45113   0.00000  Uiso   1.00
C285   C     0.14298   0.54009   0.45115   0.00000  Uiso   1.00
C286   C     0.16760   0.45972   0.04660   0.00000  Uiso   1.00
C287   C     0.17676   0.54072   0.09224   0.00000  Uiso   1.00
C288   C     0.14507   0.45911   0.40543   0.00000  Uiso   1.00
C289   C     0.14511   0.54091   0.40545   0.00000  Uiso   1.00
C290   C     0.17673   0.45927   0.09222   0.00000  Uiso   1.00
C291   C     0.17482   0.49999   0.11607   0.00000  Uiso   1.00
C292   C     0.15172   0.50001   0.38259   0.00000  Uiso   1.00
C293   C     0.15899   0.50000   0.02361   0.00000  Uiso   1.00
C294   C     0.14779   0.50001   0.47494   0.00000  Uiso   1.00
C295   C     0.29043   0.50001   0.23623   0.00000  Uiso   1.00
C296   C     0.04210   0.49999   0.26090   0.00000  Uiso   1.00
H297   H     0.16896   0.57192   0.02972   0.00000  Uiso   1.00
H298   H     0.13816   0.42854   0.46761   0.00000  Uiso   1.00
H299   H     0.13823   0.57147   0.46764   0.00000  Uiso   1.00
H300   H     0.16892   0.42808   0.02968   0.00000  Uiso   1.00
N301   N     0.16667   0.61907   0.25000   0.00000  Uiso   1.00
N302   N     0.16667   0.38093   0.25000   0.00000  Uiso   1.00
O303   O     0.10559   0.53821   0.25000   0.00000  Uiso   1.00
O304   O     0.22774   0.46179   0.25001   0.00000  Uiso   1.00
O305   O     0.22774   0.53821   0.25001   0.00000  Uiso   1.00
O306   O     0.10559   0.46179   0.25000   0.00000  Uiso   1.00
O307   O     0.16666   0.53822   0.18453   0.00000  Uiso   1.00
O308   O     0.16667   0.46178   0.31547   0.00000  Uiso   1.00
O309   O     0.16667   0.53822   0.31547   0.00000  Uiso   1.00
O310   O     0.16666   0.46178   0.18453   0.00000  Uiso   1.00
Zn311  Zn    0.16667   0.55104   0.25000   0.00000  Uiso   1.00
Zn312  Zn    0.16667   0.44896   0.25000   0.00000  Uiso   1.00
C313   C     0.22636   0.38103   0.30957   0.00000  Uiso   1.00
H314   H     0.22382   0.41729   0.30986   0.00000  Uiso   1.00
H315   H     0.22321   0.37028   0.34411   0.00000  Uiso   1.00
H316   H     0.25854   0.37256   0.30162   0.00000  Uiso   1.00
C317   C     0.10757   0.61899   0.18970   0.00000  Uiso   1.00
H318   H     0.10955   0.58268   0.19005   0.00000  Uiso   1.00
H319   H     0.07523   0.62798   0.19657   0.00000  Uiso   1.00
H320   H     0.11174   0.62925   0.15519   0.00000  Uiso   1.00
C321   C     0.10757   0.38098   0.18971   0.00000  Uiso   1.00
H322   H     0.10955   0.41729   0.19005   0.00000  Uiso   1.00
H323   H     0.11172   0.37070   0.15519   0.00000  Uiso   1.00
H324   H     0.07523   0.37199   0.19659   0.00000  Uiso   1.00
C325   C     0.22637   0.61901   0.30955   0.00000  Uiso   1.00
H326   H     0.22382   0.58274   0.30986   0.00000  Uiso   1.00
H327   H     0.25855   0.62747   0.30158   0.00000  Uiso   1.00
H328   H     0.22326   0.62978   0.34409   0.00000  Uiso   1.00
C329   C     0.19292   0.58394   0.11315   0.00000  Uiso   1.00
H330   H     0.16927   0.59957   0.13267   0.00000  Uiso   1.00
H331   H     0.22190   0.57723   0.13444   0.00000  Uiso   1.00
H332   H     0.20109   0.60892   0.08799   0.00000  Uiso   1.00
C333   C     0.13993   0.41395   0.38322   0.00000  Uiso   1.00
H334   H     0.17030   0.40273   0.37261   0.00000  Uiso   1.00
H335   H     0.12905   0.38771   0.40573   0.00000  Uiso   1.00
H336   H     0.11628   0.41579   0.35474   0.00000  Uiso   1.00
C337   C     0.14006   0.58608   0.38327   0.00000  Uiso   1.00
H338   H     0.17047   0.59723   0.37267   0.00000  Uiso   1.00
H339   H     0.11642   0.58430   0.35478   0.00000  Uiso   1.00
H340   H     0.12924   0.61234   0.40579   0.00000  Uiso   1.00
C341   C     0.19283   0.41603   0.11312   0.00000  Uiso   1.00
H342   H     0.16916   0.40045   0.13264   0.00000  Uiso   1.00
H343   H     0.20096   0.39103   0.08795   0.00000  Uiso   1.00
H344   H     0.22182   0.42271   0.13440   0.00000  Uiso   1.00
C345   C     0.03699   0.41645   0.27938   0.00000  Uiso   1.00
H346   H     0.04212   0.39043   0.25447   0.00000  Uiso   1.00
H347   H     0.06611   0.42223   0.30048   0.00000  Uiso   1.00
H348   H     0.01398   0.40332   0.30183   0.00000  Uiso   1.00
C349   C     0.29491   0.58344   0.21742   0.00000  Uiso   1.00
H350   H     0.29041   0.60955   0.24244   0.00000  Uiso   1.00
H351   H     0.31730   0.59648   0.19426   0.00000  Uiso   1.00
H352   H     0.26515   0.57768   0.19726   0.00000  Uiso   1.00
C353   C     0.29486   0.41658   0.21736   0.00000  Uiso   1.00
H354   H     0.29029   0.39049   0.24237   0.00000  Uiso   1.00
H355   H     0.26513   0.42238   0.19717   0.00000  Uiso   1.00
H356   H     0.31726   0.40350   0.19423   0.00000  Uiso   1.00
C357   C     0.03703   0.58353   0.27945   0.00000  Uiso   1.00
H358   H     0.04221   0.60954   0.25455   0.00000  Uiso   1.00
H359   H     0.01403   0.59667   0.30188   0.00000  Uiso   1.00
H360   H     0.06614   0.57771   0.30057   0.00000  Uiso   1.00
C361   C     0.42029   0.50000   0.25511   0.00000  Uiso   1.00
C362   C     0.57938   0.50000   0.24402   0.00000  Uiso   1.00
C363   C     0.50332   0.50000   0.16416   0.00000  Uiso   1.00
C364   C     0.49595   0.50000   0.33574   0.00000  Uiso   1.00
C365   C     0.52792   0.35729   0.27805   0.00000  Uiso   1.00
C366   C     0.47223   0.64271   0.22176   0.00000  Uiso   1.00
C367   C     0.47223   0.35727   0.22176   0.00000  Uiso   1.00
C368   C     0.52793   0.64273   0.27805   0.00000  Uiso   1.00
C369   C     0.35338   0.45906   0.25763   0.00000  Uiso   1.00
C370   C     0.64576   0.54088   0.23887   0.00000  Uiso   1.00
C371   C     0.64574   0.45913   0.23883   0.00000  Uiso   1.00
C372   C     0.35340   0.54093   0.25767   0.00000  Uiso   1.00
C373   C     0.50096   0.54027   0.04662   0.00000  Uiso   1.00
C374   C     0.47627   0.45992   0.45113   0.00000  Uiso   1.00
C375   C     0.47631   0.54009   0.45115   0.00000  Uiso   1.00
C376   C     0.50093   0.45972   0.04660   0.00000  Uiso   1.00
C377   C     0.51009   0.54072   0.09224   0.00000  Uiso   1.00
C378   C     0.47840   0.45911   0.40543   0.00000  Uiso   1.00
C379   C     0.47845   0.54091   0.40545   0.00000  Uiso   1.00
C380   C     0.51006   0.45927   0.09222   0.00000  Uiso   1.00
C381   C     0.50815   0.49999   0.11607   0.00000  Uiso   1.00
C382   C     0.48505   0.50001   0.38259   0.00000  Uiso   1.00
C383   C     0.49232   0.50000   0.02361   0.00000  Uiso   1.00
C384   C     0.48113   0.50001   0.47494   0.00000  Uiso   1.00
C385   C     0.62376   0.50001   0.23623   0.00000  Uiso   1.00
C386   C     0.37543   0.49999   0.26090   0.00000  Uiso   1.00
H387   H     0.50229   0.57192   0.02972   0.00000  Uiso   1.00
H388   H     0.47149   0.42854   0.46761   0.00000  Uiso   1.00
H389   H     0.47156   0.57147   0.46764   0.00000  Uiso   1.00
H390   H     0.50225   0.42808   0.02968   0.00000  Uiso   1.00
N391   N     0.50000   0.61907   0.25000   0.00000  Uiso   1.00
N392   N     0.50000   0.38093   0.25000   0.00000  Uiso   1.00
O393   O     0.43892   0.53821   0.25000   0.00000  Uiso   1.00
O394   O     0.56108   0.46179   0.25001   0.00000  Uiso   1.00
O395   O     0.56108   0.53821   0.25001   0.00000  Uiso   1.00
O396   O     0.43892   0.46179   0.25000   0.00000  Uiso   1.00
O397   O     0.50000   0.53822   0.18453   0.00000  Uiso   1.00
O398   O     0.50000   0.46178   0.31547   0.00000  Uiso   1.00
O399   O     0.50000   0.53822   0.31547   0.00000  Uiso   1.00
O400   O     0.50000   0.46178   0.18453   0.00000  Uiso   1.00
Zn401  Zn    0.50000   0.55104   0.25000   0.00000  Uiso   1.00
Zn402  Zn    0.50000   0.44896   0.25000   0.00000  Uiso   1.00
C403   C     0.55970   0.38103   0.30957   0.00000  Uiso   1.00
H404   H     0.55716   0.41729   0.30986   0.00000  Uiso   1.00
H405   H     0.55655   0.37028   0.34411   0.00000  Uiso   1.00
H406   H     0.59188   0.37256   0.30162   0.00000  Uiso   1.00
C407   C     0.44090   0.61899   0.18970   0.00000  Uiso   1.00
H408   H     0.44288   0.58268   0.19005   0.00000  Uiso   1.00
H409   H     0.40856   0.62798   0.19657   0.00000  Uiso   1.00
H410   H     0.44508   0.62925   0.15519   0.00000  Uiso   1.00
C411   C     0.44090   0.38098   0.18971   0.00000  Uiso   1.00
H412   H     0.44289   0.41729   0.19005   0.00000  Uiso   1.00
H413   H     0.44505   0.37070   0.15519   0.00000  Uiso   1.00
H414   H     0.40856   0.37199   0.19659   0.00000  Uiso   1.00
C415   C     0.55971   0.61901   0.30955   0.00000  Uiso   1.00
H416   H     0.55715   0.58274   0.30986   0.00000  Uiso   1.00
H417   H     0.59188   0.62747   0.30158   0.00000  Uiso   1.00
H418   H     0.55659   0.62978   0.34409   0.00000  Uiso   1.00
C419   C     0.52625   0.58394   0.11315   0.00000  Uiso   1.00
H420   H     0.50260   0.59957   0.13267   0.00000  Uiso   1.00
H421   H     0.55523   0.57723   0.13444   0.00000  Uiso   1.00
H422   H     0.53443   0.60892   0.08799   0.00000  Uiso   1.00
C423   C     0.47326   0.41395   0.38322   0.00000  Uiso   1.00
H424   H     0.50364   0.40273   0.37261   0.00000  Uiso   1.00
H425   H     0.46238   0.38771   0.40573   0.00000  Uiso   1.00
H426   H     0.44962   0.41579   0.35474   0.00000  Uiso   1.00
C427   C     0.47339   0.58608   0.38327   0.00000  Uiso   1.00
H428   H     0.50380   0.59723   0.37267   0.00000  Uiso   1.00
H429   H     0.44975   0.58430   0.35478   0.00000  Uiso   1.00
H430   H     0.46257   0.61234   0.40579   0.00000  Uiso   1.00
C431   C     0.52616   0.41603   0.11312   0.00000  Uiso   1.00
H432   H     0.50250   0.40045   0.13264   0.00000  Uiso   1.00
H433   H     0.53429   0.39103   0.08795   0.00000  Uiso   1.00
H434   H     0.55516   0.42271   0.13440   0.00000  Uiso   1.00
C435   C     0.37032   0.41645   0.27938   0.00000  Uiso   1.00
H436   H     0.37545   0.39043   0.25447   0.00000  Uiso   1.00
H437   H     0.39944   0.42223   0.30048   0.00000  Uiso   1.00
H438   H     0.34732   0.40332   0.30183   0.00000  Uiso   1.00
C439   C     0.62824   0.58344   0.21742   0.00000  Uiso   1.00
H440   H     0.62375   0.60955   0.24244   0.00000  Uiso   1.00
H441   H     0.65064   0.59648   0.19426   0.00000  Uiso   1.00
H442   H     0.59848   0.57768   0.19726   0.00000  Uiso   1.00
C443   C     0.62820   0.41658   0.21736   0.00000  Uiso   1.00
H444   H     0.62362   0.39049   0.24237   0.00000  Uiso   1.00
H445   H     0.59846   0.42238   0.19717   0.00000  Uiso   1.00
H446   H     0.65060   0.40350   0.19423   0.00000  Uiso   1.00
C447   C     0.37036   0.58353   0.27945   0.00000  Uiso   1.00
H448   H     0.37554   0.60954   0.25455   0.00000  Uiso   1.00
H449   H     0.34736   0.59667   0.30188   0.00000  Uiso   1.00
H450   H     0.39947   0.57771   0.30057   0.00000  Uiso   1.00
C451   C     0.75363   0.50000   0.25511   0.00000  Uiso   1.00
C452   C     0.91272   0.50000   0.24402   0.00000  Uiso   1.00
C453   C     0.83665   0.50000   0.16416   0.00000  Uiso   1.00
C454   C     0.82928   0.50000   0.33574   0.00000  Uiso   1.00
C455   C     0.86126   0.35729   0.27805   0.00000  Uiso   1.00
C456   C     0.80556   0.64271   0.22176   0.00000  Uiso   1.00
C457   C     0.80556   0.35727   0.22176   0.00000  Uiso   1.00
C458   C     0.86126   0.64273   0.27805   0.00000  Uiso   1.00
C459   C     0.68672   0.45906   0.25763   0.00000  Uiso   1.00
C460   C     0.97909   0.54088   0.23887   0.00000  Uiso   1.00
C461   C     0.97908   0.45913   0.23883   0.00000  Uiso   1.00
C462   C     0.68673   0.54093   0.25767   0.00000  Uiso   1.00
C463   C     0.83429   0.54027   0.04662   0.00000  Uiso   1.00
C464   C     0.80961   0.45992   0.45113   0.00000  Uiso   1.00
C465   C     0.80964   0.54009   0.45115   0.00000  Uiso   1.00
C466   C     0.83426   0.45972   0.04660   0.00000  Uiso   1.00
C467   C     0.84343   0.54072   0.09224   0.00000  Uiso   1.00
C468   C     0.81173   0.45911   0.40543   0.00000  Uiso   1.00
C469   C     0.81178   0.54091   0.40545   0.00000  Uiso   1.00
C470   C     0.84340   0.45927   0.09222   0.00000  Uiso   1.00
C471   C     0.84148   0.49999   0.11607   0.00000  Uiso   1.00
C472   C     0.81838   0.50001   0.38259   0.00000  Uiso   1.00
C473   C     0.82566   0.50000   0.02361   0.00000  Uiso   1.00
C474   C     0.81446   0.50001   0.47494   0.00000  Uiso   1.00
C475   C     0.95709   0.50001   0.23623   0.00000  Uiso   1.00
C476   C     0.70876   0.49999   0.26090   0.00000  Uiso   1.00
H477   H     0.83563   0.57192   0.02972   0.00000  Uiso   1.00
H478   H     0.80482   0.42854   0.46761   0.00000  Uiso   1.00
H479   H     0.80489   0.57147   0.46764   0.00000  Uiso   1.00
H480   H     0.83558   0.42808   0.02968   0.00000  Uiso   1.00
N481   N     0.83333   0.61907   0.25000   0.00000  Uiso   1.00
N482   N     0.83333   0.38093   0.25000   0.00000  Uiso   1.00
O483   O     0.77226   0.53821   0.25000   0.00000  Uiso   1.00
O484   O     0.89441   0.46179   0.25001   0.00000  Uiso   1.00
O485   O     0.89441   0.53821   0.25001   0.00000  Uiso   1.00
O486   O     0.77226   0.46179   0.25000   0.00000  Uiso   1.00
O487   O     0.83333   0.53822   0.18453   0.00000  Uiso   1.00
O488   O     0.83334   0.46178   0.31547   0.00000  Uiso   1.00
O489   O     0.83334   0.53822   0.31547   0.00000  Uiso   1.00
O490   O     0.83333   0.46178   0.18453   0.00000  Uiso   1.00
Zn491  Zn    0.83333   0.55104   0.25000   0.00000  Uiso   1.00
Zn492  Zn    0.83333   0.44896   0.25000   0.00000  Uiso   1.00
C493   C     0.89303   0.38103   0.30957   0.00000  Uiso   1.00
H494   H     0.89049   0.41729   0.30986   0.00000  Uiso   1.00
H495   H     0.88988   0.37028   0.34411   0.00000  Uiso   1.00
H496   H     0.92521   0.37256   0.30162   0.00000  Uiso   1.00
C497   C     0.77424   0.61899   0.18970   0.00000  Uiso   1.00
H498   H     0.77621   0.58268   0.19005   0.00000  Uiso   1.00
H499   H     0.74189   0.62798   0.19657   0.00000  Uiso   1.00
H500   H     0.77841   0.62925   0.15519   0.00000  Uiso   1.00
C501   C     0.77423   0.38098   0.18971   0.00000  Uiso   1.00
H502   H     0.77622   0.41729   0.19005   0.00000  Uiso   1.00
H503   H     0.77838   0.37070   0.15519   0.00000  Uiso   1.00
H504   H     0.74189   0.37199   0.19659   0.00000  Uiso   1.00
C505   C     0.89304   0.61901   0.30955   0.00000  Uiso   1.00
H506   H     0.89048   0.58274   0.30986   0.00000  Uiso   1.00
H507   H     0.92521   0.62747   0.30158   0.00000  Uiso   1.00
H508   H     0.88992   0.62978   0.34409   0.00000  Uiso   1.00
C509   C     0.85958   0.58394   0.11315   0.00000  Uiso   1.00
H510   H     0.83593   0.59957   0.13267   0.00000  Uiso   1.00
H511   H     0.88856   0.57723   0.13444   0.00000  Uiso   1.00
H512   H     0.86776   0.60892   0.08799   0.00000  Uiso   1.00
C513   C     0.80659   0.41395   0.38322   0.00000  Uiso   1.00
H514   H     0.83697   0.40273   0.37261   0.00000  Uiso   1.00
H515   H     0.79571   0.38771   0.40573   0.00000  Uiso   1.00
H516   H     0.78295   0.41579   0.35474   0.00000  Uiso   1.00
C517   C     0.80673   0.58608   0.38327   0.00000  Uiso   1.00
H518   H     0.83713   0.59723   0.37267   0.00000  Uiso   1.00
H519   H     0.78308   0.58430   0.35478   0.00000  Uiso   1.00
H520   H     0.79590   0.61234   0.40579   0.00000  Uiso   1.00
C521   C     0.85950   0.41603   0.11312   0.00000  Uiso   1.00
H522   H     0.83583   0.40045   0.13264   0.00000  Uiso   1.00
H523   H     0.86763   0.39103   0.08795   0.00000  Uiso   1.00
H524   H     0.88849   0.42271   0.13440   0.00000  Uiso   1.00
C525   C     0.70365   0.41645   0.27938   0.00000  Uiso   1.00
H526   H     0.70878   0.39043   0.25447   0.00000  Uiso   1.00
H527   H     0.73278   0.42223   0.30048   0.00000  Uiso   1.00
H528   H     0.68065   0.40332   0.30183   0.00000  Uiso   1.00
C529   C     0.96158   0.58344   0.21742   0.00000  Uiso   1.00
H530   H     0.95708   0.60955   0.24244   0.00000  Uiso   1.00
H531   H     0.98397   0.59648   0.19426   0.00000  Uiso   1.00
H532   H     0.93182   0.57768   0.19726   0.00000  Uiso   1.00
C533   C     0.96153   0.41658   0.21736   0.00000  Uiso   1.00
H534   H     0.95696   0.39049   0.24237   0.00000  Uiso   1.00
H535   H     0.93180   0.42238   0.19717   0.00000  Uiso   1.00
H536   H     0.98393   0.40350   0.19423   0.00000  Uiso   1.00
C537   C     0.70370   0.58353   0.27945   0.00000  Uiso   1.00
H538   H     0.70887   0.60954   0.25455   0.00000  Uiso   1.00
H539   H     0.68069   0.59667   0.30188   0.00000  Uiso   1.00
H540   H     0.73281   0.57771   0.30057   0.00000  Uiso   1.00
C541   C     0.08696   0.83333   0.25511   0.00000  Uiso   1.00
C542   C     0.24605   0.83334   0.24402   0.00000  Uiso   1.00
C543   C     0.16998   0.83333   0.16416   0.00000  Uiso   1.00
C544   C     0.16262   0.83334   0.33574   0.00000  Uiso   1.00
C545   C     0.19459   0.69062   0.27805   0.00000  Uiso   1.00
C546   C     0.13890   0.97605   0.22176   0.00000  Uiso   1.00
C547   C     0.13890   0.69061   0.22176   0.00000  Uiso   1.00
C548   C     0.19459   0.97606   0.27805   0.00000  Uiso   1.00
C549   C     0.02005   0.79239   0.25763   0.00000  Uiso   1.00
C550   C     0.31243   0.87422   0.23887   0.00000  Uiso   1.00
C551   C     0.31241   0.79246   0.23883   0.00000  Uiso   1.00
C552   C     0.02007   0.87427   0.25767   0.00000  Uiso   1.00
C553   C     0.16762   0.87361   0.04662   0.00000  Uiso   1.00
C554   C     0.14294   0.79326   0.45113   0.00000  Uiso   1.00
C555   C     0.14298   0.87343   0.45115   0.00000  Uiso   1.00
C556   C     0.16760   0.79305   0.04660   0.00000  Uiso   1.00
C557   C     0.17676   0.87405   0.09224   0.00000  Uiso   1.00
C558   C     0.14507   0.79244   0.40543   0.00000  Uiso   1.00
C559   C     0.14511   0.87425   0.40545   0.00000  Uiso   1.00
C560   C     0.17673   0.79260   0.09222   0.00000  Uiso   1.00
C561   C     0.17482   0.83333   0.11607   0.00000  Uiso   1.00
C562   C     0.15172   0.83334   0.38259   0.00000  Uiso   1.00
C563   C     0.15899   0.83333   0.02361   0.00000  Uiso   1.00
C564   C     0.14779   0.83334   0.47494   0.00000  Uiso   1.00
C565   C     0.29043   0.83334   0.23623   0.00000  Uiso   1.00
C566   C     0.04210   0.83333   0.26090   0.00000  Uiso   1.00
H567   H     0.16896   0.90525   0.02972   0.00000  Uiso   1.00
H568   H     0.13816   0.76188   0.46761   0.00000  Uiso   1.00
H569   H     0.13823   0.90481   0.46764   0.00000  Uiso   1.00
H570   H     0.16892   0.76142   0.02968   0.00000  Uiso   1.00
N571   N     0.16667   0.95240   0.25000   0.00000  Uiso   1.00
N572   N     0.16667   0.71427   0.25000   0.00000  Uiso   1.00
O573   O     0.10559   0.87154   0.25000   0.00000  Uiso   1.00
O574   O     0.22774   0.79513   0.25001   0.00000  Uiso   1.00
O575   O     0.22774   0.87154   0.25001   0.00000  Uiso   1.00
O576   O     0.10559   0.79513   0.25000   0.00000  Uiso   1.00
O577   O     0.16666   0.87155   0.18453   0.00000  Uiso   1.00
O578   O     0.16667   0.79511   0.31547   0.00000  Uiso   1.00
O579   O     0.16667   0.87155   0.31547   0.00000  Uiso   1.00
O580   O     0.16666   0.79511   0.18453   0.00000  Uiso   1.00
Zn581  Zn    0.16667   0.88437   0.25000   0.00000  Uiso   1.00
Zn582  Zn    0.16667   0.78229   0.25000   0.00000  Uiso   1.00
C583   C     0.22636   0.71436   0.30957   0.00000  Uiso   1.00
H584   H     0.22382   0.75063   0.30986   0.00000  Uiso   1.00
H585   H     0.22321   0.70361   0.34411   0.00000  Uiso   1.00
H586   H     0.25854   0.70589   0.30162   0.00000  Uiso   1.00
C587   C     0.10757   0.95232   0.18970   0.00000  Uiso   1.00
H588   H     0.10955   0.91601   0.19005   0.00000  Uiso   1.00
H589   H     0.07523   0.96131   0.19657   0.00000  Uiso   1.00
H590   H     0.11174   0.96258   0.15519   0.00000  Uiso   1.00
C591   C     0.10757   0.71432   0.18971   0.00000  Uiso   1.00
H592   H     0.10955   0.75062   0.19005   0.00000  Uiso   1.00
H593   H     0.11172   0.70403   0.15519   0.00000  Uiso   1.00
H594   H     0.07523   0.70533   0.19659   0.00000  Uiso   1.00
C595   C     0.22637   0.95234   0.30955   0.00000  Uiso   1.00
H596   H     0.22382   0.91607   0.30986   0.00000  Uiso   1.00
H597   H     0.25855   0.96080   0.30158   0.00000  Uiso   1.00
H598   H     0.22326   0.96311   0.34409   0.00000  Uiso   1.00
C599   C     0.19292   0.91727   0.11315   0.00000  Uiso   1.00
H600   H     0.16927   0.93290   0.13267   0.00000  Uiso   1.00
H601   H     0.22190   0.91056   0.13444   0.00000  Uiso   1.00
H602   H     0.20109   0.94225   0.08799   0.00000  Uiso   1.00
C603   C     0.13993   0.74729   0.38322   0.00000  Uiso   1.00
H604   H     0.17030   0.73606   0.37261   0.00000  Uiso   1.00
H605   H     0.12905   0.72105   0.40573   0.00000  Uiso   1.00
H606   H     0.11628   0.74913   0.35474   0.00000  Uiso   1.00
C607   C     0.14006   0.91941   0.38327   0.00000  Uiso   1.00
H608   H     0.17047   0.93057   0.37267   0.00000  Uiso   1.00
H609   H     0.11642   0.91763   0.35478   0.00000  Uiso   1.00
H610   H     0.12924   0.94567   0.40579   0.00000  Uiso   1.00
C611   C     0.19283   0.74936   0.11312   0.00000  Uiso   1.00
H612   H     0.16916   0.73378   0.13264   0.00000  Uiso   1.00
H613   H     0.20096   0.72437   0.08795   0.00000  Uiso   1.00
H614   H     0.22182   0.75604   0.13440   0.00000  Uiso   1.00
C615   C     0.03699   0.74978   0.27938   0.00000  Uiso   1.00
H616   H     0.04212   0.72376   0.25447   0.00000  Uiso   1.00
H617   H     0.06611   0.75557   0.30048   0.00000  Uiso   1.00
H618   H     0.01398   0.73666   0.30183   0.00000  Uiso   1.00
C619   C     0.29491   0.91677   0.21742   0.00000  Uiso   1.00
H620   H     0.29041   0.94288   0.24244   0.00000  Uiso   1.00
H621   H     0.31730   0.92982   0.19426   0.00000  Uiso   1.00
H622   H     0.26515   0.91101   0.19726   0.00000  Uiso   1.00
C623   C     0.29486   0.74992   0.21736   0.00000  Uiso   1.00
H624   H     0.29029   0.72382   0.24237   0.00000  Uiso   1.00
H625   H     0.26513   0.75571   0.19717   0.00000  Uiso   1.00
H626   H     0.31726   0.73684   0.19423   0.00000  Uiso   1.00
C627   C     0.03703   0.91686   0.27945   0.00000  Uiso   1.00
H628   H     0.04221   0.94287   0.25455   0.00000  Uiso   1.00
H629   H     0.01403   0.93000   0.30188   0.00000  Uiso   1.00
H630   H     0.06614   0.91104   0.30057   0.00000  Uiso   1.00
C631   C     0.42029   0.83333   0.25511   0.00000  Uiso   1.00
C632   C     0.57938   0.83334   0.24402   0.00000  Uiso   1.00
C633   C     0.50332   0.83333   0.16416   0.00000  Uiso   1.00
C634   C     0.49595   0.83334   0.33574   0.00000  Uiso   1.00
C635   C     0.52792   0.69062   0.27805   0.00000  Uiso   1.00
C636   C     0.47223   0.97605   0.22176   0.00000  Uiso   1.00
C637   C     0.47223   0.69061   0.22176   0.00000  Uiso   1.00
C638   C     0.52793   0.97606   0.27805   0.00000  Uiso   1.00
C639   C     0.35338   0.79239   0.25763   0.00000  Uiso   1.00
C640   C     0.64576   0.87422   0.23887   0.00000  Uiso   1.00
C641   C     0.64574   0.79246   0.23883   0.00000  Uiso   1.00
C642   C     0.35340   0.87427   0.25767   0.00000  Uiso   1.00
C643   C     0.50096   0.87361   0.04662   0.00000  Uiso   1.00
C644   C     0.47627   0.79326   0.45113   0.00000  Uiso   1.00
C645   C     0.47631   0.87343   0.45115   0.00000  Uiso   1.00
C646   C     0.50093   0.79305   0.04660   0.00000  Uiso   1.00
C647   C     0.51009   0.87405   0.09224   0.00000  Uiso   1.00
C648   C     0.47840   0.79244   0.40543   0.00000  Uiso   1.00
C649   C     0.47845   0.87425   0.40545   0.00000  Uiso   1.00
C650   C     0.51006   0.79260   0.09222   0.00000  Uiso   1.00
C651   C     0.50815   0.83333   0.11607   0.00000  Uiso   1.00
C652   C     0.48505   0.83334   0.38259   0.00000  Uiso   1.00
C653   C     0.49232   0.83333   0.02361   0.00000  Uiso   1.00
C654   C     0.48113   0.83334   0.47494   0.00000  Uiso   1.00
C655   C     0.62376   0.83334   0.23623   0.00000  Uiso   1.00
C656   C     0.37543   0.83333   0.26090   0.00000  Uiso   1.00
H657   H     0.50229   0.90525   0.02972   0.00000  Uiso   1.00
H658   H     0.47149   0.76188   0.46761   0.00000  Uiso   1.00
H659   H     0.47156   0.90481   0.46764   0.00000  Uiso   1.00
H660   H     0.50225   0.76142   0.02968   0.00000  Uiso   1.00
N661   N     0.50000   0.95240   0.25000   0.00000  Uiso   1.00
N662   N     0.50000   0.71427   0.25000   0.00000  Uiso   1.00
O663   O     0.43892   0.87154   0.25000   0.00000  Uiso   1.00
O664   O     0.56108   0.79513   0.25001   0.00000  Uiso   1.00
O665   O     0.56108   0.87154   0.25001   0.00000  Uiso   1.00
O666   O     0.43892   0.79513   0.25000   0.00000  Uiso   1.00
O667   O     0.50000   0.87155   0.18453   0.00000  Uiso   1.00
O668   O     0.50000   0.79511   0.31547   0.00000  Uiso   1.00
O669   O     0.50000   0.87155   0.31547   0.00000  Uiso   1.00
O670   O     0.50000   0.79511   0.18453   0.00000  Uiso   1.00
Zn671  Zn    0.50000   0.88437   0.25000   0.00000  Uiso   1.00
Zn672  Zn    0.50000   0.78229   0.25000   0.00000  Uiso   1.00
C673   C     0.55970   0.71436   0.30957   0.00000  Uiso   1.00
H674   H     0.55716   0.75063   0.30986   0.00000  Uiso   1.00
H675   H     0.55655   0.70361   0.34411   0.00000  Uiso   1.00
H676   H     0.59188   0.70589   0.30162   0.00000  Uiso   1.00
C677   C     0.44090   0.95232   0.18970   0.00000  Uiso   1.00
H678   H     0.44288   0.91601   0.19005   0.00000  Uiso   1.00
H679   H     0.40856   0.96131   0.19657   0.00000  Uiso   1.00
H680   H     0.44508   0.96258   0.15519   0.00000  Uiso   1.00
C681   C     0.44090   0.71432   0.18971   0.00000  Uiso   1.00
H682   H     0.44289   0.75062   0.19005   0.00000  Uiso   1.00
H683   H     0.44505   0.70403   0.15519   0.00000  Uiso   1.00
H684   H     0.40856   0.70533   0.19659   0.00000  Uiso   1.00
C685   C     0.55971   0.95234   0.30955   0.00000  Uiso   1.00
H686   H     0.55715   0.91607   0.30986   0.00000  Uiso   1.00
H687   H     0.59188   0.96080   0.30158   0.00000  Uiso   1.00
H688   H     0.55659   0.96311   0.34409   0.00000  Uiso   1.00
C689   C     0.52625   0.91727   0.11315   0.00000  Uiso   1.00
H690   H     0.50260   0.93290   0.13267   0.00000  Uiso   1.00
H691   H     0.55523   0.91056   0.13444   0.00000  Uiso   1.00
H692   H     0.53443   0.94225   0.08799   0.00000  Uiso   1.00
C693   C     0.47326   0.74729   0.38322   0.00000  Uiso   1.00
H694   H     0.50364   0.73606   0.37261   0.00000  Uiso   1.00
H695   H     0.46238   0.72105   0.40573   0.00000  Uiso   1.00
H696   H     0.44962   0.74913   0.35474   0.00000  Uiso   1.00
C697   C     0.47339   0.91941   0.38327   0.00000  Uiso   1.00
H698   H     0.50380   0.93057   0.37267   0.00000  Uiso   1.00
H699   H     0.44975   0.91763   0.35478   0.00000  Uiso   1.00
H700   H     0.46257   0.94567   0.40579   0.00000  Uiso   1.00
C701   C     0.52616   0.74936   0.11312   0.00000  Uiso   1.00
H702   H     0.50250   0.73378   0.13264   0.00000  Uiso   1.00
H703   H     0.53429   0.72437   0.08795   0.00000  Uiso   1.00
H704   H     0.55516   0.75604   0.13440   0.00000  Uiso   1.00
C705   C     0.37032   0.74978   0.27938   0.00000  Uiso   1.00
H706   H     0.37545   0.72376   0.25447   0.00000  Uiso   1.00
H707   H     0.39944   0.75557   0.30048   0.00000  Uiso   1.00
H708   H     0.34732   0.73666   0.30183   0.00000  Uiso   1.00
C709   C     0.62824   0.91677   0.21742   0.00000  Uiso   1.00
H710   H     0.62375   0.94288   0.24244   0.00000  Uiso   1.00
H711   H     0.65064   0.92982   0.19426   0.00000  Uiso   1.00
H712   H     0.59848   0.91101   0.19726   0.00000  Uiso   1.00
C713   C     0.62820   0.74992   0.21736   0.00000  Uiso   1.00
H714   H     0.62362   0.72382   0.24237   0.00000  Uiso   1.00
H715   H     0.59846   0.75571   0.19717   0.00000  Uiso   1.00
H716   H     0.65060   0.73684   0.19423   0.00000  Uiso   1.00
C717   C     0.37036   0.91686   0.27945   0.00000  Uiso   1.00
H718   H     0.37554   0.94287   0.25455   0.00000  Uiso   1.00
H719   H     0.34736   0.93000   0.30188   0.00000  Uiso   1.00
H720   H     0.39947   0.91104   0.30057   0.00000  Uiso   1.00
C721   C     0.75363   0.83333   0.25511   0.00000  Uiso   1.00
C722   C     0.91272   0.83334   0.24402   0.00000  Uiso   1.00
C723   C     0.83665   0.83333   0.16416   0.00000  Uiso   1.00
C724   C     0.82928   0.83334   0.33574   0.00000  Uiso   1.00
C725   C     0.86126   0.69062   0.27805   0.00000  Uiso   1.00
C726   C     0.80556   0.97605   0.22176   0.00000  Uiso   1.00
C727   C     0.80556   0.69061   0.22176   0.00000  Uiso   1.00
C728   C     0.86126   0.97606   0.27805   0.00000  Uiso   1.00
C729   C     0.68672   0.79239   0.25763   0.00000  Uiso   1.00
C730   C     0.97909   0.87422   0.23887   0.00000  Uiso   1.00
C731   C     0.97908   0.79246   0.23883   0.00000  Uiso   1.00
C732   C     0.68673   0.87427   0.25767   0.00000  Uiso   1.00
C733   C     0.83429   0.87361   0.04662   0.00000  Uiso   1.00
C734   C     0.80961   0.79326   0.45113   0.00000  Uiso   1.00
C735   C     0.80964   0.87343   0.45115   0.00000  Uiso   1.00
C736   C     0.83426   0.79305   0.04660   0.00000  Uiso   1.00
C737   C     0.84343   0.87405   0.09224   0.00000  Uiso   1.00
C738   C     0.81173   0.79244   0.40543   0.00000  Uiso   1.00
C739   C     0.81178   0.87425   0.40545   0.00000  Uiso   1.00
C740   C     0.84340   0.79260   0.09222   0.00000  Uiso   1.00
C741   C     0.84148   0.83333   0.11607   0.00000  Uiso   1.00
C742   C     0.81838   0.83334   0.38259   0.00000  Uiso   1.00
C743   C     0.82566   0.83333   0.02361   0.00000  Uiso   1.00
C744   C     0.81446   0.83334   0.47494   0.00000  Uiso   1.00
C745   C     0.95709   0.83334   0.23623   0.00000  Uiso   1.00
C746   C     0.70876   0.83333   0.26090   0.00000  Uiso   1.00
H747   H     0.83563   0.90525   0.02972   0.00000  Uiso   1.00
H748   H     0.80482   0.76188   0.46761   0.00000  Uiso   1.00
H749   H     0.80489   0.90481   0.46764   0.00000  Uiso   1.00
H750   H     0.83558   0.76142   0.02968   0.00000  Uiso   1.00
N751   N     0.83333   0.95240   0.25000   0.00000  Uiso   1.00
N752   N     0.83333   0.71427   0.25000   0.00000  Uiso   1.00
O753   O     0.77226   0.87154   0.25000   0.00000  Uiso   1.00
O754   O     0.89441   0.79513   0.25001   0.00000  Uiso   1.00
O755   O     0.89441   0.87154   0.25001   0.00000  Uiso   1.00
O756   O     0.77226   0.79513   0.25000   0.00000  Uiso   1.00
O757   O     0.83333   0.87155   0.18453   0.00000  Uiso   1.00
O758   O     0.83334   0.79511   0.31547   0.00000  Uiso   1.00
O759   O     0.83334   0.87155   0.31547   0.00000  Uiso   1.00
O760   O     0.83333   0.79511   0.18453   0.00000  Uiso   1.00
Zn761  Zn    0.83333   0.88437   0.25000   0.00000  Uiso   1.00
Zn762  Zn    0.83333   0.78229   0.25000   0.00000  Uiso   1.00
C763   C     0.89303   0.71436   0.30957   0.00000  Uiso   1.00
H764   H     0.89049   0.75063   0.30986   0.00000  Uiso   1.00
H765   H     0.88988   0.70361   0.34411   0.00000  Uiso   1.00
H766   H     0.92521   0.70589   0.30162   0.00000  Uiso   1.00
C767   C     0.77424   0.95232   0.18970   0.00000  Uiso   1.00
H768   H     0.77621   0.91601   0.19005   0.00000  Uiso   1.00
H769   H     0.74189   0.96131   0.19657   0.00000  Uiso   1.00
H770   H     0.77841   0.96258   0.15519   0.00000  Uiso   1.00
C771   C     0.77423   0.71432   0.18971   0.00000  Uiso   1.00
H772   H     0.77622   0.75062   0.19005   0.00000  Uiso   1.00
H773   H     0.77838   0.70403   0.15519   0.00000  Uiso   1.00
H774   H     0.74189   0.70533   0.19659   0.00000  Uiso   1.00
C775   C     0.89304   0.95234   0.30955   0.00000  Uiso   1.00
H776   H     0.89048   0.91607   0.30986   0.00000  Uiso   1.00
H777   H     0.92521   0.96080   0.30158   0.00000  Uiso   1.00
H778   H     0.88992   0.96311   0.34409   0.00000  Uiso   1.00
C779   C     0.85958   0.91727   0.11315   0.00000  Uiso   1.00
H780   H     0.83593   0.93290   0.13267   0.00000  Uiso   1.00
H781   H     0.88856   0.91056   0.13444   0.00000  Uiso   1.00
H782   H     0.86776   0.94225   0.08799   0.00000  Uiso   1.00
C783   C     0.80659   0.74729   0.38322   0.00000  Uiso   1.00
H784   H     0.83697   0.73606   0.37261   0.00000  Uiso   1.00
H785   H     0.79571   0.72105   0.40573   0.00000  Uiso   1.00
H786   H     0.78295   0.74913   0.35474   0.00000  Uiso   1.00
C787   C     0.80673   0.91941   0.38327   0.00000  Uiso   1.00
H788   H     0.83713   0.93057   0.37267   0.00000  Uiso   1.00
H789   H     0.78308   0.91763   0.35478   0.00000  Uiso   1.00
H790   H     0.79590   0.94567   0.40579   0.00000  Uiso   1.00
C791   C     0.85950   0.74936   0.11312   0.00000  Uiso   1.00
H792   H     0.83583   0.73378   0.13264   0.00000  Uiso   1.00
H793   H     0.86763   0.72437   0.08795   0.00000  Uiso   1.00
H794   H     0.88849   0.75604   0.13440   0.00000  Uiso   1.00
C795   C     0.70365   0.74978   0.27938   0.00000  Uiso   1.00
H796   H     0.70878   0.72376   0.25447   0.00000  Uiso   1.00
H797   H     0.73278   0.75557   0.30048   0.00000  Uiso   1.00
H798   H     0.68065   0.73666   0.30183   0.00000  Uiso   1.00
C799   C     0.96158   0.91677   0.21742   0.00000  Uiso   1.00
H800   H     0.95708   0.94288   0.24244   0.00000  Uiso   1.00
H801   H     0.98397   0.92982   0.19426   0.00000  Uiso   1.00
H802   H     0.93182   0.91101   0.19726   0.00000  Uiso   1.00
C803   C     0.96153   0.74992   0.21736   0.00000  Uiso   1.00
H804   H     0.95696   0.72382   0.24237   0.00000  Uiso   1.00
H805   H     0.93180   0.75571   0.19717   0.00000  Uiso   1.00
H806   H     0.98393   0.73684   0.19423   0.00000  Uiso   1.00
C807   C     0.70370   0.91686   0.27945   0.00000  Uiso   1.00
H808   H     0.70887   0.94287   0.25455   0.00000  Uiso   1.00
H809   H     0.68069   0.93000   0.30188   0.00000  Uiso   1.00
H810   H     0.73281   0.91104   0.30057   0.00000  Uiso   1.00
C811   C     0.08696   0.16666   0.75511   0.00000  Uiso   1.00
C812   C     0.24605   0.16667   0.74402   0.00000  Uiso   1.00
C813   C     0.16998   0.16666   0.66416   0.00000  Uiso   1.00
C814   C     0.16262   0.16667   0.83574   0.00000  Uiso   1.00
C815   C     0.19459   0.02395   0.77805   0.00000  Uiso   1.00
C816   C     0.13890   0.30938   0.72176   0.00000  Uiso   1.00
C817   C     0.13890   0.02394   0.72176   0.00000  Uiso   1.00
C818   C     0.19459   0.30940   0.77805   0.00000  Uiso   1.00
C819   C     0.02005   0.12572   0.75763   0.00000  Uiso   1.00
C820   C     0.31243   0.20755   0.73887   0.00000  Uiso   1.00
C821   C     0.31241   0.12579   0.73883   0.00000  Uiso   1.00
C822   C     0.02007   0.20760   0.75767   0.00000  Uiso   1.00
C823   C     0.16762   0.20694   0.54662   0.00000  Uiso   1.00
C824   C     0.14294   0.12659   0.95113   0.00000  Uiso   1.00
C825   C     0.14298   0.20676   0.95115   0.00000  Uiso   1.00
C826   C     0.16760   0.12639   0.54660   0.00000  Uiso   1.00
C827   C     0.17676   0.20738   0.59224   0.00000  Uiso   1.00
C828   C     0.14507   0.12577   0.90543   0.00000  Uiso   1.00
C829   C     0.14511   0.20758   0.90545   0.00000  Uiso   1.00
C830   C     0.17673   0.12594   0.59222   0.00000  Uiso   1.00
C831   C     0.17482   0.16666   0.61607   0.00000  Uiso   1.00
C832   C     0.15172   0.16667   0.88259   0.00000  Uiso   1.00
C833   C     0.15899   0.16667   0.52361   0.00000  Uiso   1.00
C834   C     0.14779   0.16667   0.97494   0.00000  Uiso   1.00
C835   C     0.29043   0.16667   0.73623   0.00000  Uiso   1.00
C836   C     0.04210   0.16666   0.76090   0.00000  Uiso   1.00
H837   H     0.16896   0.23858   0.52972   0.00000  Uiso   1.00
H838   H     0.13816   0.09521   0.96761   0.00000  Uiso   1.00
H839   H     0.13823   0.23814   0.96764   0.00000  Uiso   1.00
H840   H     0.16892   0.09475   0.52968   0.00000  Uiso   1.00
N841   N     0.16667   0.28573   0.75000   0.00000  Uiso   1.00
N842   N     0.16667   0.04760   0.75000   0.00000  Uiso   1.00
O843   O     0.10559   0.20487   0.75000   0.00000  Uiso   1.00
O844   O     0.22774   0.12846   0.75001   0.00000  Uiso   1.00
O845   O     0.22774   0.20487   0.75001   0.00000  Uiso   1.00
O846   O     0.10559   0.12846   0.75000   0.00000  Uiso   1.00
O847   O     0.16666   0.20489   0.68453   0.00000  Uiso   1.00
O848   O     0.16667   0.12845   0.81547   0.00000  Uiso   1.00
O849   O     0.16667   0.20489   0.81547   0.00000  Uiso   1.00
O850   O     0.16666   0.12845   0.68453   0.00000  Uiso   1.00
Zn851  Zn    0.16667   0.21771   0.75000   0.00000  Uiso   1.00
Zn852  Zn    0.16667   0.11563   0.75000   0.00000  Uiso   1.00
C853   C     0.22636   0.04769   0.80957   0.00000  Uiso   1.00
H854   H     0.22382   0.08396   0.80986   0.00000  Uiso   1.00
H855   H     0.22321   0.03695   0.84411   0.00000  Uiso   1.00
H856   H     0.25854   0.03923   0.80162   0.00000  Uiso   1.00
C857   C     0.10757   0.28565   0.68970   0.00000  Uiso   1.00
H858   H     0.10955   0.24935   0.69005   0.00000  Uiso   1.00
H859   H     0.07523   0.29464   0.69657   0.00000  Uiso   1.00
H860   H     0.11174   0.29592   0.65519   0.00000  Uiso   1.00
C861   C     0.10757   0.04765   0.68971   0.00000  Uiso   1.00
H862   H     0.10955   0.08396   0.69005   0.00000  Uiso   1.00
H863   H     0.11172   0.03736   0.65519   0.00000  Uiso   1.00
H864   H     0.07523   0.03866   0.69659   0.00000  Uiso   1.00
C865   C     0.22637   0.28567   0.80955   0.00000  Uiso   1.00
H866   H     0.22382   0.24941   0.80986   0.00000  Uiso   1.00
H867   H     0.25855   0.29413   0.80158   0.00000  Uiso   1.00
H868   H     0.22326   0.29644   0.84409   0.00000  Uiso   1.00
C869   C     0.19292   0.25061   0.61315   0.00000  Uiso   1.00
H870   H     0.16927   0.26623   0.63267   0.00000  Uiso   1.00
H871   H     0.22190   0.24390   0.63444   0.00000  Uiso   1.00
H872   H     0.20109   0.27558   0.58799   0.00000  Uiso   1.00
C873   C     0.13993   0.08062   0.88322   0.00000  Uiso   1.00
H874   H     0.17030   0.06940   0.87261   0.00000  Uiso   1.00
H875   H     0.12905   0.05438   0.90573   0.00000  Uiso   1.00
H876   H     0.11628   0.08246   0.85474   0.00000  Uiso   1.00
C877   C     0.14006   0.25275   0.88327   0.00000  Uiso   1.00
H878   H     0.17047   0.26390   0.87267   0.00000  Uiso   1.00
H879   H     0.11642   0.25097   0.85478   0.00000  Uiso   1.00
H880   H     0.12924   0.27900   0.90579   0.00000  Uiso   1.00
C881   C     0.19283   0.08270   0.61312   0.00000  Uiso   1.00
H882   H     0.16916   0.06711   0.63264   0.00000  Uiso   1.00
H883   H     0.20096   0.05770   0.58795   0.00000  Uiso   1.00
H884   H     0.22182   0.08937   0.63440   0.00000  Uiso   1.00
C885   C     0.03699   0.08312   0.77938   0.00000  Uiso   1.00
H886   H     0.04212   0.05709   0.75447   0.00000  Uiso   1.00
H887   H     0.06611   0.08890   0.80048   0.00000  Uiso   1.00
H888   H     0.01398   0.06999   0.80183   0.00000  Uiso   1.00
C889   C     0.29491   0.25011   0.71742   0.00000  Uiso   1.00
H890   H     0.29041   0.27622   0.74244   0.00000  Uiso   1.00
H891   H     0.31730   0.26315   0.69426   0.00000  Uiso   1.00
H892   H     0.26515   0.24435   0.69726   0.00000  Uiso   1.00
C893   C     0.29486   0.08325   0.71736   0.00000  Uiso   1.00
H894   H     0.29029   0.05715   0.74237   0.00000  Uiso   1.00
H895   H     0.26513   0.08905   0.69717   0.00000  Uiso   1.00
H896   H     0.31726   0.07017   0.69423   0.00000  Uiso   1.00
C897   C     0.03703   0.25019   0.77945   0.00000  Uiso   1.00
H898   H     0.04221   0.27621   0.75455   0.00000  Uiso   1.00
H899   H     0.01403   0.26334   0.80188   0.00000  Uiso   1.00
H900   H     0.06614   0.24438   0.80057   0.00000  Uiso   1.00
C901   C     0.42029   0.16666   0.75511   0.00000  Uiso   1.00
C902   C     0.57938   0.16667   0.74402   0.00000  Uiso   1.00
C903   C     0.50332   0.16666   0.66416   0.00000  Uiso   1.00
C904   C     0.49595   0.16667   0.83574   0.00000  Uiso   1.00
C905   C     0.52792   0.02395   0.77805   0.00000  Uiso   1.00
C906   C     0.47223   0.30938   0.72176   0.00000  Uiso   1.00
C907   C     0.47223   0.02394   0.72176   0.00000  Uiso   1.00
C908   C     0.52793   0.30940   0.77805   0.00000  Uiso   1.00
C909   C     0.35338   0.12572   0.75763   0.00000  Uiso   1.00
C910   C     0.64576   0.20755   0.73887   0.00000  Uiso   1.00
C911   C     0.64574   0.12579   0.73883   0.00000  Uiso   1.00
C912   C     0.35340   0.20760   0.75767   0.00000  Uiso   1.00
C913   C     0.50096   0.20694   0.54662   0.00000  Uiso   1.00
C914   C     0.47627   0.12659   0.95113   0.00000  Uiso   1.00
C915   C     0.47631   0.20676   0.95115   0.00000  Uiso   1.00
C916   C     0.50093   0.12639   0.54660   0.00000  Uiso   1.00
C917   C     0.51009   0.20738   0.59224   0.00000  Uiso   1.00
C918   C     0.47840   0.12577   0.90543   0.00000  Uiso   1.00
C919   C     0.47845   0.20758   0.90545   0.00000  Uiso   1.00
C920   C     0.51006   0.12594   0.59222   0.00000  Uiso   1.00
C921   C     0.50815   0.16666   0.61607   0.00000  Uiso   1.00
C922   C     0.48505   0.16667   0.88259   0.00000  Uiso   1.00
C923   C     0.49232   0.16667   0.52361   0.00000  Uiso   1.00
C924   C     0.48113   0.16667   0.97494   0.00000  Uiso   1.00
C925   C     0.62376   0.16667   0.73623   0.00000  Uiso   1.00
C926   C     0.37543   0.16666   0.76090   0.00000  Uiso   1.00
H927   H     0.50229   0.23858   0.52972   0.00000  Uiso   1.00
H928   H     0.47149   0.09521   0.96761   0.00000  Uiso   1.00
H929   H     0.47156   0.23814   0.96764   0.00000  Uiso   1.00
H930   H     0.50225   0.09475   0.52968   0.00000  Uiso   1.00
N931   N     0.50000   0.28573   0.75000   0.00000  Uiso   1.00
N932   N     0.50000   0.04760   0.75000   0.00000  Uiso   1.00
O933   O     0.43892   0.20487   0.75000   0.00000  Uiso   1.00
O934   O     0.56108   0.12846   0.75001   0.00000  Uiso   1.00
O935   O     0.56108   0.20487   0.75001   0.00000  Uiso   1.00
O936   O     0.43892   0.12846   0.75000   0.00000  Uiso   1.00
O937   O     0.50000   0.20489   0.68453   0.00000  Uiso   1.00
O938   O     0.50000   0.12845   0.81547   0.00000  Uiso   1.00
O939   O     0.50000   0.20489   0.81547   0.00000  Uiso   1.00
O940   O     0.50000   0.12845   0.68453   0.00000  Uiso   1.00
Zn941  Zn    0.50000   0.21771   0.75000   0.00000  Uiso   1.00
Zn942  Zn    0.50000   0.11563   0.75000   0.00000  Uiso   1.00
C943   C     0.55970   0.04769   0.80957   0.00000  Uiso   1.00
H944   H     0.55716   0.08396   0.80986   0.00000  Uiso   1.00
H945   H     0.55655   0.03695   0.84411   0.00000  Uiso   1.00
H946   H     0.59188   0.03923   0.80162   0.00000  Uiso   1.00
C947   C     0.44090   0.28565   0.68970   0.00000  Uiso   1.00
H948   H     0.44288   0.24935   0.69005   0.00000  Uiso   1.00
H949   H     0.40856   0.29464   0.69657   0.00000  Uiso   1.00
H950   H     0.44508   0.29592   0.65519   0.00000  Uiso   1.00
C951   C     0.44090   0.04765   0.68971   0.00000  Uiso   1.00
H952   H     0.44289   0.08396   0.69005   0.00000  Uiso   1.00
H953   H     0.44505   0.03736   0.65519   0.00000  Uiso   1.00
H954   H     0.40856   0.03866   0.69659   0.00000  Uiso   1.00
C955   C     0.55971   0.28567   0.80955   0.00000  Uiso   1.00
H956   H     0.55715   0.24941   0.80986   0.00000  Uiso   1.00
H957   H     0.59188   0.29413   0.80158   0.00000  Uiso   1.00
H958   H     0.55659   0.29644   0.84409   0.00000  Uiso   1.00
C959   C     0.52625   0.25061   0.61315   0.00000  Uiso   1.00
H960   H     0.50260   0.26623   0.63267   0.00000  Uiso   1.00
H961   H     0.55523   0.24390   0.63444   0.00000  Uiso   1.00
H962   H     0.53443   0.27558   0.58799   0.00000  Uiso   1.00
C963   C     0.47326   0.08062   0.88322   0.00000  Uiso   1.00
H964   H     0.50364   0.06940   0.87261   0.00000  Uiso   1.00
H965   H     0.46238   0.05438   0.90573   0.00000  Uiso   1.00
H966   H     0.44962   0.08246   0.85474   0.00000  Uiso   1.00
C967   C     0.47339   0.25275   0.88327   0.00000  Uiso   1.00
H968   H     0.50380   0.26390   0.87267   0.00000  Uiso   1.00
H969   H     0.44975   0.25097   0.85478   0.00000  Uiso   1.00
H970   H     0.46257   0.27900   0.90579   0.00000  Uiso   1.00
C971   C     0.52616   0.08270   0.61312   0.00000  Uiso   1.00
H972   H     0.50250   0.06711   0.63264   0.00000  Uiso   1.00
H973   H     0.53429   0.05770   0.58795   0.00000  Uiso   1.00
H974   H     0.55516   0.08937   0.63440   0.00000  Uiso   1.00
C975   C     0.37032   0.08312   0.77938   0.00000  Uiso   1.00
H976   H     0.37545   0.05709   0.75447   0.00000  Uiso   1.00
H977   H     0.39944   0.08890   0.80048   0.00000  Uiso   1.00
H978   H     0.34732   0.06999   0.80183   0.00000  Uiso   1.00
C979   C     0.62824   0.25011   0.71742   0.00000  Uiso   1.00
H980   H     0.62375   0.27622   0.74244   0.00000  Uiso   1.00
H981   H     0.65064   0.26315   0.69426   0.00000  Uiso   1.00
H982   H     0.59848   0.24435   0.69726   0.00000  Uiso   1.00
C983   C     0.62820   0.08325   0.71736   0.00000  Uiso   1.00
H984   H     0.62362   0.05715   0.74237   0.00000  Uiso   1.00
H985   H     0.59846   0.08905   0.69717   0.00000  Uiso   1.00
H986   H     0.65060   0.07017   0.69423   0.00000  Uiso   1.00
C987   C     0.37036   0.25019   0.77945   0.00000  Uiso   1.00
H988   H     0.37554   0.27621   0.75455   0.00000  Uiso   1.00
H989   H     0.34736   0.26334   0.80188   0.00000  Uiso   1.00
H990   H     0.39947   0.24438   0.80057   0.00000  Uiso   1.00
C991   C     0.75363   0.16666   0.75511   0.00000  Uiso   1.00
C992   C     0.91272   0.16667   0.74402   0.00000  Uiso   1.00
C993   C     0.83665   0.16666   0.66416   0.00000  Uiso   1.00
C994   C     0.82928   0.16667   0.83574   0.00000  Uiso   1.00
C995   C     0.86126   0.02395   0.77805   0.00000  Uiso   1.00
C996   C     0.80556   0.30938   0.72176   0.00000  Uiso   1.00
C997   C     0.80556   0.02394   0.72176   0.00000  Uiso   1.00
C998   C     0.86126   0.30940   0.77805   0.00000  Uiso   1.00
C999   C     0.68672   0.12572   0.75763   0.00000  Uiso   1.00
C1000  C     0.97909   0.20755   0.73887   0.00000  Uiso   1.00
C1001  C     0.97908   0.12579   0.73883   0.00000  Uiso   1.00
C1002  C     0.68673   0.20760   0.75767   0.00000  Uiso   1.00
C1003  C     0.83429   0.20694   0.54662   0.00000  Uiso   1.00
C1004  C     0.80961   0.12659   0.95113   0.00000  Uiso   1.00
C1005  C     0.80964   0.20676   0.95115   0.00000  Uiso   1.00
C1006  C     0.83426   0.12639   0.54660   0.00000  Uiso   1.00
C1007  C     0.84343   0.20738   0.59224   0.00000  Uiso   1.00
C1008  C     0.81173   0.12577   0.90543   0.00000  Uiso   1.00
C1009  C     0.81178   0.20758   0.90545   0.00000  Uiso   1.00
C1010  C     0.84340   0.12594   0.59222   0.00000  Uiso   1.00
C1011  C     0.84148   0.16666   0.61607   0.00000  Uiso   1.00
C1012  C     0.81838   0.16667   0.88259   0.00000  Uiso   1.00
C1013  C     0.82566   0.16667   0.52361   0.00000  Uiso   1.00
C1014  C     0.81446   0.16667   0.97494   0.00000  Uiso   1.00
C1015  C     0.95709   0.16667   0.73623   0.00000  Uiso   1.00
C1016  C     0.70876   0.16666   0.76090   0.00000  Uiso   1.00
H1017  H     0.83563   0.23858   0.52972   0.00000  Uiso   1.00
H1018  H     0.80482   0.09521   0.96761   0.00000  Uiso   1.00
H1019  H     0.80489   0.23814   0.96764   0.00000  Uiso   1.00
H1020  H     0.83558   0.09475   0.52968   0.00000  Uiso   1.00
N1021  N     0.83333   0.28573   0.75000   0.00000  Uiso   1.00
N1022  N     0.83333   0.04760   0.75000   0.00000  Uiso   1.00
O1023  O     0.77226   0.20487   0.75000   0.00000  Uiso   1.00
O1024  O     0.89441   0.12846   0.75001   0.00000  Uiso   1.00
O1025  O     0.89441   0.20487   0.75001   0.00000  Uiso   1.00
O1026  O     0.77226   0.12846   0.75000   0.00000  Uiso   1.00
O1027  O     0.83333   0.20489   0.68453   0.00000  Uiso   1.00
O1028  O     0.83334   0.12845   0.81547   0.00000  Uiso   1.00
O1029  O     0.83334   0.20489   0.81547   0.00000  Uiso   1.00
O1030  O     0.83333   0.12845   0.68453   0.00000  Uiso   1.00
Zn1031 Zn    0.83333   0.21771   0.75000   0.00000  Uiso   1.00
Zn1032 Zn    0.83333   0.11563   0.75000   0.00000  Uiso   1.00
C1033  C     0.89303   0.04769   0.80957   0.00000  Uiso   1.00
H1034  H     0.89049   0.08396   0.80986   0.00000  Uiso   1.00
H1035  H     0.88988   0.03695   0.84411   0.00000  Uiso   1.00
H1036  H     0.92521   0.03923   0.80162   0.00000  Uiso   1.00
C1037  C     0.77424   0.28565   0.68970   0.00000  Uiso   1.00
H1038  H     0.77621   0.24935   0.69005   0.00000  Uiso   1.00
H1039  H     0.74189   0.29464   0.69657   0.00000  Uiso   1.00
H1040  H     0.77841   0.29592   0.65519   0.00000  Uiso   1.00
C1041  C     0.77423   0.04765   0.68971   0.00000  Uiso   1.00
H1042  H     0.77622   0.08396   0.69005   0.00000  Uiso   1.00
H1043  H     0.77838   0.03736   0.65519   0.00000  Uiso   1.00
H1044  H     0.74189   0.03866   0.69659   0.00000  Uiso   1.00
C1045  C     0.89304   0.28567   0.80955   0.00000  Uiso   1.00
H1046  H     0.89048   0.24941   0.80986   0.00000  Uiso   1.00
H1047  H     0.92521   0.29413   0.80158   0.00000  Uiso   1.00
H1048  H     0.88992   0.29644   0.84409   0.00000  Uiso   1.00
C1049  C     0.85958   0.25061   0.61315   0.00000  Uiso   1.00
H1050  H     0.83593   0.26623   0.63267   0.00000  Uiso   1.00
H1051  H     0.88856   0.24390   0.63444   0.00000  Uiso   1.00
H1052  H     0.86776   0.27558   0.58799   0.00000  Uiso   1.00
C1053  C     0.80659   0.08062   0.88322   0.00000  Uiso   1.00
H1054  H     0.83697   0.06940   0.87261   0.00000  Uiso   1.00
H1055  H     0.79571   0.05438   0.90573   0.00000  Uiso   1.00
H1056  H     0.78295   0.08246   0.85474   0.00000  Uiso   1.00
C1057  C     0.80673   0.25275   0.88327   0.00000  Uiso   1.00
H1058  H     0.83713   0.26390   0.87267   0.00000  Uiso   1.00
H1059  H     0.78308   0.25097   0.85478   0.00000  Uiso   1.00
H1060  H     0.79590   0.27900   0.90579   0.00000  Uiso   1.00
C1061  C     0.85950   0.08270   0.61312   0.00000  Uiso   1.00
H1062  H     0.83583   0.06711   0.63264   0.00000  Uiso   1.00
H1063  H     0.86763   0.05770   0.58795   0.00000  Uiso   1.00
H1064  H     0.88849   0.08937   0.63440   0.00000  Uiso   1.00
C1065  C     0.70365   0.08312   0.77938   0.00000  Uiso   1.00
H1066  H     0.70878   0.05709   0.75447   0.00000  Uiso   1.00
H1067  H     0.73278   0.08890   0.80048   0.00000  Uiso   1.00
H1068  H     0.68065   0.06999   0.80183   0.00000  Uiso   1.00
C1069  C     0.96158   0.25011   0.71742   0.00000  Uiso   1.00
H1070  H     0.95708   0.27622   0.74244   0.00000  Uiso   1.00
H1071  H     0.98397   0.26315   0.69426   0.00000  Uiso   1.00
H1072  H     0.93182   0.24435   0.69726   0.00000  Uiso   1.00
C1073  C     0.96153   0.08325   0.71736   0.00000  Uiso   1.00
H1074  H     0.95696   0.05715   0.74237   0.00000  Uiso   1.00
H1075  H     0.93180   0.08905   0.69717   0.00000  Uiso   1.00
H1076  H     0.98393   0.07017   0.69423   0.00000  Uiso   1.00
C1077  C     0.70370   0.25019   0.77945   0.00000  Uiso   1.00
H1078  H     0.70887   0.27621   0.75455   0.00000  Uiso   1.00
H1079  H     0.68069   0.26334   0.80188   0.00000  Uiso   1.00
H1080  H     0.73281   0.24438   0.80057   0.00000  Uiso   1.00
C1081  C     0.08696   0.50000   0.75511   0.00000  Uiso   1.00
C1082  C     0.24605   0.50000   0.74402   0.00000  Uiso   1.00
C1083  C     0.16998   0.50000   0.66416   0.00000  Uiso   1.00
C1084  C     0.16262   0.50000   0.83574   0.00000  Uiso   1.00
C1085  C     0.19459   0.35729   0.77805   0.00000  Uiso   1.00
C1086  C     0.13890   0.64271   0.72176   0.00000  Uiso   1.00
C1087  C     0.13890   0.35727   0.72176   0.00000  Uiso   1.00
C1088  C     0.19459   0.64273   0.77805   0.00000  Uiso   1.00
C1089  C     0.02005   0.45906   0.75763   0.00000  Uiso   1.00
C1090  C     0.31243   0.54088   0.73887   0.00000  Uiso   1.00
C1091  C     0.31241   0.45913   0.73883   0.00000  Uiso   1.00
C1092  C     0.02007   0.54093   0.75767   0.00000  Uiso   1.00
C1093  C     0.16762   0.54027   0.54662   0.00000  Uiso   1.00
C1094  C     0.14294   0.45992   0.95113   0.00000  Uiso   1.00
C1095  C     0.14298   0.54009   0.95115   0.00000  Uiso   1.00
C1096  C     0.16760   0.45972   0.54660   0.00000  Uiso   1.00
C1097  C     0.17676   0.54072   0.59224   0.00000  Uiso   1.00
C1098  C     0.14507   0.45911   0.90543   0.00000  Uiso   1.00
C1099  C     0.14511   0.54091   0.90545   0.00000  Uiso   1.00
C1100  C     0.17673   0.45927   0.59222   0.00000  Uiso   1.00
C1101  C     0.17482   0.49999   0.61607   0.00000  Uiso   1.00
C1102  C     0.15172   0.50001   0.88259   0.00000  Uiso   1.00
C1103  C     0.15899   0.50000   0.52361   0.00000  Uiso   1.00
C1104  C     0.14779   0.50001   0.97494   0.00000  Uiso   1.00
C1105  C     0.29043   0.50001   0.73623   0.00000  Uiso   1.00
C1106  C     0.04210   0.49999   0.76090   0.00000  Uiso   1.00
H1107  H     0.16896   0.57192   0.52972   0.00000  Uiso   1.00
H1108  H     0.13816   0.42854   0.96761   0.00000  Uiso   1.00
H1109  H     0.13823   0.57147   0.96764   0.00000  Uiso   1.00
H1110  H     0.16892   0.42808   0.52968   0.00000  Uiso   1.00
N1111  N     0.16667   0.61907   0.75000   0.00000  Uiso   1.00
N1112  N     0.16667   0.38093   0.75000   0.00000  Uiso   1.00
O1113  O     0.10559   0.53821   0.75000   0.00000  Uiso   1.00
O1114  O     0.22774   0.46179   0.75001   0.00000  Uiso   1.00
O1115  O     0.22774   0.53821   0.75001   0.00000  Uiso   1.00
O1116  O     0.10559   0.46179   0.75000   0.00000  Uiso   1.00
O1117  O     0.16666   0.53822   0.68453   0.00000  Uiso   1.00
O1118  O     0.16667   0.46178   0.81547   0.00000  Uiso   1.00
O1119  O     0.16667   0.53822   0.81547   0.00000  Uiso   1.00
O1120  O     0.16666   0.46178   0.68453   0.00000  Uiso   1.00
Zn1121 Zn    0.16667   0.55104   0.75000   0.00000  Uiso   1.00
Zn1122 Zn    0.16667   0.44896   0.75000   0.00000  Uiso   1.00
C1123  C     0.22636   0.38103   0.80957   0.00000  Uiso   1.00
H1124  H     0.22382   0.41729   0.80986   0.00000  Uiso   1.00
H1125  H     0.22321   0.37028   0.84411   0.00000  Uiso   1.00
H1126  H     0.25854   0.37256   0.80162   0.00000  Uiso   1.00
C1127  C     0.10757   0.61899   0.68970   0.00000  Uiso   1.00
H1128  H     0.10955   0.58268   0.69005   0.00000  Uiso   1.00
H1129  H     0.07523   0.62798   0.69657   0.00000  Uiso   1.00
H1130  H     0.11174   0.62925   0.65519   0.00000  Uiso   1.00
C1131  C     0.10757   0.38098   0.68971   0.00000  Uiso   1.00
H1132  H     0.10955   0.41729   0.69005   0.00000  Uiso   1.00
H1133  H     0.11172   0.37070   0.65519   0.00000  Uiso   1.00
H1134  H     0.07523   0.37199   0.69659   0.00000  Uiso   1.00
C1135  C     0.22637   0.61901   0.80955   0.00000  Uiso   1.00
H1136  H     0.22382   0.58274   0.80986   0.00000  Uiso   1.00
H1137  H     0.25855   0.62747   0.80158   0.00000  Uiso   1.00
H1138  H     0.22326   0.62978   0.84409   0.00000  Uiso   1.00
C1139  C     0.19292   0.58394   0.61315   0.00000  Uiso   1.00
H1140  H     0.16927   0.59957   0.63267   0.00000  Uiso   1.00
H1141  H     0.22190   0.57723   0.63444   0.00000  Uiso   1.00
H1142  H     0.20109   0.60892   0.58799   0.00000  Uiso   1.00
C1143  C     0.13993   0.41395   0.88322   0.00000  Uiso   1.00
H1144  H     0.17030   0.40273   0.87261   0.00000  Uiso   1.00
H1145  H     0.12905   0.38771   0.90573   0.00000  Uiso   1.00
H1146  H     0.11628   0.41579   0.85474   0.00000  Uiso   1.00
C1147  C     0.14006   0.58608   0.88327   0.00000  Uiso   1.00
H1148  H     0.17047   0.59723   0.87267   0.00000  Uiso   1.00
H1149  H     0.11642   0.58430   0.85478   0.00000  Uiso   1.00
H1150  H     0.12924   0.61234   0.90579   0.00000  Uiso   1.00
C1151  C     0.19283   0.41603   0.61312   0.00000  Uiso   1.00
H1152  H     0.16916   0.40045   0.63264   0.00000  Uiso   1.00
H1153  H     0.20096   0.39103   0.58795   0.00000  Uiso   1.00
H1154  H     0.22182   0.42271   0.63440   0.00000  Uiso   1.00
C1155  C     0.03699   0.41645   0.77938   0.00000  Uiso   1.00
H1156  H     0.04212   0.39043   0.75447   0.00000  Uiso   1.00
H1157  H     0.06611   0.42223   0.80048   0.00000  Uiso   1.00
H1158  H     0.01398   0.40332   0.80183   0.00000  Uiso   1.00
C1159  C     0.29491   0.58344   0.71742   0.00000  Uiso   1.00
H1160  H     0.29041   0.60955   0.74244   0.00000  Uiso   1.00
H1161  H     0.31730   0.59648   0.69426   0.00000  Uiso   1.00
H1162  H     0.26515   0.57768   0.69726   0.00000  Uiso   1.00
C1163  C     0.29486   0.41658   0.71736   0.00000  Uiso   1.00
H1164  H     0.29029   0.39049   0.74237   0.00000  Uiso   1.00
H1165  H     0.26513   0.42238   0.69717   0.00000  Uiso   1.00
H1166  H     0.31726   0.40350   0.69423   0.00000  Uiso   1.00
C1167  C     0.03703   0.58353   0.77945   0.00000  Uiso   1.00
H1168  H     0.04221   0.60954   0.75455   0.00000  Uiso   1.00
H1169  H     0.01403   0.59667   0.80188   0.00000  Uiso   1.00
H1170  H     0.06614   0.57771   0.80057   0.00000  Uiso   1.00
C1171  C     0.42029   0.50000   0.75511   0.00000  Uiso   1.00
C1172  C     0.57938   0.50000   0.74402   0.00000  Uiso   1.00
C1173  C     0.50332   0.50000   0.66416   0.00000  Uiso   1.00
C1174  C     0.49595   0.50000   0.83574   0.00000  Uiso   1.00
C1175  C     0.52792   0.35729   0.77805   0.00000  Uiso   1.00
C1176  C     0.47223   0.64271   0.72176   0.00000  Uiso   1.00
C1177  C     0.47223   0.35727   0.72176   0.00000  Uiso   1.00
C1178  C     0.52793   0.64273   0.77805   0.00000  Uiso   1.00
C1179  C     0.35338   0.45906   0.75763   0.00000  Uiso   1.00
C1180  C     0.64576   0.54088   0.73887   0.00000  Uiso   1.00
C1181  C     0.64574   0.45913   0.73883   0.00000  Uiso   1.00
C1182  C     0.35340   0.54093   0.75767   0.00000  Uiso   1.00
C1183  C     0.50096   0.54027   0.54662   0.00000  Uiso   1.00
C1184  C     0.47627   0.45992   0.95113   0.00000  Uiso   1.00
C1185  C     0.47631   0.54009   0.95115   0.00000  Uiso   1.00
C1186  C     0.50093   0.45972   0.54660   0.00000  Uiso   1.00
C1187  C     0.51009   0.54072   0.59224   0.00000  Uiso   1.00
C1188  C     0.47840   0.45911   0.90543   0.00000  Uiso   1.00
C1189  C     0.47845   0.54091   0.90545   0.00000  Uiso   1.00
C1190  C     0.51006   0.45927   0.59222   0.00000  Uiso   1.00
C1191  C     0.50815   0.49999   0.61607   0.00000  Uiso   1.00
C1192  C     0.48505   0.50001   0.88259   0.00000  Uiso   1.00
C1193  C     0.49232   0.50000   0.52361   0.00000  Uiso   1.00
C1194  C     0.48113   0.50001   0.97494   0.00000  Uiso   1.00
C1195  C     0.62376   0.50001   0.73623   0.00000  Uiso   1.00
C1196  C     0.37543   0.49999   0.76090   0.00000  Uiso   1.00
H1197  H     0.50229   0.57192   0.52972   0.00000  Uiso   1.00
H1198  H     0.47149   0.42854   0.96761   0.00000  Uiso   1.00
H1199  H     0.47156   0.57147   0.96764   0.00000  Uiso   1.00
H1200  H     0.50225   0.42808   0.52968   0.00000  Uiso   1.00
N1201  N     0.50000   0.61907   0.75000   0.00000  Uiso   1.00
N1202  N     0.50000   0.38093   0.75000   0.00000  Uiso   1.00
O1203  O     0.43892   0.53821   0.75000   0.00000  Uiso   1.00
O1204  O     0.56108   0.46179   0.75001   0.00000  Uiso   1.00
O1205  O     0.56108   0.53821   0.75001   0.00000  Uiso   1.00
O1206  O     0.43892   0.46179   0.75000   0.00000  Uiso   1.00
O1207  O     0.50000   0.53822   0.68453   0.00000  Uiso   1.00
O1208  O     0.50000   0.46178   0.81547   0.00000  Uiso   1.00
O1209  O     0.50000   0.53822   0.81547   0.00000  Uiso   1.00
O1210  O     0.50000   0.46178   0.68453   0.00000  Uiso   1.00
Zn1211 Zn    0.50000   0.55104   0.75000   0.00000  Uiso   1.00
Zn1212 Zn    0.50000   0.44896   0.75000   0.00000  Uiso   1.00
C1213  C     0.55970   0.38103   0.80957   0.00000  Uiso   1.00
H1214  H     0.55716   0.41729   0.80986   0.00000  Uiso   1.00
H1215  H     0.55655   0.37028   0.84411   0.00000  Uiso   1.00
H1216  H     0.59188   0.37256   0.80162   0.00000  Uiso   1.00
C1217  C     0.44090   0.61899   0.68970   0.00000  Uiso   1.00
H1218  H     0.44288   0.58268   0.69005   0.00000  Uiso   1.00
H1219  H     0.40856   0.62798   0.69657   0.00000  Uiso   1.00
H1220  H     0.44508   0.62925   0.65519   0.00000  Uiso   1.00
C1221  C     0.44090   0.38098   0.68971   0.00000  Uiso   1.00
H1222  H     0.44289   0.41729   0.69005   0.00000  Uiso   1.00
H1223  H     0.44505   0.37070   0.65519   0.00000  Uiso   1.00
H1224  H     0.40856   0.37199   0.69659   0.00000  Uiso   1.00
C1225  C     0.55971   0.61901   0.80955   0.00000  Uiso   1.00
H1226  H     0.55715   0.58274   0.80986   0.00000  Uiso   1.00
H1227  H     0.59188   0.62747   0.80158   0.00000  Uiso   1.00
H1228  H     0.55659   0.62978   0.84409   0.00000  Uiso   1.00
C1229  C     0.52625   0.58394   0.61315   0.00000  Uiso   1.00
H1230  H     0.50260   0.59957   0.63267   0.00000  Uiso   1.00
H1231  H     0.55523   0.57723   0.63444   0.00000  Uiso   1.00
H1232  H     0.53443   0.60892   0.58799   0.00000  Uiso   1.00
C1233  C     0.47326   0.41395   0.88322   0.00000  Uiso   1.00
H1234  H     0.50364   0.40273   0.87261   0.00000  Uiso   1.00
H1235  H     0.46238   0.38771   0.90573   0.00000  Uiso   1.00
H1236  H     0.44962   0.41579   0.85474   0.00000  Uiso   1.00
C1237  C     0.47339   0.58608   0.88327   0.00000  Uiso   1.00
H1238  H     0.50380   0.59723   0.87267   0.00000  Uiso   1.00
H1239  H     0.44975   0.58430   0.85478   0.00000  Uiso   1.00
H1240  H     0.46257   0.61234   0.90579   0.00000  Uiso   1.00
C1241  C     0.52616   0.41603   0.61312   0.00000  Uiso   1.00
H1242  H     0.50250   0.40045   0.63264   0.00000  Uiso   1.00
H1243  H     0.53429   0.39103   0.58795   0.00000  Uiso   1.00
H1244  H     0.55516   0.42271   0.63440   0.00000  Uiso   1.00
C1245  C     0.37032   0.41645   0.77938   0.00000  Uiso   1.00
H1246  H     0.37545   0.39043   0.75447   0.00000  Uiso   1.00
H1247  H     0.39944   0.42223   0.80048   0.00000  Uiso   1.00
H1248  H     0.34732   0.40332   0.80183   0.00000  Uiso   1.00
C1249  C     0.62824   0.58344   0.71742   0.00000  Uiso   1.00
H1250  H     0.62375   0.60955   0.74244   0.00000  Uiso   1.00
H1251  H     0.65064   0.59648   0.69426   0.00000  Uiso   1.00
H1252  H     0.59848   0.57768   0.69726   0.00000  Uiso   1.00
C1253  C     0.62820   0.41658   0.71736   0.00000  Uiso   1.00
H1254  H     0.62362   0.39049   0.74237   0.00000  Uiso   1.00
H1255  H     0.59846   0.42238   0.69717   0.00000  Uiso   1.00
H1256  H     0.65060   0.40350   0.69423   0.00000  Uiso   1.00
C1257  C     0.37036   0.58353   0.77945   0.00000  Uiso   1.00
H1258  H     0.37554   0.60954   0.75455   0.00000  Uiso   1.00
H1259  H     0.34736   0.59667   0.80188   0.00000  Uiso   1.00
H1260  H     0.39947   0.57771   0.80057   0.00000  Uiso   1.00
C1261  C     0.75363   0.50000   0.75511   0.00000  Uiso   1.00
C1262  C     0.91272   0.50000   0.74402   0.00000  Uiso   1.00
C1263  C     0.83665   0.50000   0.66416   0.00000  Uiso   1.00
C1264  C     0.82928   0.50000   0.83574   0.00000  Uiso   1.00
C1265  C     0.86126   0.35729   0.77805   0.00000  Uiso   1.00
C1266  C     0.80556   0.64271   0.72176   0.00000  Uiso   1.00
C1267  C     0.80556   0.35727   0.72176   0.00000  Uiso   1.00
C1268  C     0.86126   0.64273   0.77805   0.00000  Uiso   1.00
C1269  C     0.68672   0.45906   0.75763   0.00000  Uiso   1.00
C1270  C     0.97909   0.54088   0.73887   0.00000  Uiso   1.00
C1271  C     0.97908   0.45913   0.73883   0.00000  Uiso   1.00
C1272  C     0.68673   0.54093   0.75767   0.00000  Uiso   1.00
C1273  C     0.83429   0.54027   0.54662   0.00000  Uiso   1.00
C1274  C     0.80961   0.45992   0.95113   0.00000  Uiso   1.00
C1275  C     0.80964   0.54009   0.95115   0.00000  Uiso   1.00
C1276  C     0.83426   0.45972   0.54660   0.00000  Uiso   1.00
C1277  C     0.84343   0.54072   0.59224   0.00000  Uiso   1.00
C1278  C     0.81173   0.45911   0.90543   0.00000  Uiso   1.00
C1279  C     0.81178   0.54091   0.90545   0.00000  Uiso   1.00
C1280  C     0.84340   0.45927   0.59222   0.00000  Uiso   1.00
C1281  C     0.84148   0.49999   0.61607   0.00000  Uiso   1.00
C1282  C     0.81838   0.50001   0.88259   0.00000  Uiso   1.00
C1283  C     0.82566   0.50000   0.52361   0.00000  Uiso   1.00
C1284  C     0.81446   0.50001   0.97494   0.00000  Uiso   1.00
C1285  C     0.95709   0.50001   0.73623   0.00000  Uiso   1.00
C1286  C     0.70876   0.49999   0.76090   0.00000  Uiso   1.00
H1287  H     0.83563   0.57192   0.52972   0.00000  Uiso   1.00
H1288  H     0.80482   0.42854   0.96761   0.00000  Uiso   1.00
H1289  H     0.80489   0.57147   0.96764   0.00000  Uiso   1.00
H1290  H     0.83558   0.42808   0.52968   0.00000  Uiso   1.00
N1291  N     0.83333   0.61907   0.75000   0.00000  Uiso   1.00
N1292  N     0.83333   0.38093   0.75000   0.00000  Uiso   1.00
O1293  O     0.77226   0.53821   0.75000   0.00000  Uiso   1.00
O1294  O     0.89441   0.46179   0.75001   0.00000  Uiso   1.00
O1295  O     0.89441   0.53821   0.75001   0.00000  Uiso   1.00
O1296  O     0.77226   0.46179   0.75000   0.00000  Uiso   1.00
O1297  O     0.83333   0.53822   0.68453   0.00000  Uiso   1.00
O1298  O     0.83334   0.46178   0.81547   0.00000  Uiso   1.00
O1299  O     0.83334   0.53822   0.81547   0.00000  Uiso   1.00
O1300  O     0.83333   0.46178   0.68453   0.00000  Uiso   1.00
Zn1301 Zn    0.83333   0.55104   0.75000   0.00000  Uiso   1.00
Zn1302 Zn    0.83333   0.44896   0.75000   0.00000  Uiso   1.00
C1303  C     0.89303   0.38103   0.80957   0.00000  Uiso   1.00
H1304  H     0.89049   0.41729   0.80986   0.00000  Uiso   1.00
H1305  H     0.88988   0.37028   0.84411   0.00000  Uiso   1.00
H1306  H     0.92521   0.37256   0.80162   0.00000  Uiso   1.00
C1307  C     0.77424   0.61899   0.68970   0.00000  Uiso   1.00
H1308  H     0.77621   0.58268   0.69005   0.00000  Uiso   1.00
H1309  H     0.74189   0.62798   0.69657   0.00000  Uiso   1.00
H1310  H     0.77841   0.62925   0.65519   0.00000  Uiso   1.00
C1311  C     0.77423   0.38098   0.68971   0.00000  Uiso   1.00
H1312  H     0.77622   0.41729   0.69005   0.00000  Uiso   1.00
H1313  H     0.77838   0.37070   0.65519   0.00000  Uiso   1.00
H1314  H     0.74189   0.37199   0.69659   0.00000  Uiso   1.00
C1315  C     0.89304   0.61901   0.80955   0.00000  Uiso   1.00
H1316  H     0.89048   0.58274   0.80986   0.00000  Uiso   1.00
H1317  H     0.92521   0.62747   0.80158   0.00000  Uiso   1.00
H1318  H     0.88992   0.62978   0.84409   0.00000  Uiso   1.00
C1319  C     0.85958   0.58394   0.61315   0.00000  Uiso   1.00
H1320  H     0.83593   0.59957   0.63267   0.00000  Uiso   1.00
H1321  H     0.88856   0.57723   0.63444   0.00000  Uiso   1.00
H1322  H     0.86776   0.60892   0.58799   0.00000  Uiso   1.00
C1323  C     0.80659   0.41395   0.88322   0.00000  Uiso   1.00
H1324  H     0.83697   0.40273   0.87261   0.00000  Uiso   1.00
H1325  H     0.79571   0.38771   0.90573   0.00000  Uiso   1.00
H1326  H     0.78295   0.41579   0.85474   0.00000  Uiso   1.00
C1327  C     0.80673   0.58608   0.88327   0.00000  Uiso   1.00
H1328  H     0.83713   0.59723   0.87267   0.00000  Uiso   1.00
H1329  H     0.78308   0.58430   0.85478   0.00000  Uiso   1.00
H1330  H     0.79590   0.61234   0.90579   0.00000  Uiso   1.00
C1331  C     0.85950   0.41603   0.61312   0.00000  Uiso   1.00
H1332  H     0.83583   0.40045   0.63264   0.00000  Uiso   1.00
H1333  H     0.86763   0.39103   0.58795   0.00000  Uiso   1.00
H1334  H     0.88849   0.42271   0.63440   0.00000  Uiso   1.00
C1335  C     0.70365   0.41645   0.77938   0.00000  Uiso   1.00
H1336  H     0.70878   0.39043   0.75447   0.00000  Uiso   1.00
H1337  H     0.73278   0.42223   0.80048   0.00000  Uiso   1.00
H1338  H     0.68065   0.40332   0.80183   0.00000  Uiso   1.00
C1339  C     0.96158   0.58344   0.71742   0.00000  Uiso   1.00
H1340  H     0.95708   0.60955   0.74244   0.00000  Uiso   1.00
H1341  H     0.98397   0.59648   0.69426   0.00000  Uiso   1.00
H1342  H     0.93182   0.57768   0.69726   0.00000  Uiso   1.00
C1343  C     0.96153   0.41658   0.71736   0.00000  Uiso   1.00
H1344  H     0.95696   0.39049   0.74237   0.00000  Uiso   1.00
H1345  H     0.93180   0.42238   0.69717   0.00000  Uiso   1.00
H1346  H     0.98393   0.40350   0.69423   0.00000  Uiso   1.00
C1347  C     0.70370   0.58353   0.77945   0.00000  Uiso   1.00
H1348  H     0.70887   0.60954   0.75455   0.00000  Uiso   1.00
H1349  H     0.68069   0.59667   0.80188   0.00000  Uiso   1.00
H1350  H     0.73281   0.57771   0.80057   0.00000  Uiso   1.00
C1351  C     0.08696   0.83333   0.75511   0.00000  Uiso   1.00
C1352  C     0.24605   0.83334   0.74402   0.00000  Uiso   1.00
C1353  C     0.16998   0.83333   0.66416   0.00000  Uiso   1.00
C1354  C     0.16262   0.83334   0.83574   0.00000  Uiso   1.00
C1355  C     0.19459   0.69062   0.77805   0.00000  Uiso   1.00
C1356  C     0.13890   0.97605   0.72176   0.00000  Uiso   1.00
C1357  C     0.13890   0.69061   0.72176   0.00000  Uiso   1.00
C1358  C     0.19459   0.97606   0.77805   0.00000  Uiso   1.00
C1359  C     0.02005   0.79239   0.75763   0.00000  Uiso   1.00
C1360  C     0.31243   0.87422   0.73887   0.00000  Uiso   1.00
C1361  C     0.31241   0.79246   0.73883   0.00000  Uiso   1.00
C1362  C     0.02007   0.87427   0.75767   0.00000  Uiso   1.00
C1363  C     0.16762   0.87361   0.54662   0.00000  Uiso   1.00
C1364  C     0.14294   0.79326   0.95113   0.00000  Uiso   1.00
C1365  C     0.14298   0.87343   0.95115   0.00000  Uiso   1.00
C1366  C     0.16760   0.79305   0.54660   0.00000  Uiso   1.00
C1367  C     0.17676   0.87405   0.59224   0.00000  Uiso   1.00
C1368  C     0.14507   0.79244   0.90543   0.00000  Uiso   1.00
C1369  C     0.14511   0.87425   0.90545   0.00000  Uiso   1.00
C1370  C     0.17673   0.79260   0.59222   0.00000  Uiso   1.00
C1371  C     0.17482   0.83333   0.61607   0.00000  Uiso   1.00
C1372  C     0.15172   0.83334   0.88259   0.00000  Uiso   1.00
C1373  C     0.15899   0.83333   0.52361   0.00000  Uiso   1.00
C1374  C     0.14779   0.83334   0.97494   0.00000  Uiso   1.00
C1375  C     0.29043   0.83334   0.73623   0.00000  Uiso   1.00
C1376  C     0.04210   0.83333   0.76090   0.00000  Uiso   1.00
H1377  H     0.16896   0.90525   0.52972   0.00000  Uiso   1.00
H1378  H     0.13816   0.76188   0.96761   0.00000  Uiso   1.00
H1379  H     0.13823   0.90481   0.96764   0.00000  Uiso   1.00
H1380  H     0.16892   0.76142   0.52968   0.00000  Uiso   1.00
N1381  N     0.16667   0.95240   0.75000   0.00000  Uiso   1.00
N1382  N     0.16667   0.71427   0.75000   0.00000  Uiso   1.00
O1383  O     0.10559   0.87154   0.75000   0.00000  Uiso   1.00
O1384  O     0.22774   0.79513   0.75001   0.00000  Uiso   1.00
O1385  O     0.22774   0.87154   0.75001   0.00000  Uiso   1.00
O1386  O     0.10559   0.79513   0.75000   0.00000  Uiso   1.00
O1387  O     0.16666   0.87155   0.68453   0.00000  Uiso   1.00
O1388  O     0.16667   0.79511   0.81547   0.00000  Uiso   1.00
O1389  O     0.16667   0.87155   0.81547   0.00000  Uiso   1.00
O1390  O     0.16666   0.79511   0.68453   0.00000  Uiso   1.00
Zn1391 Zn    0.16667   0.88437   0.75000   0.00000  Uiso   1.00
Zn1392 Zn    0.16667   0.78229   0.75000   0.00000  Uiso   1.00
C1393  C     0.22636   0.71436   0.80957   0.00000  Uiso   1.00
H1394  H     0.22382   0.75063   0.80986   0.00000  Uiso   1.00
H1395  H     0.22321   0.70361   0.84411   0.00000  Uiso   1.00
H1396  H     0.25854   0.70589   0.80162   0.00000  Uiso   1.00
C1397  C     0.10757   0.95232   0.68970   0.00000  Uiso   1.00
H1398  H     0.10955   0.91601   0.69005   0.00000  Uiso   1.00
H1399  H     0.07523   0.96131   0.69657   0.00000  Uiso   1.00
H1400  H     0.11174   0.96258   0.65519   0.00000  Uiso   1.00
C1401  C     0.10757   0.71432   0.68971   0.00000  Uiso   1.00
H1402  H     0.10955   0.75062   0.69005   0.00000  Uiso   1.00
H1403  H     0.11172   0.70403   0.65519   0.00000  Uiso   1.00
H1404  H     0.07523   0.70533   0.69659   0.00000  Uiso   1.00
C1405  C     0.22637   0.95234   0.80955   0.00000  Uiso   1.00
H1406  H     0.22382   0.91607   0.80986   0.00000  Uiso   1.00
H1407  H     0.25855   0.96080   0.80158   0.00000  Uiso   1.00
H1408  H     0.22326   0.96311   0.84409   0.00000  Uiso   1.00
C1409  C     0.19292   0.91727   0.61315   0.00000  Uiso   1.00
H1410  H     0.16927   0.93290   0.63267   0.00000  Uiso   1.00
H1411  H     0.22190   0.91056   0.63444   0.00000  Uiso   1.00
H1412  H     0.20109   0.94225   0.58799   0.00000  Uiso   1.00
C1413  C     0.13993   0.74729   0.88322   0.00000  Uiso   1.00
H1414  H     0.17030   0.73606   0.87261   0.00000  Uiso   1.00
H1415  H     0.12905   0.72105   0.90573   0.00000  Uiso   1.00
H1416  H     0.11628   0.74913   0.85474   0.00000  Uiso   1.00
C1417  C     0.14006   0.91941   0.88327   0.00000  Uiso   1.00
H1418  H     0.17047   0.93057   0.87267   0.00000  Uiso   1.00
H1419  H     0.11642   0.91763   0.85478   0.00000  Uiso   1.00
H1420  H     0.12924   0.94567   0.90579   0.00000  Uiso   1.00
C1421  C     0.19283   0.74936   0.61312   0.00000  Uiso   1.00
H1422  H     0.16916   0.73378   0.63264   0.00000  Uiso   1.00
H1423  H     0.20096   0.72437   0.58795   0.00000  Uiso   1.00
H1424  H     0.22182   0.75604   0.63440   0.00000  Uiso   1.00
C1425  C     0.03699   0.74978   0.77938   0.00000  Uiso   1.00
H1426  H     0.04212   0.72376   0.75447   0.00000  Uiso   1.00
H1427  H     0.06611   0.75557   0.80048   0.00000  Uiso   1.00
H1428  H     0.01398   0.73666   0.80183   0.00000  Uiso   1.00
C1429  C     0.29491   0.91677   0.71742   0.00000  Uiso   1.00
H1430  H     0.29041   0.94288   0.74244   0.00000  Uiso   1.00
H1431  H     0.31730   0.92982   0.69426   0.00000  Uiso   1.00
H1432  H     0.26515   0.91101   0.69726   0.00000  Uiso   1.00
C1433  C     0.29486   0.74992   0.71736   0.00000  Uiso   1.00
H1434  H     0.29029   0.72382   0.74237   0.00000  Uiso   1.00
H1435  H     0.26513   0.75571   0.69717   0.00000  Uiso   1.00
H1436  H     0.31726   0.73684   0.69423   0.00000  Uiso   1.00
C1437  C     0.03703   0.91686   0.77945   0.00000  Uiso   1.00
H1438  H     0.04221   0.94287   0.75455   0.00000  Uiso   1.00
H1439  H     0.01403   0.93000   0.80188   0.00000  Uiso   1.00
H1440  H     0.06614   0.91104   0.80057   0.00000  Uiso   1.00
C1441  C     0.42029   0.83333   0.75511   0.00000  Uiso   1.00
C1442  C     0.57938   0.83334   0.74402   0.00000  Uiso   1.00
C1443  C     0.50332   0.83333   0.66416   0.00000  Uiso   1.00
C1444  C     0.49595   0.83334   0.83574   0.00000  Uiso   1.00
C1445  C     0.52792   0.69062   0.77805   0.00000  Uiso   1.00
C1446  C     0.47223   0.97605   0.72176   0.00000  Uiso   1.00
C1447  C     0.47223   0.69061   0.72176   0.00000  Uiso   1.00
C1448  C     0.52793   0.97606   0.77805   0.00000  Uiso   1.00
C1449  C     0.35338   0.79239   0.75763   0.00000  Uiso   1.00
C1450  C     0.64576   0.87422   0.73887   0.00000  Uiso   1.00
C1451  C     0.64574   0.79246   0.73883   0.00000  Uiso   1.00
C1452  C     0.35340   0.87427   0.75767   0.00000  Uiso   1.00
C1453  C     0.50096   0.87361   0.54662   0.00000  Uiso   1.00
C1454  C     0.47627   0.79326   0.95113   0.00000  Uiso   1.00
C1455  C     0.47631   0.87343   0.95115   0.00000  Uiso   1.00
C1456  C     0.50093   0.79305   0.54660   0.00000  Uiso   1.00
C1457  C     0.51009   0.87405   0.59224   0.00000  Uiso   1.00
C1458  C     0.47840   0.79244   0.90543   0.00000  Uiso   1.00
C1459  C     0.47845   0.87425   0.90545   0.00000  Uiso   1.00
C1460  C     0.51006   0.79260   0.59222   0.00000  Uiso   1.00
C1461  C     0.50815   0.83333   0.61607   0.00000  Uiso   1.00
C1462  C     0.48505   0.83334   0.88259   0.00000  Uiso   1.00
C1463  C     0.49232   0.83333   0.52361   0.00000  Uiso   1.00
C1464  C     0.48113   0.83334   0.97494   0.00000  Uiso   1.00
C1465  C     0.62376   0.83334   0.73623   0.00000  Uiso   1.00
C1466  C     0.37543   0.83333   0.76090   0.00000  Uiso   1.00
H1467  H     0.50229   0.90525   0.52972   0.00000  Uiso   1.00
H1468  H     0.47149   0.76188   0.96761   0.00000  Uiso   1.00
H1469  H     0.47156   0.90481   0.96764   0.00000  Uiso   1.00
H1470  H     0.50225   0.76142   0.52968   0.00000  Uiso   1.00
N1471  N     0.50000   0.95240   0.75000   0.00000  Uiso   1.00
N1472  N     0.50000   0.71427   0.75000   0.00000  Uiso   1.00
O1473  O     0.43892   0.87154   0.75000   0.00000  Uiso   1.00
O1474  O     0.56108   0.79513   0.75001   0.00000  Uiso   1.00
O1475  O     0.56108   0.87154   0.75001   0.00000  Uiso   1.00
O1476  O     0.43892   0.79513   0.75000   0.00000  Uiso   1.00
O1477  O     0.50000   0.87155   0.68453   0.00000  Uiso   1.00
O1478  O     0.50000   0.79511   0.81547   0.00000  Uiso   1.00
O1479  O     0.50000   0.87155   0.81547   0.00000  Uiso   1.00
O1480  O     0.50000   0.79511   0.68453   0.00000  Uiso   1.00
Zn1481 Zn    0.50000   0.88437   0.75000   0.00000  Uiso   1.00
Zn1482 Zn    0.50000   0.78229   0.75000   0.00000  Uiso   1.00
C1483  C     0.55970   0.71436   0.80957   0.00000  Uiso   1.00
H1484  H     0.55716   0.75063   0.80986   0.00000  Uiso   1.00
H1485  H     0.55655   0.70361   0.84411   0.00000  Uiso   1.00
H1486  H     0.59188   0.70589   0.80162   0.00000  Uiso   1.00
C1487  C     0.44090   0.95232   0.68970   0.00000  Uiso   1.00
H1488  H     0.44288   0.91601   0.69005   0.00000  Uiso   1.00
H1489  H     0.40856   0.96131   0.69657   0.00000  Uiso   1.00
H1490  H     0.44508   0.96258   0.65519   0.00000  Uiso   1.00
C1491  C     0.44090   0.71432   0.68971   0.00000  Uiso   1.00
H1492  H     0.44289   0.75062   0.69005   0.00000  Uiso   1.00
H1493  H     0.44505   0.70403   0.65519   0.00000  Uiso   1.00
H1494  H     0.40856   0.70533   0.69659   0.00000  Uiso   1.00
C1495  C     0.55971   0.95234   0.80955   0.00000  Uiso   1.00
H1496  H     0.55715   0.91607   0.80986   0.00000  Uiso   1.00
H1497  H     0.59188   0.96080   0.80158   0.00000  Uiso   1.00
H1498  H     0.55659   0.96311   0.84409   0.00000  Uiso   1.00
C1499  C     0.52625   0.91727   0.61315   0.00000  Uiso   1.00
H1500  H     0.50260   0.93290   0.63267   0.00000  Uiso   1.00
H1501  H     0.55523   0.91056   0.63444   0.00000  Uiso   1.00
H1502  H     0.53443   0.94225   0.58799   0.00000  Uiso   1.00
C1503  C     0.47326   0.74729   0.88322   0.00000  Uiso   1.00
H1504  H     0.50364   0.73606   0.87261   0.00000  Uiso   1.00
H1505  H     0.46238   0.72105   0.90573   0.00000  Uiso   1.00
H1506  H     0.44962   0.74913   0.85474   0.00000  Uiso   1.00
C1507  C     0.47339   0.91941   0.88327   0.00000  Uiso   1.00
H1508  H     0.50380   0.93057   0.87267   0.00000  Uiso   1.00
H1509  H     0.44975   0.91763   0.85478   0.00000  Uiso   1.00
H1510  H     0.46257   0.94567   0.90579   0.00000  Uiso   1.00
C1511  C     0.52616   0.74936   0.61312   0.00000  Uiso   1.00
H1512  H     0.50250   0.73378   0.63264   0.00000  Uiso   1.00
H1513  H     0.53429   0.72437   0.58795   0.00000  Uiso   1.00
H1514  H     0.55516   0.75604   0.63440   0.00000  Uiso   1.00
C1515  C     0.37032   0.74978   0.77938   0.00000  Uiso   1.00
H1516  H     0.37545   0.72376   0.75447   0.00000  Uiso   1.00
H1517  H     0.39944   0.75557   0.80048   0.00000  Uiso   1.00
H1518  H     0.34732   0.73666   0.80183   0.00000  Uiso   1.00
C1519  C     0.62824   0.91677   0.71742   0.00000  Uiso   1.00
H1520  H     0.62375   0.94288   0.74244   0.00000  Uiso   1.00
H1521  H     0.65064   0.92982   0.69426   0.00000  Uiso   1.00
H1522  H     0.59848   0.91101   0.69726   0.00000  Uiso   1.00
C1523  C     0.62820   0.74992   0.71736   0.00000  Uiso   1.00
H1524  H     0.62362   0.72382   0.74237   0.00000  Uiso   1.00
H1525  H     0.59846   0.75571   0.69717   0.00000  Uiso   1.00
H1526  H     0.65060   0.73684   0.69423   0.00000  Uiso   1.00
C1527  C     0.37036   0.91686   0.77945   0.00000  Uiso   1.00
H1528  H     0.37554   0.94287   0.75455   0.00000  Uiso   1.00
H1529  H     0.34736   0.93000   0.80188   0.00000  Uiso   1.00
H1530  H     0.39947   0.91104   0.80057   0.00000  Uiso   1.00
C1531  C     0.75363   0.83333   0.75511   0.00000  Uiso   1.00
C1532  C     0.91272   0.83334   0.74402   0.00000  Uiso   1.00
C1533  C     0.83665   0.83333   0.66416   0.00000  Uiso   1.00
C1534  C     0.82928   0.83334   0.83574   0.00000  Uiso   1.00
C1535  C     0.86126   0.69062   0.77805   0.00000  Uiso   1.00
C1536  C     0.80556   0.97605   0.72176   0.00000  Uiso   1.00
C1537  C     0.80556   0.69061   0.72176   0.00000  Uiso   1.00
C1538  C     0.86126   0.97606   0.77805   0.00000  Uiso   1.00
C1539  C     0.68672   0.79239   0.75763   0.00000  Uiso   1.00
C1540  C     0.97909   0.87422   0.73887   0.00000  Uiso   1.00
C1541  C     0.97908   0.79246   0.73883   0.00000  Uiso   1.00
C1542  C     0.68673   0.87427   0.75767   0.00000  Uiso   1.00
C1543  C     0.83429   0.87361   0.54662   0.00000  Uiso   1.00
C1544  C     0.80961   0.79326   0.95113   0.00000  Uiso   1.00
C1545  C     0.80964   0.87343   0.95115   0.00000  Uiso   1.00
C1546  C     0.83426   0.79305   0.54660   0.00000  Uiso   1.00
C1547  C     0.84343   0.87405   0.59224   0.00000  Uiso   1.00
C1548  C     0.81173   0.79244   0.90543   0.00000  Uiso   1.00
C1549  C     0.81178   0.87425   0.90545   0.00000  Uiso   1.00
C1550  C     0.84340   0.79260   0.59222   0.00000  Uiso   1.00
C1551  C     0.84148   0.83333   0.61607   0.00000  Uiso   1.00
C1552  C     0.81838   0.83334   0.88259   0.00000  Uiso   1.00
C1553  C     0.82566   0.83333   0.52361   0.00000  Uiso   1.00
C1554  C     0.81446   0.83334   0.97494   0.00000  Uiso   1.00
C1555  C     0.95709   0.83334   0.73623   0.00000  Uiso   1.00
C1556  C     0.70876   0.83333   0.76090   0.00000  Uiso   1.00
H1557  H     0.83563   0.90525   0.52972   0.00000  Uiso   1.00
H1558  H     0.80482   0.76188   0.96761   0.00000  Uiso   1.00
H1559  H     0.80489   0.90481   0.96764   0.00000  Uiso   1.00
H1560  H     0.83558   0.76142   0.52968   0.00000  Uiso   1.00
N1561  N     0.83333   0.95240   0.75000   0.00000  Uiso   1.00
N1562  N     0.83333   0.71427   0.75000   0.00000  Uiso   1.00
O1563  O     0.77226   0.87154   0.75000   0.00000  Uiso   1.00
O1564  O     0.89441   0.79513   0.75001   0.00000  Uiso   1.00
O1565  O     0.89441   0.87154   0.75001   0.00000  Uiso   1.00
O1566  O     0.77226   0.79513   0.75000   0.00000  Uiso   1.00
O1567  O     0.83333   0.87155   0.68453   0.00000  Uiso   1.00
O1568  O     0.83334   0.79511   0.81547   0.00000  Uiso   1.00
O1569  O     0.83334   0.87155   0.81547   0.00000  Uiso   1.00
O1570  O     0.83333   0.79511   0.68453   0.00000  Uiso   1.00
Zn1571 Zn    0.83333   0.88437   0.75000   0.00000  Uiso   1.00
Zn1572 Zn    0.83333   0.78229   0.75000   0.00000  Uiso   1.00
C1573  C     0.89303   0.71436   0.80957   0.00000  Uiso   1.00
H1574  H     0.89049   0.75063   0.80986   0.00000  Uiso   1.00
H1575  H     0.88988   0.70361   0.84411   0.00000  Uiso   1.00
H1576  H     0.92521   0.70589   0.80162   0.00000  Uiso   1.00
C1577  C     0.77424   0.95232   0.68970   0.00000  Uiso   1.00
H1578  H     0.77621   0.91601   0.69005   0.00000  Uiso   1.00
H1579  H     0.74189   0.96131   0.69657   0.00000  Uiso   1.00
H1580  H     0.77841   0.96258   0.65519   0.00000  Uiso   1.00
C1581  C     0.77423   0.71432   0.68971   0.00000  Uiso   1.00
H1582  H     0.77622   0.75062   0.69005   0.00000  Uiso   1.00
H1583  H     0.77838   0.70403   0.65519   0.00000  Uiso   1.00
H1584  H     0.74189   0.70533   0.69659   0.00000  Uiso   1.00
C1585  C     0.89304   0.95234   0.80955   0.00000  Uiso   1.00
H1586  H     0.89048   0.91607   0.80986   0.00000  Uiso   1.00
H1587  H     0.92521   0.96080   0.80158   0.00000  Uiso   1.00
H1588  H     0.88992   0.96311   0.84409   0.00000  Uiso   1.00
C1589  C     0.85958   0.91727   0.61315   0.00000  Uiso   1.00
H1590  H     0.83593   0.93290   0.63267   0.00000  Uiso   1.00
H1591  H     0.88856   0.91056   0.63444   0.00000  Uiso   1.00
H1592  H     0.86776   0.94225   0.58799   0.00000  Uiso   1.00
C1593  C     0.80659   0.74729   0.88322   0.00000  Uiso   1.00
H1594  H     0.83697   0.73606   0.87261   0.00000  Uiso   1.00
H1595  H     0.79571   0.72105   0.90573   0.00000  Uiso   1.00
H1596  H     0.78295   0.74913   0.85474   0.00000  Uiso   1.00
C1597  C     0.80673   0.91941   0.88327   0.00000  Uiso   1.00
H1598  H     0.83713   0.93057   0.87267   0.00000  Uiso   1.00
H1599  H     0.78308   0.91763   0.85478   0.00000  Uiso   1.00
H1600  H     0.79590   0.94567   0.90579   0.00000  Uiso   1.00
C1601  C     0.85950   0.74936   0.61312   0.00000  Uiso   1.00
H1602  H     0.83583   0.73378   0.63264   0.00000  Uiso   1.00
H1603  H     0.86763   0.72437   0.58795   0.00000  Uiso   1.00
H1604  H     0.88849   0.75604   0.63440   0.00000  Uiso   1.00
C1605  C     0.70365   0.74978   0.77938   0.00000  Uiso   1.00
H1606  H     0.70878   0.72376   0.75447   0.00000  Uiso   1.00
H1607  H     0.73278   0.75557   0.80048   0.00000  Uiso   1.00
H1608  H     0.68065   0.73666   0.80183   0.00000  Uiso   1.00
C1609  C     0.96158   0.91677   0.71742   0.00000  Uiso   1.00
H1610  H     0.95708   0.94288   0.74244   0.00000  Uiso   1.00
H1611  H     0.98397   0.92982   0.69426   0.00000  Uiso   1.00
H1612  H     0.93182   0.91101   0.69726   0.00000  Uiso   1.00
C1613  C     0.96153   0.74992   0.71736   0.00000  Uiso   1.00
H1614  H     0.95696   0.72382   0.74237   0.00000  Uiso   1.00
H1615  H     0.93180   0.75571   0.69717   0.00000  Uiso   1.00
H1616  H     0.98393   0.73684   0.69423   0.00000  Uiso   1.00
C1617  C     0.70370   0.91686   0.77945   0.00000  Uiso   1.00
H1618  H     0.70887   0.94287   0.75455   0.00000  Uiso   1.00
H1619  H     0.68069   0.93000   0.80188   0.00000  Uiso   1.00
H1620  H     0.73281   0.91104   0.80057   0.00000  Uiso   1.00
loop_
_geom_bond_atom_site_label_1
_geom_bond_atom_site_label_2
_geom_bond_distance
_geom_bond_site_symmetry_2
_ccdc_geom_bond_type
C1     O33     1.301   .     A
C1     C26     1.460   .     S
C1     O36     1.301   .     A
C2     O35     1.301   .     A
C2     O34     1.301   .     A
C2     C25     1.458   .     S
C3     O40     1.304   .     A
C3     C21     1.475   .     S
C3     O37     1.304   .     A
C4     C22     1.486   .     S
C4     O39     1.306   .     A
C4     O38     1.306   .     A
C5     N32     1.379   .     A
C5     C43     1.515   .     S
C5     C548    1.429   1_545 S
C6     N31     1.379   .     A
C6     C47     1.516   .     S
C6     C277    1.429   .     S
C7     N32     1.379   .     A
C7     C51     1.516   .     S
C7     C546    1.429   1_545 S
C8     C55     1.515   .     S
C8     N31     1.379   .     A
C8     C275    1.429   .     S
C9     C26     1.410   .     A
C9     C75     1.513   .     S
C9     C191    1.389   1_455 S
C10    C25     1.407   .     A
C10    C79     1.514   .     S
C10    C102    1.389   .     S
C11    C25     1.407   .     A
C11    C83     1.514   .     S
C11    C99     1.389   .     S
C12    C26     1.410   .     A
C12    C87     1.513   .     S
C12    C190    1.389   1_455 S
C13    C23     1.405   .     A
C13    C17     1.389   .     A
C13    H27     1.076   .     S
C14    H28     1.077   .     S
C14    C18     1.390   .     A
C14    C24     1.398   .     A
C15    C19     1.390   .     A
C15    H29     1.077   .     S
C15    C24     1.398   .     A
C16    H30     1.076   .     S
C16    C20     1.389   .     A
C16    C23     1.405   .     A
C17    C21     1.417   .     A
C17    C59     1.510   .     S
C18    C63     1.509   .     S
C18    C22     1.426   .     A
C19    C67     1.509   .     S
C19    C22     1.426   .     A
C20    C71     1.510   .     S
C20    C21     1.417   .     A
C23    C834    1.489   1_554 S
C24    C833    1.489   .     S
N31    Zn41    2.030   .     S
N32    Zn42    2.030   .     S
O33    Zn41    1.992   .     S
O34    Zn42    1.992   .     S
O35    Zn41    1.993   .     S
O36    Zn42    1.993   .     S
O37    Zn41    2.017   .     S
O38    Zn42    2.017   .     S
O39    Zn41    2.018   .     S
O40    Zn42    2.018   .     S
C43    H44     1.085   .     S
C43    H45     1.105   .     S
C43    H46     1.105   .     S
C47    H49     1.105   .     S
C47    H50     1.106   .     S
C47    H48     1.085   .     S
C51    H52     1.085   .     S
C51    H54     1.105   .     S
C51    H53     1.106   .     S
C55    H56     1.085   .     S
C55    H57     1.105   .     S
C55    H58     1.105   .     S
C59    H60     1.099   .     S
C59    H61     1.106   .     S
C59    H62     1.111   .     S
C63    H65     1.111   .     S
C63    H66     1.104   .     S
C63    H64     1.100   .     S
C67    H68     1.100   .     S
C67    H69     1.104   .     S
C67    H70     1.111   .     S
C71    H73     1.111   .     S
C71    H74     1.106   .     S
C71    H72     1.099   .     S
C75    H76     1.103   .     S
C75    H77     1.102   .     S
C75    H78     1.111   .     S
C79    H80     1.103   .     S
C79    H82     1.104   .     S
C79    H81     1.111   .     S
C83    H84     1.103   .     S
C83    H85     1.104   .     S
C83    H86     1.111   .     S
C87    H89     1.111   .     S
C87    H88     1.103   .     S
C87    H90     1.102   .     S
C91    O123    1.301   .     A
C91    C116    1.460   .     S
C91    O126    1.301   .     A
C92    O125    1.301   .     A
C92    O124    1.301   .     A
C92    C115    1.458   .     S
C93    O130    1.304   .     A
C93    C111    1.475   .     S
C93    O127    1.304   .     A
C94    C112    1.486   .     S
C94    O129    1.306   .     A
C94    O128    1.306   .     A
C95    N122    1.379   .     A
C95    C133    1.515   .     S
C95    C638    1.429   1_545 S
C96    N121    1.379   .     A
C96    C137    1.516   .     S
C96    C367    1.429   .     S
C97    N122    1.379   .     A
C97    C141    1.516   .     S
C97    C636    1.429   1_545 S
C98    C145    1.515   .     S
C98    N121    1.379   .     A
C98    C365    1.429   .     S
C99    C116    1.410   .     A
C99    C165    1.513   .     S
C100   C115    1.407   .     A
C100   C169    1.514   .     S
C100   C192    1.389   .     S
C101   C115    1.407   .     A
C101   C173    1.514   .     S
C101   C189    1.389   .     S
C102   C116    1.410   .     A
C102   C177    1.513   .     S
C103   C113    1.405   .     A
C103   C107    1.389   .     A
C103   H117    1.076   .     S
C104   H118    1.077   .     S
C104   C108    1.390   .     A
C104   C114    1.398   .     A
C105   C109    1.390   .     A
C105   H119    1.077   .     S
C105   C114    1.398   .     A
C106   H120    1.076   .     S
C106   C110    1.389   .     A
C106   C113    1.405   .     A
C107   C111    1.417   .     A
C107   C149    1.510   .     S
C108   C153    1.509   .     S
C108   C112    1.426   .     A
C109   C157    1.509   .     S
C109   C112    1.426   .     A
C110   C161    1.510   .     S
C110   C111    1.417   .     A
C113   C924    1.489   1_554 S
C114   C923    1.489   .     S
N121   Zn131   2.030   .     S
N122   Zn132   2.030   .     S
O123   Zn131   1.992   .     S
O124   Zn132   1.992   .     S
O125   Zn131   1.993   .     S
O126   Zn132   1.993   .     S
O127   Zn131   2.017   .     S
O128   Zn132   2.017   .     S
O129   Zn131   2.018   .     S
O130   Zn132   2.018   .     S
C133   H134    1.085   .     S
C133   H135    1.105   .     S
C133   H136    1.105   .     S
C137   H139    1.105   .     S
C137   H140    1.106   .     S
C137   H138    1.085   .     S
C141   H142    1.085   .     S
C141   H144    1.105   .     S
C141   H143    1.106   .     S
C145   H146    1.085   .     S
C145   H147    1.105   .     S
C145   H148    1.105   .     S
C149   H150    1.099   .     S
C149   H151    1.106   .     S
C149   H152    1.111   .     S
C153   H155    1.111   .     S
C153   H156    1.104   .     S
C153   H154    1.100   .     S
C157   H158    1.100   .     S
C157   H159    1.104   .     S
C157   H160    1.111   .     S
C161   H163    1.111   .     S
C161   H164    1.106   .     S
C161   H162    1.099   .     S
C165   H166    1.103   .     S
C165   H167    1.102   .     S
C165   H168    1.111   .     S
C169   H170    1.103   .     S
C169   H172    1.104   .     S
C169   H171    1.111   .     S
C173   H174    1.103   .     S
C173   H175    1.104   .     S
C173   H176    1.111   .     S
C177   H179    1.111   .     S
C177   H178    1.103   .     S
C177   H180    1.102   .     S
C181   O213    1.301   .     A
C181   C206    1.460   .     S
C181   O216    1.301   .     A
C182   O215    1.301   .     A
C182   O214    1.301   .     A
C182   C205    1.458   .     S
C183   O220    1.304   .     A
C183   C201    1.475   .     S
C183   O217    1.304   .     A
C184   C202    1.486   .     S
C184   O219    1.306   .     A
C184   O218    1.306   .     A
C185   N212    1.379   .     A
C185   C223    1.515   .     S
C185   C728    1.429   1_545 S
C186   N211    1.379   .     A
C186   C227    1.516   .     S
C186   C457    1.429   .     S
C187   N212    1.379   .     A
C187   C231    1.516   .     S
C187   C726    1.429   1_545 S
C188   C235    1.515   .     S
C188   N211    1.379   .     A
C188   C455    1.429   .     S
C189   C206    1.410   .     A
C189   C255    1.513   .     S
C190   C205    1.407   .     A
C190   C259    1.514   .     S
C190   C12     1.389   1_655 S
C191   C205    1.407   .     A
C191   C263    1.514   .     S
C191   C9      1.389   1_655 S
C192   C206    1.410   .     A
C192   C267    1.513   .     S
C193   C203    1.405   .     A
C193   C197    1.389   .     A
C193   H207    1.076   .     S
C194   H208    1.077   .     S
C194   C198    1.390   .     A
C194   C204    1.398   .     A
C195   C199    1.390   .     A
C195   H209    1.077   .     S
C195   C204    1.398   .     A
C196   H210    1.076   .     S
C196   C200    1.389   .     A
C196   C203    1.405   .     A
C197   C201    1.417   .     A
C197   C239    1.510   .     S
C198   C243    1.509   .     S
C198   C202    1.426   .     A
C199   C247    1.509   .     S
C199   C202    1.426   .     A
C200   C251    1.510   .     S
C200   C201    1.417   .     A
C203   C1014   1.489   1_554 S
C204   C1013   1.489   .     S
N211   Zn221   2.030   .     S
N212   Zn222   2.030   .     S
O213   Zn221   1.992   .     S
O214   Zn222   1.992   .     S
O215   Zn221   1.993   .     S
O216   Zn222   1.993   .     S
O217   Zn221   2.017   .     S
O218   Zn222   2.017   .     S
O219   Zn221   2.018   .     S
O220   Zn222   2.018   .     S
C223   H224    1.085   .     S
C223   H225    1.105   .     S
C223   H226    1.105   .     S
C227   H229    1.105   .     S
C227   H230    1.106   .     S
C227   H228    1.085   .     S
C231   H232    1.085   .     S
C231   H234    1.105   .     S
C231   H233    1.106   .     S
C235   H236    1.085   .     S
C235   H237    1.105   .     S
C235   H238    1.105   .     S
C239   H240    1.099   .     S
C239   H241    1.106   .     S
C239   H242    1.111   .     S
C243   H245    1.111   .     S
C243   H246    1.104   .     S
C243   H244    1.100   .     S
C247   H248    1.100   .     S
C247   H249    1.104   .     S
C247   H250    1.111   .     S
C251   H253    1.111   .     S
C251   H254    1.106   .     S
C251   H252    1.099   .     S
C255   H256    1.103   .     S
C255   H257    1.102   .     S
C255   H258    1.111   .     S
C259   H260    1.103   .     S
C259   H262    1.104   .     S
C259   H261    1.111   .     S
C263   H264    1.103   .     S
C263   H265    1.104   .     S
C263   H266    1.111   .     S
C267   H269    1.111   .     S
C267   H268    1.103   .     S
C267   H270    1.102   .     S
C271   O303    1.301   .     A
C271   C296    1.460   .     S
C271   O306    1.301   .     A
C272   O305    1.301   .     A
C272   O304    1.301   .     A
C272   C295    1.458   .     S
C273   O310    1.304   .     A
C273   C291    1.475   .     S
C273   O307    1.304   .     A
C274   C292    1.486   .     S
C274   O309    1.306   .     A
C274   O308    1.306   .     A
C275   N302    1.379   .     A
C275   C313    1.515   .     S
C276   N301    1.379   .     A
C276   C317    1.516   .     S
C276   C547    1.429   .     S
C277   N302    1.379   .     A
C277   C321    1.516   .     S
C278   C325    1.515   .     S
C278   N301    1.379   .     A
C278   C545    1.429   .     S
C279   C296    1.410   .     A
C279   C345    1.513   .     S
C279   C461    1.389   1_455 S
C280   C295    1.407   .     A
C280   C349    1.514   .     S
C280   C372    1.389   .     S
C281   C295    1.407   .     A
C281   C353    1.514   .     S
C281   C369    1.389   .     S
C282   C296    1.410   .     A
C282   C357    1.513   .     S
C282   C460    1.389   1_455 S
C283   C293    1.405   .     A
C283   C287    1.389   .     A
C283   H297    1.076   .     S
C284   H298    1.077   .     S
C284   C288    1.390   .     A
C284   C294    1.398   .     A
C285   C289    1.390   .     A
C285   H299    1.077   .     S
C285   C294    1.398   .     A
C286   H300    1.076   .     S
C286   C290    1.389   .     A
C286   C293    1.405   .     A
C287   C291    1.417   .     A
C287   C329    1.510   .     S
C288   C333    1.509   .     S
C288   C292    1.426   .     A
C289   C337    1.509   .     S
C289   C292    1.426   .     A
C290   C341    1.510   .     S
C290   C291    1.417   .     A
C293   C1104   1.489   1_554 S
C294   C1103   1.489   .     S
N301   Zn311   2.030   .     S
N302   Zn312   2.030   .     S
O303   Zn311   1.992   .     S
O304   Zn312   1.992   .     S
O305   Zn311   1.993   .     S
O306   Zn312   1.993   .     S
O307   Zn311   2.017   .     S
O308   Zn312   2.017   .     S
O309   Zn311   2.018   .     S
O310   Zn312   2.018   .     S
C313   H314    1.085   .     S
C313   H315    1.105   .     S
C313   H316    1.105   .     S
C317   H319    1.105   .     S
C317   H320    1.106   .     S
C317   H318    1.085   .     S
C321   H322    1.085   .     S
C321   H324    1.105   .     S
C321   H323    1.106   .     S
C325   H326    1.085   .     S
C325   H327    1.105   .     S
C325   H328    1.105   .     S
C329   H330    1.099   .     S
C329   H331    1.106   .     S
C329   H332    1.111   .     S
C333   H335    1.111   .     S
C333   H336    1.104   .     S
C333   H334    1.100   .     S
C337   H338    1.100   .     S
C337   H339    1.104   .     S
C337   H340    1.111   .     S
C341   H343    1.111   .     S
C341   H344    1.106   .     S
C341   H342    1.099   .     S
C345   H346    1.103   .     S
C345   H347    1.102   .     S
C345   H348    1.111   .     S
C349   H350    1.103   .     S
C349   H352    1.104   .     S
C349   H351    1.111   .     S
C353   H354    1.103   .     S
C353   H355    1.104   .     S
C353   H356    1.111   .     S
C357   H359    1.111   .     S
C357   H358    1.103   .     S
C357   H360    1.102   .     S
C361   O393    1.301   .     A
C361   C386    1.460   .     S
C361   O396    1.301   .     A
C362   O395    1.301   .     A
C362   O394    1.301   .     A
C362   C385    1.458   .     S
C363   O400    1.304   .     A
C363   C381    1.475   .     S
C363   O397    1.304   .     A
C364   C382    1.486   .     S
C364   O399    1.306   .     A
C364   O398    1.306   .     A
C365   N392    1.379   .     A
C365   C403    1.515   .     S
C366   N391    1.379   .     A
C366   C407    1.516   .     S
C366   C637    1.429   .     S
C367   N392    1.379   .     A
C367   C411    1.516   .     S
C368   C415    1.515   .     S
C368   N391    1.379   .     A
C368   C635    1.429   .     S
C369   C386    1.410   .     A
C369   C435    1.513   .     S
C370   C385    1.407   .     A
C370   C439    1.514   .     S
C370   C462    1.389   .     S
C371   C385    1.407   .     A
C371   C443    1.514   .     S
C371   C459    1.389   .     S
C372   C386    1.410   .     A
C372   C447    1.513   .     S
C373   C383    1.405   .     A
C373   C377    1.389   .     A
C373   H387    1.076   .     S
C374   H388    1.077   .     S
C374   C378    1.390   .     A
C374   C384    1.398   .     A
C375   C379    1.390   .     A
C375   H389    1.077   .     S
C375   C384    1.398   .     A
C376   H390    1.076   .     S
C376   C380    1.389   .     A
C376   C383    1.405   .     A
C377   C381    1.417   .     A
C377   C419    1.510   .     S
C378   C423    1.509   .     S
C378   C382    1.426   .     A
C379   C427    1.509   .     S
C379   C382    1.426   .     A
C380   C431    1.510   .     S
C380   C381    1.417   .     A
C383   C1194   1.489   1_554 S
C384   C1193   1.489   .     S
N391   Zn401   2.030   .     S
N392   Zn402   2.030   .     S
O393   Zn401   1.992   .     S
O394   Zn402   1.992   .     S
O395   Zn401   1.993   .     S
O396   Zn402   1.993   .     S
O397   Zn401   2.017   .     S
O398   Zn402   2.017   .     S
O399   Zn401   2.018   .     S
O400   Zn402   2.018   .     S
C403   H404    1.085   .     S
C403   H405    1.105   .     S
C403   H406    1.105   .     S
C407   H409    1.105   .     S
C407   H410    1.106   .     S
C407   H408    1.085   .     S
C411   H412    1.085   .     S
C411   H414    1.105   .     S
C411   H413    1.106   .     S
C415   H416    1.085   .     S
C415   H417    1.105   .     S
C415   H418    1.105   .     S
C419   H420    1.099   .     S
C419   H421    1.106   .     S
C419   H422    1.111   .     S
C423   H425    1.111   .     S
C423   H426    1.104   .     S
C423   H424    1.100   .     S
C427   H428    1.100   .     S
C427   H429    1.104   .     S
C427   H430    1.111   .     S
C431   H433    1.111   .     S
C431   H434    1.106   .     S
C431   H432    1.099   .     S
C435   H436    1.103   .     S
C435   H437    1.102   .     S
C435   H438    1.111   .     S
C439   H440    1.103   .     S
C439   H442    1.104   .     S
C439   H441    1.111   .     S
C443   H444    1.103   .     S
C443   H445    1.104   .     S
C443   H446    1.111   .     S
C447   H449    1.111   .     S
C447   H448    1.103   .     S
C447   H450    1.102   .     S
C451   O483    1.301   .     A
C451   C476    1.460   .     S
C451   O486    1.301   .     A
C452   O485    1.301   .     A
C452   O484    1.301   .     A
C452   C475    1.458   .     S
C453   O490    1.304   .     A
C453   C471    1.475   .     S
C453   O487    1.304   .     A
C454   C472    1.486   .     S
C454   O489    1.306   .     A
C454   O488    1.306   .     A
C455   N482    1.379   .     A
C455   C493    1.515   .     S
C456   N481    1.379   .     A
C456   C497    1.516   .     S
C456   C727    1.429   .     S
C457   N482    1.379   .     A
C457   C501    1.516   .     S
C458   C505    1.515   .     S
C458   N481    1.379   .     A
C458   C725    1.429   .     S
C459   C476    1.410   .     A
C459   C525    1.513   .     S
C460   C475    1.407   .     A
C460   C529    1.514   .     S
C460   C282    1.389   1_655 S
C461   C475    1.407   .     A
C461   C533    1.514   .     S
C461   C279    1.389   1_655 S
C462   C476    1.410   .     A
C462   C537    1.513   .     S
C463   C473    1.405   .     A
C463   C467    1.389   .     A
C463   H477    1.076   .     S
C464   H478    1.077   .     S
C464   C468    1.390   .     A
C464   C474    1.398   .     A
C465   C469    1.390   .     A
C465   H479    1.077   .     S
C465   C474    1.398   .     A
C466   H480    1.076   .     S
C466   C470    1.389   .     A
C466   C473    1.405   .     A
C467   C471    1.417   .     A
C467   C509    1.510   .     S
C468   C513    1.509   .     S
C468   C472    1.426   .     A
C469   C517    1.509   .     S
C469   C472    1.426   .     A
C470   C521    1.510   .     S
C470   C471    1.417   .     A
C473   C1284   1.489   1_554 S
C474   C1283   1.489   .     S
N481   Zn491   2.030   .     S
N482   Zn492   2.030   .     S
O483   Zn491   1.992   .     S
O484   Zn492   1.992   .     S
O485   Zn491   1.993   .     S
O486   Zn492   1.993   .     S
O487   Zn491   2.017   .     S
O488   Zn492   2.017   .     S
O489   Zn491   2.018   .     S
O490   Zn492   2.018   .     S
C493   H494    1.085   .     S
C493   H495    1.105   .     S
C493   H496    1.105   .     S
C497   H499    1.105   .     S
C497   H500    1.106   .     S
C497   H498    1.085   .     S
C501   H502    1.085   .     S
C501   H504    1.105   .     S
C501   H503    1.106   .     S
C505   H506    1.085   .     S
C505   H507    1.105   .     S
C505   H508    1.105   .     S
C509   H510    1.099   .     S
C509   H511    1.106   .     S
C509   H512    1.111   .     S
C513   H515    1.111   .     S
C513   H516    1.104   .     S
C513   H514    1.100   .     S
C517   H518    1.100   .     S
C517   H519    1.104   .     S
C517   H520    1.111   .     S
C521   H523    1.111   .     S
C521   H524    1.106   .     S
C521   H522    1.099   .     S
C525   H526    1.103   .     S
C525   H527    1.102   .     S
C525   H528    1.111   .     S
C529   H530    1.103   .     S
C529   H532    1.104   .     S
C529   H531    1.111   .     S
C533   H534    1.103   .     S
C533   H535    1.104   .     S
C533   H536    1.111   .     S
C537   H539    1.111   .     S
C537   H538    1.103   .     S
C537   H540    1.102   .     S
C541   O573    1.301   .     A
C541   C566    1.460   .     S
C541   O576    1.301   .     A
C542   O575    1.301   .     A
C542   O574    1.301   .     A
C542   C565    1.458   .     S
C543   O580    1.304   .     A
C543   C561    1.475   .     S
C543   O577    1.304   .     A
C544   C562    1.486   .     S
C544   O579    1.306   .     A
C544   O578    1.306   .     A
C545   N572    1.379   .     A
C545   C583    1.515   .     S
C546   N571    1.379   .     A
C546   C587    1.516   .     S
C546   C7      1.429   1_565 S
C547   N572    1.379   .     A
C547   C591    1.516   .     S
C548   C595    1.515   .     S
C548   N571    1.379   .     A
C548   C5      1.429   1_565 S
C549   C566    1.410   .     A
C549   C615    1.513   .     S
C549   C731    1.389   1_455 S
C550   C565    1.407   .     A
C550   C619    1.514   .     S
C550   C642    1.389   .     S
C551   C565    1.407   .     A
C551   C623    1.514   .     S
C551   C639    1.389   .     S
C552   C566    1.410   .     A
C552   C627    1.513   .     S
C552   C730    1.389   1_455 S
C553   C563    1.405   .     A
C553   C557    1.389   .     A
C553   H567    1.076   .     S
C554   H568    1.077   .     S
C554   C558    1.390   .     A
C554   C564    1.398   .     A
C555   C559    1.390   .     A
C555   H569    1.077   .     S
C555   C564    1.398   .     A
C556   H570    1.076   .     S
C556   C560    1.389   .     A
C556   C563    1.405   .     A
C557   C561    1.417   .     A
C557   C599    1.510   .     S
C558   C603    1.509   .     S
C558   C562    1.426   .     A
C559   C607    1.509   .     S
C559   C562    1.426   .     A
C560   C611    1.510   .     S
C560   C561    1.417   .     A
C563   C1374   1.489   1_554 S
C564   C1373   1.489   .     S
N571   Zn581   2.030   .     S
N572   Zn582   2.030   .     S
O573   Zn581   1.992   .     S
O574   Zn582   1.992   .     S
O575   Zn581   1.993   .     S
O576   Zn582   1.993   .     S
O577   Zn581   2.017   .     S
O578   Zn582   2.017   .     S
O579   Zn581   2.018   .     S
O580   Zn582   2.018   .     S
C583   H584    1.085   .     S
C583   H585    1.105   .     S
C583   H586    1.105   .     S
C587   H589    1.105   .     S
C587   H590    1.106   .     S
C587   H588    1.085   .     S
C591   H592    1.085   .     S
C591   H594    1.105   .     S
C591   H593    1.106   .     S
C595   H596    1.085   .     S
C595   H597    1.105   .     S
C595   H598    1.105   .     S
C599   H600    1.099   .     S
C599   H601    1.106   .     S
C599   H602    1.111   .     S
C603   H605    1.111   .     S
C603   H606    1.104   .     S
C603   H604    1.100   .     S
C607   H608    1.100   .     S
C607   H609    1.104   .     S
C607   H610    1.111   .     S
C611   H613    1.111   .     S
C611   H614    1.106   .     S
C611   H612    1.099   .     S
C615   H616    1.103   .     S
C615   H617    1.102   .     S
C615   H618    1.111   .     S
C619   H620    1.103   .     S
C619   H622    1.104   .     S
C619   H621    1.111   .     S
C623   H624    1.103   .     S
C623   H625    1.104   .     S
C623   H626    1.111   .     S
C627   H629    1.111   .     S
C627   H628    1.103   .     S
C627   H630    1.102   .     S
C631   O663    1.301   .     A
C631   C656    1.460   .     S
C631   O666    1.301   .     A
C632   O665    1.301   .     A
C632   O664    1.301   .     A
C632   C655    1.458   .     S
C633   O670    1.304   .     A
C633   C651    1.475   .     S
C633   O667    1.304   .     A
C634   C652    1.486   .     S
C634   O669    1.306   .     A
C634   O668    1.306   .     A
C635   N662    1.379   .     A
C635   C673    1.515   .     S
C636   N661    1.379   .     A
C636   C677    1.516   .     S
C636   C97     1.429   1_565 S
C637   N662    1.379   .     A
C637   C681    1.516   .     S
C638   C685    1.515   .     S
C638   N661    1.379   .     A
C638   C95     1.429   1_565 S
C639   C656    1.410   .     A
C639   C705    1.513   .     S
C640   C655    1.407   .     A
C640   C709    1.514   .     S
C640   C732    1.389   .     S
C641   C655    1.407   .     A
C641   C713    1.514   .     S
C641   C729    1.389   .     S
C642   C656    1.410   .     A
C642   C717    1.513   .     S
C643   C653    1.405   .     A
C643   C647    1.389   .     A
C643   H657    1.076   .     S
C644   H658    1.077   .     S
C644   C648    1.390   .     A
C644   C654    1.398   .     A
C645   C649    1.390   .     A
C645   H659    1.077   .     S
C645   C654    1.398   .     A
C646   H660    1.076   .     S
C646   C650    1.389   .     A
C646   C653    1.405   .     A
C647   C651    1.417   .     A
C647   C689    1.510   .     S
C648   C693    1.509   .     S
C648   C652    1.426   .     A
C649   C697    1.509   .     S
C649   C652    1.426   .     A
C650   C701    1.510   .     S
C650   C651    1.417   .     A
C653   C1464   1.489   1_554 S
C654   C1463   1.489   .     S
N661   Zn671   2.030   .     S
N662   Zn672   2.030   .     S
O663   Zn671   1.992   .     S
O664   Zn672   1.992   .     S
O665   Zn671   1.993   .     S
O666   Zn672   1.993   .     S
O667   Zn671   2.017   .     S
O668   Zn672   2.017   .     S
O669   Zn671   2.018   .     S
O670   Zn672   2.018   .     S
C673   H674    1.085   .     S
C673   H675    1.105   .     S
C673   H676    1.105   .     S
C677   H679    1.105   .     S
C677   H680    1.106   .     S
C677   H678    1.085   .     S
C681   H682    1.085   .     S
C681   H684    1.105   .     S
C681   H683    1.106   .     S
C685   H686    1.085   .     S
C685   H687    1.105   .     S
C685   H688    1.105   .     S
C689   H690    1.099   .     S
C689   H691    1.106   .     S
C689   H692    1.111   .     S
C693   H695    1.111   .     S
C693   H696    1.104   .     S
C693   H694    1.100   .     S
C697   H698    1.100   .     S
C697   H699    1.104   .     S
C697   H700    1.111   .     S
C701   H703    1.111   .     S
C701   H704    1.106   .     S
C701   H702    1.099   .     S
C705   H706    1.103   .     S
C705   H707    1.102   .     S
C705   H708    1.111   .     S
C709   H710    1.103   .     S
C709   H712    1.104   .     S
C709   H711    1.111   .     S
C713   H714    1.103   .     S
C713   H715    1.104   .     S
C713   H716    1.111   .     S
C717   H719    1.111   .     S
C717   H718    1.103   .     S
C717   H720    1.102   .     S
C721   O753    1.301   .     A
C721   C746    1.460   .     S
C721   O756    1.301   .     A
C722   O755    1.301   .     A
C722   O754    1.301   .     A
C722   C745    1.458   .     S
C723   O760    1.304   .     A
C723   C741    1.475   .     S
C723   O757    1.304   .     A
C724   C742    1.486   .     S
C724   O759    1.306   .     A
C724   O758    1.306   .     A
C725   N752    1.379   .     A
C725   C763    1.515   .     S
C726   N751    1.379   .     A
C726   C767    1.516   .     S
C726   C187    1.429   1_565 S
C727   N752    1.379   .     A
C727   C771    1.516   .     S
C728   C775    1.515   .     S
C728   N751    1.379   .     A
C728   C185    1.429   1_565 S
C729   C746    1.410   .     A
C729   C795    1.513   .     S
C730   C745    1.407   .     A
C730   C799    1.514   .     S
C730   C552    1.389   1_655 S
C731   C745    1.407   .     A
C731   C803    1.514   .     S
C731   C549    1.389   1_655 S
C732   C746    1.410   .     A
C732   C807    1.513   .     S
C733   C743    1.405   .     A
C733   C737    1.389   .     A
C733   H747    1.076   .     S
C734   H748    1.077   .     S
C734   C738    1.390   .     A
C734   C744    1.398   .     A
C735   C739    1.390   .     A
C735   H749    1.077   .     S
C735   C744    1.398   .     A
C736   H750    1.076   .     S
C736   C740    1.389   .     A
C736   C743    1.405   .     A
C737   C741    1.417   .     A
C737   C779    1.510   .     S
C738   C783    1.509   .     S
C738   C742    1.426   .     A
C739   C787    1.509   .     S
C739   C742    1.426   .     A
C740   C791    1.510   .     S
C740   C741    1.417   .     A
C743   C1554   1.489   1_554 S
C744   C1553   1.489   .     S
N751   Zn761   2.030   .     S
N752   Zn762   2.030   .     S
O753   Zn761   1.992   .     S
O754   Zn762   1.992   .     S
O755   Zn761   1.993   .     S
O756   Zn762   1.993   .     S
O757   Zn761   2.017   .     S
O758   Zn762   2.017   .     S
O759   Zn761   2.018   .     S
O760   Zn762   2.018   .     S
C763   H764    1.085   .     S
C763   H765    1.105   .     S
C763   H766    1.105   .     S
C767   H769    1.105   .     S
C767   H770    1.106   .     S
C767   H768    1.085   .     S
C771   H772    1.085   .     S
C771   H774    1.105   .     S
C771   H773    1.106   .     S
C775   H776    1.085   .     S
C775   H777    1.105   .     S
C775   H778    1.105   .     S
C779   H780    1.099   .     S
C779   H781    1.106   .     S
C779   H782    1.111   .     S
C783   H785    1.111   .     S
C783   H786    1.104   .     S
C783   H784    1.100   .     S
C787   H788    1.100   .     S
C787   H789    1.104   .     S
C787   H790    1.111   .     S
C791   H793    1.111   .     S
C791   H794    1.106   .     S
C791   H792    1.099   .     S
C795   H796    1.103   .     S
C795   H797    1.102   .     S
C795   H798    1.111   .     S
C799   H800    1.103   .     S
C799   H802    1.104   .     S
C799   H801    1.111   .     S
C803   H804    1.103   .     S
C803   H805    1.104   .     S
C803   H806    1.111   .     S
C807   H809    1.111   .     S
C807   H808    1.103   .     S
C807   H810    1.102   .     S
C811   O843    1.301   .     A
C811   C836    1.460   .     S
C811   O846    1.301   .     A
C812   O845    1.301   .     A
C812   O844    1.301   .     A
C812   C835    1.458   .     S
C813   O850    1.304   .     A
C813   C831    1.475   .     S
C813   O847    1.304   .     A
C814   C832    1.486   .     S
C814   O849    1.306   .     A
C814   O848    1.306   .     A
C815   N842    1.379   .     A
C815   C853    1.515   .     S
C815   C1358   1.429   1_545 S
C816   N841    1.379   .     A
C816   C857    1.516   .     S
C816   C1087   1.429   .     S
C817   N842    1.379   .     A
C817   C861    1.516   .     S
C817   C1356   1.429   1_545 S
C818   C865    1.515   .     S
C818   N841    1.379   .     A
C818   C1085   1.429   .     S
C819   C836    1.410   .     A
C819   C885    1.513   .     S
C819   C1001   1.389   1_455 S
C820   C835    1.407   .     A
C820   C889    1.514   .     S
C820   C912    1.389   .     S
C821   C835    1.407   .     A
C821   C893    1.514   .     S
C821   C909    1.389   .     S
C822   C836    1.410   .     A
C822   C897    1.513   .     S
C822   C1000   1.389   1_455 S
C823   C833    1.405   .     A
C823   C827    1.389   .     A
C823   H837    1.076   .     S
C824   H838    1.077   .     S
C824   C828    1.390   .     A
C824   C834    1.398   .     A
C825   C829    1.390   .     A
C825   H839    1.077   .     S
C825   C834    1.398   .     A
C826   H840    1.076   .     S
C826   C830    1.389   .     A
C826   C833    1.405   .     A
C827   C831    1.417   .     A
C827   C869    1.510   .     S
C828   C873    1.509   .     S
C828   C832    1.426   .     A
C829   C877    1.509   .     S
C829   C832    1.426   .     A
C830   C881    1.510   .     S
C830   C831    1.417   .     A
C834   C23     1.489   1_556 S
N841   Zn851   2.030   .     S
N842   Zn852   2.030   .     S
O843   Zn851   1.992   .     S
O844   Zn852   1.992   .     S
O845   Zn851   1.993   .     S
O846   Zn852   1.993   .     S
O847   Zn851   2.017   .     S
O848   Zn852   2.017   .     S
O849   Zn851   2.018   .     S
O850   Zn852   2.018   .     S
C853   H854    1.085   .     S
C853   H855    1.105   .     S
C853   H856    1.105   .     S
C857   H859    1.105   .     S
C857   H860    1.106   .     S
C857   H858    1.085   .     S
C861   H862    1.085   .     S
C861   H864    1.105   .     S
C861   H863    1.106   .     S
C865   H866    1.085   .     S
C865   H867    1.105   .     S
C865   H868    1.105   .     S
C869   H870    1.099   .     S
C869   H871    1.106   .     S
C869   H872    1.111   .     S
C873   H875    1.111   .     S
C873   H876    1.104   .     S
C873   H874    1.100   .     S
C877   H878    1.100   .     S
C877   H879    1.104   .     S
C877   H880    1.111   .     S
C881   H883    1.111   .     S
C881   H884    1.106   .     S
C881   H882    1.099   .     S
C885   H886    1.103   .     S
C885   H887    1.102   .     S
C885   H888    1.111   .     S
C889   H890    1.103   .     S
C889   H892    1.104   .     S
C889   H891    1.111   .     S
C893   H894    1.103   .     S
C893   H895    1.104   .     S
C893   H896    1.111   .     S
C897   H899    1.111   .     S
C897   H898    1.103   .     S
C897   H900    1.102   .     S
C901   O933    1.301   .     A
C901   C926    1.460   .     S
C901   O936    1.301   .     A
C902   O935    1.301   .     A
C902   O934    1.301   .     A
C902   C925    1.458   .     S
C903   O940    1.304   .     A
C903   C921    1.475   .     S
C903   O937    1.304   .     A
C904   C922    1.486   .     S
C904   O939    1.306   .     A
C904   O938    1.306   .     A
C905   N932    1.379   .     A
C905   C943    1.515   .     S
C905   C1448   1.429   1_545 S
C906   N931    1.379   .     A
C906   C947    1.516   .     S
C906   C1177   1.429   .     S
C907   N932    1.379   .     A
C907   C951    1.516   .     S
C907   C1446   1.429   1_545 S
C908   C955    1.515   .     S
C908   N931    1.379   .     A
C908   C1175   1.429   .     S
C909   C926    1.410   .     A
C909   C975    1.513   .     S
C910   C925    1.407   .     A
C910   C979    1.514   .     S
C910   C1002   1.389   .     S
C911   C925    1.407   .     A
C911   C983    1.514   .     S
C911   C999    1.389   .     S
C912   C926    1.410   .     A
C912   C987    1.513   .     S
C913   C923    1.405   .     A
C913   C917    1.389   .     A
C913   H927    1.076   .     S
C914   H928    1.077   .     S
C914   C918    1.390   .     A
C914   C924    1.398   .     A
C915   C919    1.390   .     A
C915   H929    1.077   .     S
C915   C924    1.398   .     A
C916   H930    1.076   .     S
C916   C920    1.389   .     A
C916   C923    1.405   .     A
C917   C921    1.417   .     A
C917   C959    1.510   .     S
C918   C963    1.509   .     S
C918   C922    1.426   .     A
C919   C967    1.509   .     S
C919   C922    1.426   .     A
C920   C971    1.510   .     S
C920   C921    1.417   .     A
C924   C113    1.489   1_556 S
N931   Zn941   2.030   .     S
N932   Zn942   2.030   .     S
O933   Zn941   1.992   .     S
O934   Zn942   1.992   .     S
O935   Zn941   1.993   .     S
O936   Zn942   1.993   .     S
O937   Zn941   2.017   .     S
O938   Zn942   2.017   .     S
O939   Zn941   2.018   .     S
O940   Zn942   2.018   .     S
C943   H944    1.085   .     S
C943   H945    1.105   .     S
C943   H946    1.105   .     S
C947   H949    1.105   .     S
C947   H950    1.106   .     S
C947   H948    1.085   .     S
C951   H952    1.085   .     S
C951   H954    1.105   .     S
C951   H953    1.106   .     S
C955   H956    1.085   .     S
C955   H957    1.105   .     S
C955   H958    1.105   .     S
C959   H960    1.099   .     S
C959   H961    1.106   .     S
C959   H962    1.111   .     S
C963   H965    1.111   .     S
C963   H966    1.104   .     S
C963   H964    1.100   .     S
C967   H968    1.100   .     S
C967   H969    1.104   .     S
C967   H970    1.111   .     S
C971   H973    1.111   .     S
C971   H974    1.106   .     S
C971   H972    1.099   .     S
C975   H976    1.103   .     S
C975   H977    1.102   .     S
C975   H978    1.111   .     S
C979   H980    1.103   .     S
C979   H982    1.104   .     S
C979   H981    1.111   .     S
C983   H984    1.103   .     S
C983   H985    1.104   .     S
C983   H986    1.111   .     S
C987   H989    1.111   .     S
C987   H988    1.103   .     S
C987   H990    1.102   .     S
C991   O1023   1.301   .     A
C991   C1016   1.460   .     S
C991   O1026   1.301   .     A
C992   O1025   1.301   .     A
C992   O1024   1.301   .     A
C992   C1015   1.458   .     S
C993   O1030   1.304   .     A
C993   C1011   1.475   .     S
C993   O1027   1.304   .     A
C994   C1012   1.486   .     S
C994   O1029   1.306   .     A
C994   O1028   1.306   .     A
C995   N1022   1.379   .     A
C995   C1033   1.515   .     S
C995   C1538   1.429   1_545 S
C996   N1021   1.379   .     A
C996   C1037   1.516   .     S
C996   C1267   1.429   .     S
C997   N1022   1.379   .     A
C997   C1041   1.516   .     S
C997   C1536   1.429   1_545 S
C998   C1045   1.515   .     S
C998   N1021   1.379   .     A
C998   C1265   1.429   .     S
C999   C1016   1.410   .     A
C999   C1065   1.513   .     S
C1000  C1015   1.407   .     A
C1000  C1069   1.514   .     S
C1000  C822    1.389   1_655 S
C1001  C1015   1.407   .     A
C1001  C1073   1.514   .     S
C1001  C819    1.389   1_655 S
C1002  C1016   1.410   .     A
C1002  C1077   1.513   .     S
C1003  C1013   1.405   .     A
C1003  C1007   1.389   .     A
C1003  H1017   1.076   .     S
C1004  H1018   1.077   .     S
C1004  C1008   1.390   .     A
C1004  C1014   1.398   .     A
C1005  C1009   1.390   .     A
C1005  H1019   1.077   .     S
C1005  C1014   1.398   .     A
C1006  H1020   1.076   .     S
C1006  C1010   1.389   .     A
C1006  C1013   1.405   .     A
C1007  C1011   1.417   .     A
C1007  C1049   1.510   .     S
C1008  C1053   1.509   .     S
C1008  C1012   1.426   .     A
C1009  C1057   1.509   .     S
C1009  C1012   1.426   .     A
C1010  C1061   1.510   .     S
C1010  C1011   1.417   .     A
C1014  C203    1.489   1_556 S
N1021  Zn1031  2.030   .     S
N1022  Zn1032  2.030   .     S
O1023  Zn1031  1.992   .     S
O1024  Zn1032  1.992   .     S
O1025  Zn1031  1.993   .     S
O1026  Zn1032  1.993   .     S
O1027  Zn1031  2.017   .     S
O1028  Zn1032  2.017   .     S
O1029  Zn1031  2.018   .     S
O1030  Zn1032  2.018   .     S
C1033  H1034   1.085   .     S
C1033  H1035   1.105   .     S
C1033  H1036   1.105   .     S
C1037  H1039   1.105   .     S
C1037  H1040   1.106   .     S
C1037  H1038   1.085   .     S
C1041  H1042   1.085   .     S
C1041  H1044   1.105   .     S
C1041  H1043   1.106   .     S
C1045  H1046   1.085   .     S
C1045  H1047   1.105   .     S
C1045  H1048   1.105   .     S
C1049  H1050   1.099   .     S
C1049  H1051   1.106   .     S
C1049  H1052   1.111   .     S
C1053  H1055   1.111   .     S
C1053  H1056   1.104   .     S
C1053  H1054   1.100   .     S
C1057  H1058   1.100   .     S
C1057  H1059   1.104   .     S
C1057  H1060   1.111   .     S
C1061  H1063   1.111   .     S
C1061  H1064   1.106   .     S
C1061  H1062   1.099   .     S
C1065  H1066   1.103   .     S
C1065  H1067   1.102   .     S
C1065  H1068   1.111   .     S
C1069  H1070   1.103   .     S
C1069  H1072   1.104   .     S
C1069  H1071   1.111   .     S
C1073  H1074   1.103   .     S
C1073  H1075   1.104   .     S
C1073  H1076   1.111   .     S
C1077  H1079   1.111   .     S
C1077  H1078   1.103   .     S
C1077  H1080   1.102   .     S
C1081  O1113   1.301   .     A
C1081  C1106   1.460   .     S
C1081  O1116   1.301   .     A
C1082  O1115   1.301   .     A
C1082  O1114   1.301   .     A
C1082  C1105   1.458   .     S
C1083  O1120   1.304   .     A
C1083  C1101   1.475   .     S
C1083  O1117   1.304   .     A
C1084  C1102   1.486   .     S
C1084  O1119   1.306   .     A
C1084  O1118   1.306   .     A
C1085  N1112   1.379   .     A
C1085  C1123   1.515   .     S
C1086  N1111   1.379   .     A
C1086  C1127   1.516   .     S
C1086  C1357   1.429   .     S
C1087  N1112   1.379   .     A
C1087  C1131   1.516   .     S
C1088  C1135   1.515   .     S
C1088  N1111   1.379   .     A
C1088  C1355   1.429   .     S
C1089  C1106   1.410   .     A
C1089  C1155   1.513   .     S
C1089  C1271   1.389   1_455 S
C1090  C1105   1.407   .     A
C1090  C1159   1.514   .     S
C1090  C1182   1.389   .     S
C1091  C1105   1.407   .     A
C1091  C1163   1.514   .     S
C1091  C1179   1.389   .     S
C1092  C1106   1.410   .     A
C1092  C1167   1.513   .     S
C1092  C1270   1.389   1_455 S
C1093  C1103   1.405   .     A
C1093  C1097   1.389   .     A
C1093  H1107   1.076   .     S
C1094  H1108   1.077   .     S
C1094  C1098   1.390   .     A
C1094  C1104   1.398   .     A
C1095  C1099   1.390   .     A
C1095  H1109   1.077   .     S
C1095  C1104   1.398   .     A
C1096  H1110   1.076   .     S
C1096  C1100   1.389   .     A
C1096  C1103   1.405   .     A
C1097  C1101   1.417   .     A
C1097  C1139   1.510   .     S
C1098  C1143   1.509   .     S
C1098  C1102   1.426   .     A
C1099  C1147   1.509   .     S
C1099  C1102   1.426   .     A
C1100  C1151   1.510   .     S
C1100  C1101   1.417   .     A
C1104  C293    1.489   1_556 S
N1111  Zn1121  2.030   .     S
N1112  Zn1122  2.030   .     S
O1113  Zn1121  1.992   .     S
O1114  Zn1122  1.992   .     S
O1115  Zn1121  1.993   .     S
O1116  Zn1122  1.993   .     S
O1117  Zn1121  2.017   .     S
O1118  Zn1122  2.017   .     S
O1119  Zn1121  2.018   .     S
O1120  Zn1122  2.018   .     S
C1123  H1124   1.085   .     S
C1123  H1125   1.105   .     S
C1123  H1126   1.105   .     S
C1127  H1129   1.105   .     S
C1127  H1130   1.106   .     S
C1127  H1128   1.085   .     S
C1131  H1132   1.085   .     S
C1131  H1134   1.105   .     S
C1131  H1133   1.106   .     S
C1135  H1136   1.085   .     S
C1135  H1137   1.105   .     S
C1135  H1138   1.105   .     S
C1139  H1140   1.099   .     S
C1139  H1141   1.106   .     S
C1139  H1142   1.111   .     S
C1143  H1145   1.111   .     S
C1143  H1146   1.104   .     S
C1143  H1144   1.100   .     S
C1147  H1148   1.100   .     S
C1147  H1149   1.104   .     S
C1147  H1150   1.111   .     S
C1151  H1153   1.111   .     S
C1151  H1154   1.106   .     S
C1151  H1152   1.099   .     S
C1155  H1156   1.103   .     S
C1155  H1157   1.102   .     S
C1155  H1158   1.111   .     S
C1159  H1160   1.103   .     S
C1159  H1162   1.104   .     S
C1159  H1161   1.111   .     S
C1163  H1164   1.103   .     S
C1163  H1165   1.104   .     S
C1163  H1166   1.111   .     S
C1167  H1169   1.111   .     S
C1167  H1168   1.103   .     S
C1167  H1170   1.102   .     S
C1171  O1203   1.301   .     A
C1171  C1196   1.460   .     S
C1171  O1206   1.301   .     A
C1172  O1205   1.301   .     A
C1172  O1204   1.301   .     A
C1172  C1195   1.458   .     S
C1173  O1210   1.304   .     A
C1173  C1191   1.475   .     S
C1173  O1207   1.304   .     A
C1174  C1192   1.486   .     S
C1174  O1209   1.306   .     A
C1174  O1208   1.306   .     A
C1175  N1202   1.379   .     A
C1175  C1213   1.515   .     S
C1176  N1201   1.379   .     A
C1176  C1217   1.516   .     S
C1176  C1447   1.429   .     S
C1177  N1202   1.379   .     A
C1177  C1221   1.516   .     S
C1178  C1225   1.515   .     S
C1178  N1201   1.379   .     A
C1178  C1445   1.429   .     S
C1179  C1196   1.410   .     A
C1179  C1245   1.513   .     S
C1180  C1195   1.407   .     A
C1180  C1249   1.514   .     S
C1180  C1272   1.389   .     S
C1181  C1195   1.407   .     A
C1181  C1253   1.514   .     S
C1181  C1269   1.389   .     S
C1182  C1196   1.410   .     A
C1182  C1257   1.513   .     S
C1183  C1193   1.405   .     A
C1183  C1187   1.389   .     A
C1183  H1197   1.076   .     S
C1184  H1198   1.077   .     S
C1184  C1188   1.390   .     A
C1184  C1194   1.398   .     A
C1185  C1189   1.390   .     A
C1185  H1199   1.077   .     S
C1185  C1194   1.398   .     A
C1186  H1200   1.076   .     S
C1186  C1190   1.389   .     A
C1186  C1193   1.405   .     A
C1187  C1191   1.417   .     A
C1187  C1229   1.510   .     S
C1188  C1233   1.509   .     S
C1188  C1192   1.426   .     A
C1189  C1237   1.509   .     S
C1189  C1192   1.426   .     A
C1190  C1241   1.510   .     S
C1190  C1191   1.417   .     A
C1194  C383    1.489   1_556 S
N1201  Zn1211  2.030   .     S
N1202  Zn1212  2.030   .     S
O1203  Zn1211  1.992   .     S
O1204  Zn1212  1.992   .     S
O1205  Zn1211  1.993   .     S
O1206  Zn1212  1.993   .     S
O1207  Zn1211  2.017   .     S
O1208  Zn1212  2.017   .     S
O1209  Zn1211  2.018   .     S
O1210  Zn1212  2.018   .     S
C1213  H1214   1.085   .     S
C1213  H1215   1.105   .     S
C1213  H1216   1.105   .     S
C1217  H1219   1.105   .     S
C1217  H1220   1.106   .     S
C1217  H1218   1.085   .     S
C1221  H1222   1.085   .     S
C1221  H1224   1.105   .     S
C1221  H1223   1.106   .     S
C1225  H1226   1.085   .     S
C1225  H1227   1.105   .     S
C1225  H1228   1.105   .     S
C1229  H1230   1.099   .     S
C1229  H1231   1.106   .     S
C1229  H1232   1.111   .     S
C1233  H1235   1.111   .     S
C1233  H1236   1.104   .     S
C1233  H1234   1.100   .     S
C1237  H1238   1.100   .     S
C1237  H1239   1.104   .     S
C1237  H1240   1.111   .     S
C1241  H1243   1.111   .     S
C1241  H1244   1.106   .     S
C1241  H1242   1.099   .     S
C1245  H1246   1.103   .     S
C1245  H1247   1.102   .     S
C1245  H1248   1.111   .     S
C1249  H1250   1.103   .     S
C1249  H1252   1.104   .     S
C1249  H1251   1.111   .     S
C1253  H1254   1.103   .     S
C1253  H1255   1.104   .     S
C1253  H1256   1.111   .     S
C1257  H1259   1.111   .     S
C1257  H1258   1.103   .     S
C1257  H1260   1.102   .     S
C1261  O1293   1.301   .     A
C1261  C1286   1.460   .     S
C1261  O1296   1.301   .     A
C1262  O1295   1.301   .     A
C1262  O1294   1.301   .     A
C1262  C1285   1.458   .     S
C1263  O1300   1.304   .     A
C1263  C1281   1.475   .     S
C1263  O1297   1.304   .     A
C1264  C1282   1.486   .     S
C1264  O1299   1.306   .     A
C1264  O1298   1.306   .     A
C1265  N1292   1.379   .     A
C1265  C1303   1.515   .     S
C1266  N1291   1.379   .     A
C1266  C1307   1.516   .     S
C1266  C1537   1.429   .     S
C1267  N1292   1.379   .     A
C1267  C1311   1.516   .     S
C1268  C1315   1.515   .     S
C1268  N1291   1.379   .     A
C1268  C1535   1.429   .     S
C1269  C1286   1.410   .     A
C1269  C1335   1.513   .     S
C1270  C1285   1.407   .     A
C1270  C1339   1.514   .     S
C1270  C1092   1.389   1_655 S
C1271  C1285   1.407   .     A
C1271  C1343   1.514   .     S
C1271  C1089   1.389   1_655 S
C1272  C1286   1.410   .     A
C1272  C1347   1.513   .     S
C1273  C1283   1.405   .     A
C1273  C1277   1.389   .     A
C1273  H1287   1.076   .     S
C1274  H1288   1.077   .     S
C1274  C1278   1.390   .     A
C1274  C1284   1.398   .     A
C1275  C1279   1.390   .     A
C1275  H1289   1.077   .     S
C1275  C1284   1.398   .     A
C1276  H1290   1.076   .     S
C1276  C1280   1.389   .     A
C1276  C1283   1.405   .     A
C1277  C1281   1.417   .     A
C1277  C1319   1.510   .     S
C1278  C1323   1.509   .     S
C1278  C1282   1.426   .     A
C1279  C1327   1.509   .     S
C1279  C1282   1.426   .     A
C1280  C1331   1.510   .     S
C1280  C1281   1.417   .     A
C1284  C473    1.489   1_556 S
N1291  Zn1301  2.030   .     S
N1292  Zn1302  2.030   .     S
O1293  Zn1301  1.992   .     S
O1294  Zn1302  1.992   .     S
O1295  Zn1301  1.993   .     S
O1296  Zn1302  1.993   .     S
O1297  Zn1301  2.017   .     S
O1298  Zn1302  2.017   .     S
O1299  Zn1301  2.018   .     S
O1300  Zn1302  2.018   .     S
C1303  H1304   1.085   .     S
C1303  H1305   1.105   .     S
C1303  H1306   1.105   .     S
C1307  H1309   1.105   .     S
C1307  H1310   1.106   .     S
C1307  H1308   1.085   .     S
C1311  H1312   1.085   .     S
C1311  H1314   1.105   .     S
C1311  H1313   1.106   .     S
C1315  H1316   1.085   .     S
C1315  H1317   1.105   .     S
C1315  H1318   1.105   .     S
C1319  H1320   1.099   .     S
C1319  H1321   1.106   .     S
C1319  H1322   1.111   .     S
C1323  H1325   1.111   .     S
C1323  H1326   1.104   .     S
C1323  H1324   1.100   .     S
C1327  H1328   1.100   .     S
C1327  H1329   1.104   .     S
C1327  H1330   1.111   .     S
C1331  H1333   1.111   .     S
C1331  H1334   1.106   .     S
C1331  H1332   1.099   .     S
C1335  H1336   1.103   .     S
C1335  H1337   1.102   .     S
C1335  H1338   1.111   .     S
C1339  H1340   1.103   .     S
C1339  H1342   1.104   .     S
C1339  H1341   1.111   .     S
C1343  H1344   1.103   .     S
C1343  H1345   1.104   .     S
C1343  H1346   1.111   .     S
C1347  H1349   1.111   .     S
C1347  H1348   1.103   .     S
C1347  H1350   1.102   .     S
C1351  O1383   1.301   .     A
C1351  C1376   1.460   .     S
C1351  O1386   1.301   .     A
C1352  O1385   1.301   .     A
C1352  O1384   1.301   .     A
C1352  C1375   1.458   .     S
C1353  O1390   1.304   .     A
C1353  C1371   1.475   .     S
C1353  O1387   1.304   .     A
C1354  C1372   1.486   .     S
C1354  O1389   1.306   .     A
C1354  O1388   1.306   .     A
C1355  N1382   1.379   .     A
C1355  C1393   1.515   .     S
C1356  N1381   1.379   .     A
C1356  C1397   1.516   .     S
C1356  C817    1.429   1_565 S
C1357  N1382   1.379   .     A
C1357  C1401   1.516   .     S
C1358  C1405   1.515   .     S
C1358  N1381   1.379   .     A
C1358  C815    1.429   1_565 S
C1359  C1376   1.410   .     A
C1359  C1425   1.513   .     S
C1359  C1541   1.389   1_455 S
C1360  C1375   1.407   .     A
C1360  C1429   1.514   .     S
C1360  C1452   1.389   .     S
C1361  C1375   1.407   .     A
C1361  C1433   1.514   .     S
C1361  C1449   1.389   .     S
C1362  C1376   1.410   .     A
C1362  C1437   1.513   .     S
C1362  C1540   1.389   1_455 S
C1363  C1373   1.405   .     A
C1363  C1367   1.389   .     A
C1363  H1377   1.076   .     S
C1364  H1378   1.077   .     S
C1364  C1368   1.390   .     A
C1364  C1374   1.398   .     A
C1365  C1369   1.390   .     A
C1365  H1379   1.077   .     S
C1365  C1374   1.398   .     A
C1366  H1380   1.076   .     S
C1366  C1370   1.389   .     A
C1366  C1373   1.405   .     A
C1367  C1371   1.417   .     A
C1367  C1409   1.510   .     S
C1368  C1413   1.509   .     S
C1368  C1372   1.426   .     A
C1369  C1417   1.509   .     S
C1369  C1372   1.426   .     A
C1370  C1421   1.510   .     S
C1370  C1371   1.417   .     A
C1374  C563    1.489   1_556 S
N1381  Zn1391  2.030   .     S
N1382  Zn1392  2.030   .     S
O1383  Zn1391  1.992   .     S
O1384  Zn1392  1.992   .     S
O1385  Zn1391  1.993   .     S
O1386  Zn1392  1.993   .     S
O1387  Zn1391  2.017   .     S
O1388  Zn1392  2.017   .     S
O1389  Zn1391  2.018   .     S
O1390  Zn1392  2.018   .     S
C1393  H1394   1.085   .     S
C1393  H1395   1.105   .     S
C1393  H1396   1.105   .     S
C1397  H1399   1.105   .     S
C1397  H1400   1.106   .     S
C1397  H1398   1.085   .     S
C1401  H1402   1.085   .     S
C1401  H1404   1.105   .     S
C1401  H1403   1.106   .     S
C1405  H1406   1.085   .     S
C1405  H1407   1.105   .     S
C1405  H1408   1.105   .     S
C1409  H1410   1.099   .     S
C1409  H1411   1.106   .     S
C1409  H1412   1.111   .     S
C1413  H1415   1.111   .     S
C1413  H1416   1.104   .     S
C1413  H1414   1.100   .     S
C1417  H1418   1.100   .     S
C1417  H1419   1.104   .     S
C1417  H1420   1.111   .     S
C1421  H1423   1.111   .     S
C1421  H1424   1.106   .     S
C1421  H1422   1.099   .     S
C1425  H1426   1.103   .     S
C1425  H1427   1.102   .     S
C1425  H1428   1.111   .     S
C1429  H1430   1.103   .     S
C1429  H1432   1.104   .     S
C1429  H1431   1.111   .     S
C1433  H1434   1.103   .     S
C1433  H1435   1.104   .     S
C1433  H1436   1.111   .     S
C1437  H1439   1.111   .     S
C1437  H1438   1.103   .     S
C1437  H1440   1.102   .     S
C1441  O1473   1.301   .     A
C1441  C1466   1.460   .     S
C1441  O1476   1.301   .     A
C1442  O1475   1.301   .     A
C1442  O1474   1.301   .     A
C1442  C1465   1.458   .     S
C1443  O1480   1.304   .     A
C1443  C1461   1.475   .     S
C1443  O1477   1.304   .     A
C1444  C1462   1.486   .     S
C1444  O1479   1.306   .     A
C1444  O1478   1.306   .     A
C1445  N1472   1.379   .     A
C1445  C1483   1.515   .     S
C1446  N1471   1.379   .     A
C1446  C1487   1.516   .     S
C1446  C907    1.429   1_565 S
C1447  N1472   1.379   .     A
C1447  C1491   1.516   .     S
C1448  C1495   1.515   .     S
C1448  N1471   1.379   .     A
C1448  C905    1.429   1_565 S
C1449  C1466   1.410   .     A
C1449  C1515   1.513   .     S
C1450  C1465   1.407   .     A
C1450  C1519   1.514   .     S
C1450  C1542   1.389   .     S
C1451  C1465   1.407   .     A
C1451  C1523   1.514   .     S
C1451  C1539   1.389   .     S
C1452  C1466   1.410   .     A
C1452  C1527   1.513   .     S
C1453  C1463   1.405   .     A
C1453  C1457   1.389   .     A
C1453  H1467   1.076   .     S
C1454  H1468   1.077   .     S
C1454  C1458   1.390   .     A
C1454  C1464   1.398   .     A
C1455  C1459   1.390   .     A
C1455  H1469   1.077   .     S
C1455  C1464   1.398   .     A
C1456  H1470   1.076   .     S
C1456  C1460   1.389   .     A
C1456  C1463   1.405   .     A
C1457  C1461   1.417   .     A
C1457  C1499   1.510   .     S
C1458  C1503   1.509   .     S
C1458  C1462   1.426   .     A
C1459  C1507   1.509   .     S
C1459  C1462   1.426   .     A
C1460  C1511   1.510   .     S
C1460  C1461   1.417   .     A
C1464  C653    1.489   1_556 S
N1471  Zn1481  2.030   .     S
N1472  Zn1482  2.030   .     S
O1473  Zn1481  1.992   .     S
O1474  Zn1482  1.992   .     S
O1475  Zn1481  1.993   .     S
O1476  Zn1482  1.993   .     S
O1477  Zn1481  2.017   .     S
O1478  Zn1482  2.017   .     S
O1479  Zn1481  2.018   .     S
O1480  Zn1482  2.018   .     S
C1483  H1484   1.085   .     S
C1483  H1485   1.105   .     S
C1483  H1486   1.105   .     S
C1487  H1489   1.105   .     S
C1487  H1490   1.106   .     S
C1487  H1488   1.085   .     S
C1491  H1492   1.085   .     S
C1491  H1494   1.105   .     S
C1491  H1493   1.106   .     S
C1495  H1496   1.085   .     S
C1495  H1497   1.105   .     S
C1495  H1498   1.105   .     S
C1499  H1500   1.099   .     S
C1499  H1501   1.106   .     S
C1499  H1502   1.111   .     S
C1503  H1505   1.111   .     S
C1503  H1506   1.104   .     S
C1503  H1504   1.100   .     S
C1507  H1508   1.100   .     S
C1507  H1509   1.104   .     S
C1507  H1510   1.111   .     S
C1511  H1513   1.111   .     S
C1511  H1514   1.106   .     S
C1511  H1512   1.099   .     S
C1515  H1516   1.103   .     S
C1515  H1517   1.102   .     S
C1515  H1518   1.111   .     S
C1519  H1520   1.103   .     S
C1519  H1522   1.104   .     S
C1519  H1521   1.111   .     S
C1523  H1524   1.103   .     S
C1523  H1525   1.104   .     S
C1523  H1526   1.111   .     S
C1527  H1529   1.111   .     S
C1527  H1528   1.103   .     S
C1527  H1530   1.102   .     S
C1531  O1563   1.301   .     A
C1531  C1556   1.460   .     S
C1531  O1566   1.301   .     A
C1532  O1565   1.301   .     A
C1532  O1564   1.301   .     A
C1532  C1555   1.458   .     S
C1533  O1570   1.304   .     A
C1533  C1551   1.475   .     S
C1533  O1567   1.304   .     A
C1534  C1552   1.486   .     S
C1534  O1569   1.306   .     A
C1534  O1568   1.306   .     A
C1535  N1562   1.379   .     A
C1535  C1573   1.515   .     S
C1536  N1561   1.379   .     A
C1536  C1577   1.516   .     S
C1536  C997    1.429   1_565 S
C1537  N1562   1.379   .     A
C1537  C1581   1.516   .     S
C1538  C1585   1.515   .     S
C1538  N1561   1.379   .     A
C1538  C995    1.429   1_565 S
C1539  C1556   1.410   .     A
C1539  C1605   1.513   .     S
C1540  C1555   1.407   .     A
C1540  C1609   1.514   .     S
C1540  C1362   1.389   1_655 S
C1541  C1555   1.407   .     A
C1541  C1613   1.514   .     S
C1541  C1359   1.389   1_655 S
C1542  C1556   1.410   .     A
C1542  C1617   1.513   .     S
C1543  C1553   1.405   .     A
C1543  C1547   1.389   .     A
C1543  H1557   1.076   .     S
C1544  H1558   1.077   .     S
C1544  C1548   1.390   .     A
C1544  C1554   1.398   .     A
C1545  C1549   1.390   .     A
C1545  H1559   1.077   .     S
C1545  C1554   1.398   .     A
C1546  H1560   1.076   .     S
C1546  C1550   1.389   .     A
C1546  C1553   1.405   .     A
C1547  C1551   1.417   .     A
C1547  C1589   1.510   .     S
C1548  C1593   1.509   .     S
C1548  C1552   1.426   .     A
C1549  C1597   1.509   .     S
C1549  C1552   1.426   .     A
C1550  C1601   1.510   .     S
C1550  C1551   1.417   .     A
C1554  C743    1.489   1_556 S
N1561  Zn1571  2.030   .     S
N1562  Zn1572  2.030   .     S
O1563  Zn1571  1.992   .     S
O1564  Zn1572  1.992   .     S
O1565  Zn1571  1.993   .     S
O1566  Zn1572  1.993   .     S
O1567  Zn1571  2.017   .     S
O1568  Zn1572  2.017   .     S
O1569  Zn1571  2.018   .     S
O1570  Zn1572  2.018   .     S
C1573  H1574   1.085   .     S
C1573  H1575   1.105   .     S
C1573  H1576   1.105   .     S
C1577  H1579   1.105   .     S
C1577  H1580   1.106   .     S
C1577  H1578   1.085   .     S
C1581  H1582   1.085   .     S
C1581  H1584   1.105   .     S
C1581  H1583   1.106   .     S
C1585  H1586   1.085   .     S
C1585  H1587   1.105   .     S
C1585  H1588   1.105   .     S
C1589  H1590   1.099   .     S
C1589  H1591   1.106   .     S
C1589  H1592   1.111   .     S
C1593  H1595   1.111   .     S
C1593  H1596   1.104   .     S
C1593  H1594   1.100   .     S
C1597  H1598   1.100   .     S
C1597  H1599   1.104   .     S
C1597  H1600   1.111   .     S
C1601  H1603   1.111   .     S
C1601  H1604   1.106   .     S
C1601  H1602   1.099   .     S
C1605  H1606   1.103   .     S
C1605  H1607   1.102   .     S
C1605  H1608   1.111   .     S
C1609  H1610   1.103   .     S
C1609  H1612   1.104   .     S
C1609  H1611   1.111   .     S
C1613  H1614   1.103   .     S
C1613  H1615   1.104   .     S
C1613  H1616   1.111   .     S
C1617  H1619   1.111   .     S
C1617  H1618   1.103   .     S
C1617  H1620   1.102   .     S
