data_str_m3_o2_o5_pcu_sym.10
_audit_creation_date              2020-01-03
_audit_creation_method            'Materials Studio'
_symmetry_space_group_name_H-M    'P1'
_symmetry_Int_Tables_number       1
_symmetry_cell_setting            triclinic
loop_
_symmetry_equiv_pos_as_xyz
  x,y,z
_cell_length_a                    29.9213
_cell_length_b                    28.3841
_cell_length_c                    26.7240
_cell_angle_alpha                 90.0005
_cell_angle_beta                  90.0330
_cell_angle_gamma                 90.0005
loop_
_atom_site_label
_atom_site_type_symbol
_atom_site_fract_x
_atom_site_fract_y
_atom_site_fract_z
_atom_site_U_iso_or_equiv
_atom_site_adp_type
_atom_site_occupancy
C1     C     0.16410   0.25000   0.16666   0.00000  Uiso   1.00
C2     C     0.22836   0.44734   0.12870   0.00000  Uiso   1.00
C3     C     0.24999   0.25000   0.07286   0.00000  Uiso   1.00
C4     C     0.25001   0.25000   0.26047   0.00000  Uiso   1.00
C5     C     0.25000   0.02667   0.16667   0.00000  Uiso   1.00
C6     C     0.25000   0.47330   0.16667   0.00000  Uiso   1.00
C7     C     0.24999   0.25001   0.02179   0.00000  Uiso   1.00
C8     C     0.25001   0.25001   0.31154   0.00000  Uiso   1.00
C9     C     0.04690   0.26930   0.12596   0.00000  Uiso   1.00
C10    C     0.45308   0.23069   0.12602   0.00000  Uiso   1.00
C11    C     0.45311   0.26941   0.20732   0.00000  Uiso   1.00
C12    C     0.33590   0.25000   0.16667   0.00000  Uiso   1.00
C13    C     0.04693   0.23080   0.20737   0.00000  Uiso   1.00
C14    C     0.09314   0.26952   0.12572   0.00000  Uiso   1.00
C15    C     0.40684   0.23043   0.12578   0.00000  Uiso   1.00
C16    C     0.40686   0.26963   0.20756   0.00000  Uiso   1.00
C17    C     0.09317   0.23054   0.20761   0.00000  Uiso   1.00
C18    C     0.11622   0.25001   0.16666   0.00000  Uiso   1.00
C19    C     0.38378   0.25001   0.16668   0.00000  Uiso   1.00
C20    C     0.02406   0.25006   0.16667   0.00000  Uiso   1.00
C21    C     0.47595   0.25006   0.16667   0.00000  Uiso   1.00
C22    C     0.11620   0.28881   0.08279   0.00000  Uiso   1.00
C23    C     0.21476   0.10221   0.14677   0.00000  Uiso   1.00
C24    C     0.38377   0.21109   0.08286   0.00000  Uiso   1.00
C25    C     0.38381   0.28905   0.25043   0.00000  Uiso   1.00
C26    C     0.11624   0.21132   0.25059   0.00000  Uiso   1.00
C27    C     0.27136   0.39776   0.20384   0.00000  Uiso   1.00
C28    C     0.28524   0.10221   0.18656   0.00000  Uiso   1.00
C29    C     0.22865   0.39776   0.12950   0.00000  Uiso   1.00
C30    C     0.21402   0.05262   0.14654   0.00000  Uiso   1.00
C31    C     0.27164   0.44735   0.20464   0.00000  Uiso   1.00
C32    C     0.28598   0.05262   0.18680   0.00000  Uiso   1.00
H33    H     0.18691   0.12149   0.13109   0.00000  Uiso   1.00
H34    H     0.28822   0.46505   0.23531   0.00000  Uiso   1.00
H35    H     0.31495   0.03491   0.20206   0.00000  Uiso   1.00
H36    H     0.21178   0.46505   0.09802   0.00000  Uiso   1.00
H37    H     0.28818   0.37842   0.23320   0.00000  Uiso   1.00
H38    H     0.31309   0.12149   0.20225   0.00000  Uiso   1.00
H39    H     0.21182   0.37841   0.10013   0.00000  Uiso   1.00
H40    H     0.02859   0.28429   0.09472   0.00000  Uiso   1.00
H41    H     0.47137   0.21564   0.09482   0.00000  Uiso   1.00
H42    H     0.47142   0.28449   0.23851   0.00000  Uiso   1.00
H43    H     0.02864   0.21584   0.23862   0.00000  Uiso   1.00
H44    H     0.18505   0.03491   0.13127   0.00000  Uiso   1.00
N45    N     0.25000   0.12623   0.16667   0.00000  Uiso   1.00
N46    N     0.25000   0.37376   0.16667   0.00000  Uiso   1.00
N47    N     0.13468   0.30421   0.04845   0.00000  Uiso   1.00
N48    N     0.36527   0.19567   0.04851   0.00000  Uiso   1.00
N49    N     0.36533   0.30453   0.28472   0.00000  Uiso   1.00
N50    N     0.13473   0.19599   0.28499   0.00000  Uiso   1.00
O51    O     0.18453   0.28974   0.16667   0.00000  Uiso   1.00
O52    O     0.31547   0.21026   0.16666   0.00000  Uiso   1.00
O53    O     0.31547   0.28974   0.16666   0.00000  Uiso   1.00
O54    O     0.18453   0.21026   0.16667   0.00000  Uiso   1.00
O55    O     0.25000   0.28973   0.09511   0.00000  Uiso   1.00
O56    O     0.25000   0.21027   0.23822   0.00000  Uiso   1.00
O57    O     0.25000   0.28973   0.23822   0.00000  Uiso   1.00
O58    O     0.25000   0.21027   0.09511   0.00000  Uiso   1.00
Zn59   Zn    0.25000   0.30307   0.16667   0.00000  Uiso   1.00
Zn60   Zn    0.25000   0.19693   0.16667   0.00000  Uiso   1.00
C61    C     0.66410   0.25000   0.16666   0.00000  Uiso   1.00
C62    C     0.72836   0.44734   0.12870   0.00000  Uiso   1.00
C63    C     0.74999   0.25000   0.07286   0.00000  Uiso   1.00
C64    C     0.75001   0.25000   0.26047   0.00000  Uiso   1.00
C65    C     0.75000   0.02667   0.16667   0.00000  Uiso   1.00
C66    C     0.75000   0.47330   0.16667   0.00000  Uiso   1.00
C67    C     0.74999   0.25001   0.02179   0.00000  Uiso   1.00
C68    C     0.75001   0.25001   0.31154   0.00000  Uiso   1.00
C69    C     0.54690   0.26930   0.12596   0.00000  Uiso   1.00
C70    C     0.95308   0.23069   0.12602   0.00000  Uiso   1.00
C71    C     0.95311   0.26941   0.20732   0.00000  Uiso   1.00
C72    C     0.83590   0.25000   0.16667   0.00000  Uiso   1.00
C73    C     0.54693   0.23080   0.20737   0.00000  Uiso   1.00
C74    C     0.59314   0.26952   0.12572   0.00000  Uiso   1.00
C75    C     0.90684   0.23043   0.12578   0.00000  Uiso   1.00
C76    C     0.90686   0.26963   0.20756   0.00000  Uiso   1.00
C77    C     0.59317   0.23054   0.20761   0.00000  Uiso   1.00
C78    C     0.61622   0.25001   0.16666   0.00000  Uiso   1.00
C79    C     0.88378   0.25001   0.16668   0.00000  Uiso   1.00
C80    C     0.52406   0.25006   0.16667   0.00000  Uiso   1.00
C81    C     0.97595   0.25006   0.16667   0.00000  Uiso   1.00
C82    C     0.61620   0.28881   0.08279   0.00000  Uiso   1.00
C83    C     0.71476   0.10221   0.14677   0.00000  Uiso   1.00
C84    C     0.88377   0.21109   0.08286   0.00000  Uiso   1.00
C85    C     0.88381   0.28905   0.25043   0.00000  Uiso   1.00
C86    C     0.61624   0.21132   0.25059   0.00000  Uiso   1.00
C87    C     0.77136   0.39776   0.20384   0.00000  Uiso   1.00
C88    C     0.78524   0.10221   0.18656   0.00000  Uiso   1.00
C89    C     0.72865   0.39776   0.12950   0.00000  Uiso   1.00
C90    C     0.71402   0.05262   0.14654   0.00000  Uiso   1.00
C91    C     0.77164   0.44735   0.20464   0.00000  Uiso   1.00
C92    C     0.78598   0.05262   0.18680   0.00000  Uiso   1.00
H93    H     0.68691   0.12149   0.13109   0.00000  Uiso   1.00
H94    H     0.78822   0.46505   0.23531   0.00000  Uiso   1.00
H95    H     0.81495   0.03491   0.20206   0.00000  Uiso   1.00
H96    H     0.71178   0.46505   0.09802   0.00000  Uiso   1.00
H97    H     0.78818   0.37842   0.23320   0.00000  Uiso   1.00
H98    H     0.81309   0.12149   0.20225   0.00000  Uiso   1.00
H99    H     0.71182   0.37841   0.10013   0.00000  Uiso   1.00
H100   H     0.52859   0.28429   0.09472   0.00000  Uiso   1.00
H101   H     0.97137   0.21564   0.09482   0.00000  Uiso   1.00
H102   H     0.97142   0.28449   0.23851   0.00000  Uiso   1.00
H103   H     0.52864   0.21584   0.23862   0.00000  Uiso   1.00
H104   H     0.68505   0.03491   0.13127   0.00000  Uiso   1.00
N105   N     0.75000   0.12623   0.16667   0.00000  Uiso   1.00
N106   N     0.75000   0.37376   0.16667   0.00000  Uiso   1.00
N107   N     0.63468   0.30421   0.04845   0.00000  Uiso   1.00
N108   N     0.86527   0.19567   0.04851   0.00000  Uiso   1.00
N109   N     0.86533   0.30453   0.28472   0.00000  Uiso   1.00
N110   N     0.63473   0.19599   0.28499   0.00000  Uiso   1.00
O111   O     0.68453   0.28974   0.16667   0.00000  Uiso   1.00
O112   O     0.81547   0.21026   0.16666   0.00000  Uiso   1.00
O113   O     0.81547   0.28974   0.16666   0.00000  Uiso   1.00
O114   O     0.68453   0.21026   0.16667   0.00000  Uiso   1.00
O115   O     0.75000   0.28973   0.09511   0.00000  Uiso   1.00
O116   O     0.75000   0.21027   0.23822   0.00000  Uiso   1.00
O117   O     0.75000   0.28973   0.23822   0.00000  Uiso   1.00
O118   O     0.75000   0.21027   0.09511   0.00000  Uiso   1.00
Zn119  Zn    0.75000   0.30307   0.16667   0.00000  Uiso   1.00
Zn120  Zn    0.75000   0.19693   0.16667   0.00000  Uiso   1.00
C121   C     0.16410   0.75000   0.16666   0.00000  Uiso   1.00
C122   C     0.22836   0.94734   0.12870   0.00000  Uiso   1.00
C123   C     0.24999   0.75000   0.07286   0.00000  Uiso   1.00
C124   C     0.25001   0.75000   0.26047   0.00000  Uiso   1.00
C125   C     0.25000   0.52667   0.16667   0.00000  Uiso   1.00
C126   C     0.25000   0.97330   0.16667   0.00000  Uiso   1.00
C127   C     0.24999   0.75001   0.02179   0.00000  Uiso   1.00
C128   C     0.25001   0.75001   0.31154   0.00000  Uiso   1.00
C129   C     0.04690   0.76930   0.12596   0.00000  Uiso   1.00
C130   C     0.45308   0.73069   0.12602   0.00000  Uiso   1.00
C131   C     0.45311   0.76941   0.20732   0.00000  Uiso   1.00
C132   C     0.33590   0.75000   0.16667   0.00000  Uiso   1.00
C133   C     0.04693   0.73080   0.20737   0.00000  Uiso   1.00
C134   C     0.09314   0.76952   0.12572   0.00000  Uiso   1.00
C135   C     0.40684   0.73043   0.12578   0.00000  Uiso   1.00
C136   C     0.40686   0.76963   0.20756   0.00000  Uiso   1.00
C137   C     0.09317   0.73054   0.20761   0.00000  Uiso   1.00
C138   C     0.11622   0.75001   0.16666   0.00000  Uiso   1.00
C139   C     0.38378   0.75001   0.16668   0.00000  Uiso   1.00
C140   C     0.02406   0.75006   0.16667   0.00000  Uiso   1.00
C141   C     0.47595   0.75006   0.16667   0.00000  Uiso   1.00
C142   C     0.11620   0.78881   0.08279   0.00000  Uiso   1.00
C143   C     0.21476   0.60221   0.14677   0.00000  Uiso   1.00
C144   C     0.38377   0.71109   0.08286   0.00000  Uiso   1.00
C145   C     0.38381   0.78905   0.25043   0.00000  Uiso   1.00
C146   C     0.11624   0.71132   0.25059   0.00000  Uiso   1.00
C147   C     0.27136   0.89776   0.20384   0.00000  Uiso   1.00
C148   C     0.28524   0.60221   0.18656   0.00000  Uiso   1.00
C149   C     0.22865   0.89776   0.12950   0.00000  Uiso   1.00
C150   C     0.21402   0.55262   0.14654   0.00000  Uiso   1.00
C151   C     0.27164   0.94735   0.20464   0.00000  Uiso   1.00
C152   C     0.28598   0.55262   0.18680   0.00000  Uiso   1.00
H153   H     0.18691   0.62149   0.13109   0.00000  Uiso   1.00
H154   H     0.28822   0.96505   0.23531   0.00000  Uiso   1.00
H155   H     0.31495   0.53491   0.20206   0.00000  Uiso   1.00
H156   H     0.21178   0.96505   0.09802   0.00000  Uiso   1.00
H157   H     0.28818   0.87842   0.23320   0.00000  Uiso   1.00
H158   H     0.31309   0.62149   0.20225   0.00000  Uiso   1.00
H159   H     0.21182   0.87841   0.10013   0.00000  Uiso   1.00
H160   H     0.02859   0.78429   0.09472   0.00000  Uiso   1.00
H161   H     0.47137   0.71564   0.09482   0.00000  Uiso   1.00
H162   H     0.47142   0.78449   0.23851   0.00000  Uiso   1.00
H163   H     0.02864   0.71584   0.23862   0.00000  Uiso   1.00
H164   H     0.18505   0.53491   0.13127   0.00000  Uiso   1.00
N165   N     0.25000   0.62623   0.16667   0.00000  Uiso   1.00
N166   N     0.25000   0.87376   0.16667   0.00000  Uiso   1.00
N167   N     0.13468   0.80421   0.04845   0.00000  Uiso   1.00
N168   N     0.36527   0.69567   0.04851   0.00000  Uiso   1.00
N169   N     0.36533   0.80453   0.28472   0.00000  Uiso   1.00
N170   N     0.13473   0.69599   0.28499   0.00000  Uiso   1.00
O171   O     0.18453   0.78974   0.16667   0.00000  Uiso   1.00
O172   O     0.31547   0.71026   0.16666   0.00000  Uiso   1.00
O173   O     0.31547   0.78974   0.16666   0.00000  Uiso   1.00
O174   O     0.18453   0.71026   0.16667   0.00000  Uiso   1.00
O175   O     0.25000   0.78973   0.09511   0.00000  Uiso   1.00
O176   O     0.25000   0.71027   0.23822   0.00000  Uiso   1.00
O177   O     0.25000   0.78973   0.23822   0.00000  Uiso   1.00
O178   O     0.25000   0.71027   0.09511   0.00000  Uiso   1.00
Zn179  Zn    0.25000   0.80307   0.16667   0.00000  Uiso   1.00
Zn180  Zn    0.25000   0.69693   0.16667   0.00000  Uiso   1.00
C181   C     0.66410   0.75000   0.16666   0.00000  Uiso   1.00
C182   C     0.72836   0.94734   0.12870   0.00000  Uiso   1.00
C183   C     0.74999   0.75000   0.07286   0.00000  Uiso   1.00
C184   C     0.75001   0.75000   0.26047   0.00000  Uiso   1.00
C185   C     0.75000   0.52667   0.16667   0.00000  Uiso   1.00
C186   C     0.75000   0.97330   0.16667   0.00000  Uiso   1.00
C187   C     0.74999   0.75001   0.02179   0.00000  Uiso   1.00
C188   C     0.75001   0.75001   0.31154   0.00000  Uiso   1.00
C189   C     0.54690   0.76930   0.12596   0.00000  Uiso   1.00
C190   C     0.95308   0.73069   0.12602   0.00000  Uiso   1.00
C191   C     0.95311   0.76941   0.20732   0.00000  Uiso   1.00
C192   C     0.83590   0.75000   0.16667   0.00000  Uiso   1.00
C193   C     0.54693   0.73080   0.20737   0.00000  Uiso   1.00
C194   C     0.59314   0.76952   0.12572   0.00000  Uiso   1.00
C195   C     0.90684   0.73043   0.12578   0.00000  Uiso   1.00
C196   C     0.90686   0.76963   0.20756   0.00000  Uiso   1.00
C197   C     0.59317   0.73054   0.20761   0.00000  Uiso   1.00
C198   C     0.61622   0.75001   0.16666   0.00000  Uiso   1.00
C199   C     0.88378   0.75001   0.16668   0.00000  Uiso   1.00
C200   C     0.52406   0.75006   0.16667   0.00000  Uiso   1.00
C201   C     0.97595   0.75006   0.16667   0.00000  Uiso   1.00
C202   C     0.61620   0.78881   0.08279   0.00000  Uiso   1.00
C203   C     0.71476   0.60221   0.14677   0.00000  Uiso   1.00
C204   C     0.88377   0.71109   0.08286   0.00000  Uiso   1.00
C205   C     0.88381   0.78905   0.25043   0.00000  Uiso   1.00
C206   C     0.61624   0.71132   0.25059   0.00000  Uiso   1.00
C207   C     0.77136   0.89776   0.20384   0.00000  Uiso   1.00
C208   C     0.78524   0.60221   0.18656   0.00000  Uiso   1.00
C209   C     0.72865   0.89776   0.12950   0.00000  Uiso   1.00
C210   C     0.71402   0.55262   0.14654   0.00000  Uiso   1.00
C211   C     0.77164   0.94735   0.20464   0.00000  Uiso   1.00
C212   C     0.78598   0.55262   0.18680   0.00000  Uiso   1.00
H213   H     0.68691   0.62149   0.13109   0.00000  Uiso   1.00
H214   H     0.78822   0.96505   0.23531   0.00000  Uiso   1.00
H215   H     0.81495   0.53491   0.20206   0.00000  Uiso   1.00
H216   H     0.71178   0.96505   0.09802   0.00000  Uiso   1.00
H217   H     0.78818   0.87842   0.23320   0.00000  Uiso   1.00
H218   H     0.81309   0.62149   0.20225   0.00000  Uiso   1.00
H219   H     0.71182   0.87841   0.10013   0.00000  Uiso   1.00
H220   H     0.52859   0.78429   0.09472   0.00000  Uiso   1.00
H221   H     0.97137   0.71564   0.09482   0.00000  Uiso   1.00
H222   H     0.97142   0.78449   0.23851   0.00000  Uiso   1.00
H223   H     0.52864   0.71584   0.23862   0.00000  Uiso   1.00
H224   H     0.68505   0.53491   0.13127   0.00000  Uiso   1.00
N225   N     0.75000   0.62623   0.16667   0.00000  Uiso   1.00
N226   N     0.75000   0.87376   0.16667   0.00000  Uiso   1.00
N227   N     0.63468   0.80421   0.04845   0.00000  Uiso   1.00
N228   N     0.86527   0.69567   0.04851   0.00000  Uiso   1.00
N229   N     0.86533   0.80453   0.28472   0.00000  Uiso   1.00
N230   N     0.63473   0.69599   0.28499   0.00000  Uiso   1.00
O231   O     0.68453   0.78974   0.16667   0.00000  Uiso   1.00
O232   O     0.81547   0.71026   0.16666   0.00000  Uiso   1.00
O233   O     0.81547   0.78974   0.16666   0.00000  Uiso   1.00
O234   O     0.68453   0.71026   0.16667   0.00000  Uiso   1.00
O235   O     0.75000   0.78973   0.09511   0.00000  Uiso   1.00
O236   O     0.75000   0.71027   0.23822   0.00000  Uiso   1.00
O237   O     0.75000   0.78973   0.23822   0.00000  Uiso   1.00
O238   O     0.75000   0.71027   0.09511   0.00000  Uiso   1.00
Zn239  Zn    0.75000   0.80307   0.16667   0.00000  Uiso   1.00
Zn240  Zn    0.75000   0.69693   0.16667   0.00000  Uiso   1.00
C241   C     0.16410   0.25000   0.50000   0.00000  Uiso   1.00
C242   C     0.22836   0.44734   0.46203   0.00000  Uiso   1.00
C243   C     0.24999   0.25000   0.40619   0.00000  Uiso   1.00
C244   C     0.25001   0.25000   0.59381   0.00000  Uiso   1.00
C245   C     0.25000   0.02667   0.50000   0.00000  Uiso   1.00
C246   C     0.25000   0.47330   0.50000   0.00000  Uiso   1.00
C247   C     0.24999   0.25001   0.35512   0.00000  Uiso   1.00
C248   C     0.25001   0.25001   0.64488   0.00000  Uiso   1.00
C249   C     0.04690   0.26930   0.45929   0.00000  Uiso   1.00
C250   C     0.45308   0.23069   0.45935   0.00000  Uiso   1.00
C251   C     0.45311   0.26941   0.54065   0.00000  Uiso   1.00
C252   C     0.33590   0.25000   0.50000   0.00000  Uiso   1.00
C253   C     0.04693   0.23080   0.54071   0.00000  Uiso   1.00
C254   C     0.09314   0.26952   0.45905   0.00000  Uiso   1.00
C255   C     0.40684   0.23043   0.45912   0.00000  Uiso   1.00
C256   C     0.40686   0.26963   0.54089   0.00000  Uiso   1.00
C257   C     0.09317   0.23054   0.54094   0.00000  Uiso   1.00
C258   C     0.11622   0.25001   0.49999   0.00000  Uiso   1.00
C259   C     0.38378   0.25001   0.50001   0.00000  Uiso   1.00
C260   C     0.02406   0.25006   0.50000   0.00000  Uiso   1.00
C261   C     0.47595   0.25006   0.50000   0.00000  Uiso   1.00
C262   C     0.11620   0.28881   0.41612   0.00000  Uiso   1.00
C263   C     0.21476   0.10221   0.48011   0.00000  Uiso   1.00
C264   C     0.38377   0.21109   0.41619   0.00000  Uiso   1.00
C265   C     0.38381   0.28905   0.58376   0.00000  Uiso   1.00
C266   C     0.11624   0.21132   0.58393   0.00000  Uiso   1.00
C267   C     0.27136   0.39776   0.53717   0.00000  Uiso   1.00
C268   C     0.28524   0.10221   0.51989   0.00000  Uiso   1.00
C269   C     0.22865   0.39776   0.46283   0.00000  Uiso   1.00
C270   C     0.21402   0.05262   0.47987   0.00000  Uiso   1.00
C271   C     0.27164   0.44735   0.53797   0.00000  Uiso   1.00
C272   C     0.28598   0.05262   0.52013   0.00000  Uiso   1.00
H273   H     0.18691   0.12149   0.46442   0.00000  Uiso   1.00
H274   H     0.28822   0.46505   0.56865   0.00000  Uiso   1.00
H275   H     0.31495   0.03491   0.53539   0.00000  Uiso   1.00
H276   H     0.21178   0.46505   0.43135   0.00000  Uiso   1.00
H277   H     0.28818   0.37842   0.56654   0.00000  Uiso   1.00
H278   H     0.31309   0.12149   0.53558   0.00000  Uiso   1.00
H279   H     0.21182   0.37841   0.43346   0.00000  Uiso   1.00
H280   H     0.02859   0.28429   0.42806   0.00000  Uiso   1.00
H281   H     0.47137   0.21564   0.42816   0.00000  Uiso   1.00
H282   H     0.47142   0.28449   0.57184   0.00000  Uiso   1.00
H283   H     0.02864   0.21584   0.57195   0.00000  Uiso   1.00
H284   H     0.18505   0.03491   0.46461   0.00000  Uiso   1.00
N285   N     0.25000   0.12623   0.50000   0.00000  Uiso   1.00
N286   N     0.25000   0.37376   0.50000   0.00000  Uiso   1.00
N287   N     0.13468   0.30421   0.38178   0.00000  Uiso   1.00
N288   N     0.36527   0.19567   0.38185   0.00000  Uiso   1.00
N289   N     0.36533   0.30453   0.61805   0.00000  Uiso   1.00
N290   N     0.13473   0.19599   0.61832   0.00000  Uiso   1.00
O291   O     0.18453   0.28974   0.50000   0.00000  Uiso   1.00
O292   O     0.31547   0.21026   0.50000   0.00000  Uiso   1.00
O293   O     0.31547   0.28974   0.50000   0.00000  Uiso   1.00
O294   O     0.18453   0.21026   0.50000   0.00000  Uiso   1.00
O295   O     0.25000   0.28973   0.42845   0.00000  Uiso   1.00
O296   O     0.25000   0.21027   0.57155   0.00000  Uiso   1.00
O297   O     0.25000   0.28973   0.57155   0.00000  Uiso   1.00
O298   O     0.25000   0.21027   0.42845   0.00000  Uiso   1.00
Zn299  Zn    0.25000   0.30307   0.50000   0.00000  Uiso   1.00
Zn300  Zn    0.25000   0.19693   0.50000   0.00000  Uiso   1.00
C301   C     0.66410   0.25000   0.50000   0.00000  Uiso   1.00
C302   C     0.72836   0.44734   0.46203   0.00000  Uiso   1.00
C303   C     0.74999   0.25000   0.40619   0.00000  Uiso   1.00
C304   C     0.75001   0.25000   0.59381   0.00000  Uiso   1.00
C305   C     0.75000   0.02667   0.50000   0.00000  Uiso   1.00
C306   C     0.75000   0.47330   0.50000   0.00000  Uiso   1.00
C307   C     0.74999   0.25001   0.35512   0.00000  Uiso   1.00
C308   C     0.75001   0.25001   0.64488   0.00000  Uiso   1.00
C309   C     0.54690   0.26930   0.45929   0.00000  Uiso   1.00
C310   C     0.95308   0.23069   0.45935   0.00000  Uiso   1.00
C311   C     0.95311   0.26941   0.54065   0.00000  Uiso   1.00
C312   C     0.83590   0.25000   0.50000   0.00000  Uiso   1.00
C313   C     0.54693   0.23080   0.54071   0.00000  Uiso   1.00
C314   C     0.59314   0.26952   0.45905   0.00000  Uiso   1.00
C315   C     0.90684   0.23043   0.45912   0.00000  Uiso   1.00
C316   C     0.90686   0.26963   0.54089   0.00000  Uiso   1.00
C317   C     0.59317   0.23054   0.54094   0.00000  Uiso   1.00
C318   C     0.61622   0.25001   0.49999   0.00000  Uiso   1.00
C319   C     0.88378   0.25001   0.50001   0.00000  Uiso   1.00
C320   C     0.52406   0.25006   0.50000   0.00000  Uiso   1.00
C321   C     0.97595   0.25006   0.50000   0.00000  Uiso   1.00
C322   C     0.61620   0.28881   0.41612   0.00000  Uiso   1.00
C323   C     0.71476   0.10221   0.48011   0.00000  Uiso   1.00
C324   C     0.88377   0.21109   0.41619   0.00000  Uiso   1.00
C325   C     0.88381   0.28905   0.58376   0.00000  Uiso   1.00
C326   C     0.61624   0.21132   0.58393   0.00000  Uiso   1.00
C327   C     0.77136   0.39776   0.53717   0.00000  Uiso   1.00
C328   C     0.78524   0.10221   0.51989   0.00000  Uiso   1.00
C329   C     0.72865   0.39776   0.46283   0.00000  Uiso   1.00
C330   C     0.71402   0.05262   0.47987   0.00000  Uiso   1.00
C331   C     0.77164   0.44735   0.53797   0.00000  Uiso   1.00
C332   C     0.78598   0.05262   0.52013   0.00000  Uiso   1.00
H333   H     0.68691   0.12149   0.46442   0.00000  Uiso   1.00
H334   H     0.78822   0.46505   0.56865   0.00000  Uiso   1.00
H335   H     0.81495   0.03491   0.53539   0.00000  Uiso   1.00
H336   H     0.71178   0.46505   0.43135   0.00000  Uiso   1.00
H337   H     0.78818   0.37842   0.56654   0.00000  Uiso   1.00
H338   H     0.81309   0.12149   0.53558   0.00000  Uiso   1.00
H339   H     0.71182   0.37841   0.43346   0.00000  Uiso   1.00
H340   H     0.52859   0.28429   0.42806   0.00000  Uiso   1.00
H341   H     0.97137   0.21564   0.42816   0.00000  Uiso   1.00
H342   H     0.97142   0.28449   0.57184   0.00000  Uiso   1.00
H343   H     0.52864   0.21584   0.57195   0.00000  Uiso   1.00
H344   H     0.68505   0.03491   0.46461   0.00000  Uiso   1.00
N345   N     0.75000   0.12623   0.50000   0.00000  Uiso   1.00
N346   N     0.75000   0.37376   0.50000   0.00000  Uiso   1.00
N347   N     0.63468   0.30421   0.38178   0.00000  Uiso   1.00
N348   N     0.86527   0.19567   0.38185   0.00000  Uiso   1.00
N349   N     0.86533   0.30453   0.61805   0.00000  Uiso   1.00
N350   N     0.63473   0.19599   0.61832   0.00000  Uiso   1.00
O351   O     0.68453   0.28974   0.50000   0.00000  Uiso   1.00
O352   O     0.81547   0.21026   0.50000   0.00000  Uiso   1.00
O353   O     0.81547   0.28974   0.50000   0.00000  Uiso   1.00
O354   O     0.68453   0.21026   0.50000   0.00000  Uiso   1.00
O355   O     0.75000   0.28973   0.42845   0.00000  Uiso   1.00
O356   O     0.75000   0.21027   0.57155   0.00000  Uiso   1.00
O357   O     0.75000   0.28973   0.57155   0.00000  Uiso   1.00
O358   O     0.75000   0.21027   0.42845   0.00000  Uiso   1.00
Zn359  Zn    0.75000   0.30307   0.50000   0.00000  Uiso   1.00
Zn360  Zn    0.75000   0.19693   0.50000   0.00000  Uiso   1.00
C361   C     0.16410   0.75000   0.50000   0.00000  Uiso   1.00
C362   C     0.22836   0.94734   0.46203   0.00000  Uiso   1.00
C363   C     0.24999   0.75000   0.40619   0.00000  Uiso   1.00
C364   C     0.25001   0.75000   0.59381   0.00000  Uiso   1.00
C365   C     0.25000   0.52667   0.50000   0.00000  Uiso   1.00
C366   C     0.25000   0.97330   0.50000   0.00000  Uiso   1.00
C367   C     0.24999   0.75001   0.35512   0.00000  Uiso   1.00
C368   C     0.25001   0.75001   0.64488   0.00000  Uiso   1.00
C369   C     0.04690   0.76930   0.45929   0.00000  Uiso   1.00
C370   C     0.45308   0.73069   0.45935   0.00000  Uiso   1.00
C371   C     0.45311   0.76941   0.54065   0.00000  Uiso   1.00
C372   C     0.33590   0.75000   0.50000   0.00000  Uiso   1.00
C373   C     0.04693   0.73080   0.54071   0.00000  Uiso   1.00
C374   C     0.09314   0.76952   0.45905   0.00000  Uiso   1.00
C375   C     0.40684   0.73043   0.45912   0.00000  Uiso   1.00
C376   C     0.40686   0.76963   0.54089   0.00000  Uiso   1.00
C377   C     0.09317   0.73054   0.54094   0.00000  Uiso   1.00
C378   C     0.11622   0.75001   0.49999   0.00000  Uiso   1.00
C379   C     0.38378   0.75001   0.50001   0.00000  Uiso   1.00
C380   C     0.02406   0.75006   0.50000   0.00000  Uiso   1.00
C381   C     0.47595   0.75006   0.50000   0.00000  Uiso   1.00
C382   C     0.11620   0.78881   0.41612   0.00000  Uiso   1.00
C383   C     0.21476   0.60221   0.48011   0.00000  Uiso   1.00
C384   C     0.38377   0.71109   0.41619   0.00000  Uiso   1.00
C385   C     0.38381   0.78905   0.58376   0.00000  Uiso   1.00
C386   C     0.11624   0.71132   0.58393   0.00000  Uiso   1.00
C387   C     0.27136   0.89776   0.53717   0.00000  Uiso   1.00
C388   C     0.28524   0.60221   0.51989   0.00000  Uiso   1.00
C389   C     0.22865   0.89776   0.46283   0.00000  Uiso   1.00
C390   C     0.21402   0.55262   0.47987   0.00000  Uiso   1.00
C391   C     0.27164   0.94735   0.53797   0.00000  Uiso   1.00
C392   C     0.28598   0.55262   0.52013   0.00000  Uiso   1.00
H393   H     0.18691   0.62149   0.46442   0.00000  Uiso   1.00
H394   H     0.28822   0.96505   0.56865   0.00000  Uiso   1.00
H395   H     0.31495   0.53491   0.53539   0.00000  Uiso   1.00
H396   H     0.21178   0.96505   0.43135   0.00000  Uiso   1.00
H397   H     0.28818   0.87842   0.56654   0.00000  Uiso   1.00
H398   H     0.31309   0.62149   0.53558   0.00000  Uiso   1.00
H399   H     0.21182   0.87841   0.43346   0.00000  Uiso   1.00
H400   H     0.02859   0.78429   0.42806   0.00000  Uiso   1.00
H401   H     0.47137   0.71564   0.42816   0.00000  Uiso   1.00
H402   H     0.47142   0.78449   0.57184   0.00000  Uiso   1.00
H403   H     0.02864   0.71584   0.57195   0.00000  Uiso   1.00
H404   H     0.18505   0.53491   0.46461   0.00000  Uiso   1.00
N405   N     0.25000   0.62623   0.50000   0.00000  Uiso   1.00
N406   N     0.25000   0.87376   0.50000   0.00000  Uiso   1.00
N407   N     0.13468   0.80421   0.38178   0.00000  Uiso   1.00
N408   N     0.36527   0.69567   0.38185   0.00000  Uiso   1.00
N409   N     0.36533   0.80453   0.61805   0.00000  Uiso   1.00
N410   N     0.13473   0.69599   0.61832   0.00000  Uiso   1.00
O411   O     0.18453   0.78974   0.50000   0.00000  Uiso   1.00
O412   O     0.31547   0.71026   0.50000   0.00000  Uiso   1.00
O413   O     0.31547   0.78974   0.50000   0.00000  Uiso   1.00
O414   O     0.18453   0.71026   0.50000   0.00000  Uiso   1.00
O415   O     0.25000   0.78973   0.42845   0.00000  Uiso   1.00
O416   O     0.25000   0.71027   0.57155   0.00000  Uiso   1.00
O417   O     0.25000   0.78973   0.57155   0.00000  Uiso   1.00
O418   O     0.25000   0.71027   0.42845   0.00000  Uiso   1.00
Zn419  Zn    0.25000   0.80307   0.50000   0.00000  Uiso   1.00
Zn420  Zn    0.25000   0.69693   0.50000   0.00000  Uiso   1.00
C421   C     0.66410   0.75000   0.50000   0.00000  Uiso   1.00
C422   C     0.72836   0.94734   0.46203   0.00000  Uiso   1.00
C423   C     0.74999   0.75000   0.40619   0.00000  Uiso   1.00
C424   C     0.75001   0.75000   0.59381   0.00000  Uiso   1.00
C425   C     0.75000   0.52667   0.50000   0.00000  Uiso   1.00
C426   C     0.75000   0.97330   0.50000   0.00000  Uiso   1.00
C427   C     0.74999   0.75001   0.35512   0.00000  Uiso   1.00
C428   C     0.75001   0.75001   0.64488   0.00000  Uiso   1.00
C429   C     0.54690   0.76930   0.45929   0.00000  Uiso   1.00
C430   C     0.95308   0.73069   0.45935   0.00000  Uiso   1.00
C431   C     0.95311   0.76941   0.54065   0.00000  Uiso   1.00
C432   C     0.83590   0.75000   0.50000   0.00000  Uiso   1.00
C433   C     0.54693   0.73080   0.54071   0.00000  Uiso   1.00
C434   C     0.59314   0.76952   0.45905   0.00000  Uiso   1.00
C435   C     0.90684   0.73043   0.45912   0.00000  Uiso   1.00
C436   C     0.90686   0.76963   0.54089   0.00000  Uiso   1.00
C437   C     0.59317   0.73054   0.54094   0.00000  Uiso   1.00
C438   C     0.61622   0.75001   0.49999   0.00000  Uiso   1.00
C439   C     0.88378   0.75001   0.50001   0.00000  Uiso   1.00
C440   C     0.52406   0.75006   0.50000   0.00000  Uiso   1.00
C441   C     0.97595   0.75006   0.50000   0.00000  Uiso   1.00
C442   C     0.61620   0.78881   0.41612   0.00000  Uiso   1.00
C443   C     0.71476   0.60221   0.48011   0.00000  Uiso   1.00
C444   C     0.88377   0.71109   0.41619   0.00000  Uiso   1.00
C445   C     0.88381   0.78905   0.58376   0.00000  Uiso   1.00
C446   C     0.61624   0.71132   0.58393   0.00000  Uiso   1.00
C447   C     0.77136   0.89776   0.53717   0.00000  Uiso   1.00
C448   C     0.78524   0.60221   0.51989   0.00000  Uiso   1.00
C449   C     0.72865   0.89776   0.46283   0.00000  Uiso   1.00
C450   C     0.71402   0.55262   0.47987   0.00000  Uiso   1.00
C451   C     0.77164   0.94735   0.53797   0.00000  Uiso   1.00
C452   C     0.78598   0.55262   0.52013   0.00000  Uiso   1.00
H453   H     0.68691   0.62149   0.46442   0.00000  Uiso   1.00
H454   H     0.78822   0.96505   0.56865   0.00000  Uiso   1.00
H455   H     0.81495   0.53491   0.53539   0.00000  Uiso   1.00
H456   H     0.71178   0.96505   0.43135   0.00000  Uiso   1.00
H457   H     0.78818   0.87842   0.56654   0.00000  Uiso   1.00
H458   H     0.81309   0.62149   0.53558   0.00000  Uiso   1.00
H459   H     0.71182   0.87841   0.43346   0.00000  Uiso   1.00
H460   H     0.52859   0.78429   0.42806   0.00000  Uiso   1.00
H461   H     0.97137   0.71564   0.42816   0.00000  Uiso   1.00
H462   H     0.97142   0.78449   0.57184   0.00000  Uiso   1.00
H463   H     0.52864   0.71584   0.57195   0.00000  Uiso   1.00
H464   H     0.68505   0.53491   0.46461   0.00000  Uiso   1.00
N465   N     0.75000   0.62623   0.50000   0.00000  Uiso   1.00
N466   N     0.75000   0.87376   0.50000   0.00000  Uiso   1.00
N467   N     0.63468   0.80421   0.38178   0.00000  Uiso   1.00
N468   N     0.86527   0.69567   0.38185   0.00000  Uiso   1.00
N469   N     0.86533   0.80453   0.61805   0.00000  Uiso   1.00
N470   N     0.63473   0.69599   0.61832   0.00000  Uiso   1.00
O471   O     0.68453   0.78974   0.50000   0.00000  Uiso   1.00
O472   O     0.81547   0.71026   0.50000   0.00000  Uiso   1.00
O473   O     0.81547   0.78974   0.50000   0.00000  Uiso   1.00
O474   O     0.68453   0.71026   0.50000   0.00000  Uiso   1.00
O475   O     0.75000   0.78973   0.42845   0.00000  Uiso   1.00
O476   O     0.75000   0.71027   0.57155   0.00000  Uiso   1.00
O477   O     0.75000   0.78973   0.57155   0.00000  Uiso   1.00
O478   O     0.75000   0.71027   0.42845   0.00000  Uiso   1.00
Zn479  Zn    0.75000   0.80307   0.50000   0.00000  Uiso   1.00
Zn480  Zn    0.75000   0.69693   0.50000   0.00000  Uiso   1.00
C481   C     0.16410   0.25000   0.83333   0.00000  Uiso   1.00
C482   C     0.22836   0.44734   0.79536   0.00000  Uiso   1.00
C483   C     0.24999   0.25000   0.73953   0.00000  Uiso   1.00
C484   C     0.25001   0.25000   0.92714   0.00000  Uiso   1.00
C485   C     0.25000   0.02667   0.83333   0.00000  Uiso   1.00
C486   C     0.25000   0.47330   0.83333   0.00000  Uiso   1.00
C487   C     0.24999   0.25001   0.68846   0.00000  Uiso   1.00
C488   C     0.25001   0.25001   0.97821   0.00000  Uiso   1.00
C489   C     0.04690   0.26930   0.79263   0.00000  Uiso   1.00
C490   C     0.45308   0.23069   0.79269   0.00000  Uiso   1.00
C491   C     0.45311   0.26941   0.87398   0.00000  Uiso   1.00
C492   C     0.33590   0.25000   0.83334   0.00000  Uiso   1.00
C493   C     0.04693   0.23080   0.87404   0.00000  Uiso   1.00
C494   C     0.09314   0.26952   0.79239   0.00000  Uiso   1.00
C495   C     0.40684   0.23043   0.79245   0.00000  Uiso   1.00
C496   C     0.40686   0.26963   0.87422   0.00000  Uiso   1.00
C497   C     0.09317   0.23054   0.87428   0.00000  Uiso   1.00
C498   C     0.11622   0.25001   0.83333   0.00000  Uiso   1.00
C499   C     0.38378   0.25001   0.83334   0.00000  Uiso   1.00
C500   C     0.02406   0.25006   0.83333   0.00000  Uiso   1.00
C501   C     0.47595   0.25006   0.83333   0.00000  Uiso   1.00
C502   C     0.11620   0.28881   0.74945   0.00000  Uiso   1.00
C503   C     0.21476   0.10221   0.81344   0.00000  Uiso   1.00
C504   C     0.38377   0.21109   0.74952   0.00000  Uiso   1.00
C505   C     0.38381   0.28905   0.91709   0.00000  Uiso   1.00
C506   C     0.11624   0.21132   0.91726   0.00000  Uiso   1.00
C507   C     0.27136   0.39776   0.87050   0.00000  Uiso   1.00
C508   C     0.28524   0.10221   0.85323   0.00000  Uiso   1.00
C509   C     0.22865   0.39776   0.79616   0.00000  Uiso   1.00
C510   C     0.21402   0.05262   0.81320   0.00000  Uiso   1.00
C511   C     0.27164   0.44735   0.87130   0.00000  Uiso   1.00
C512   C     0.28598   0.05262   0.85346   0.00000  Uiso   1.00
H513   H     0.18691   0.12149   0.79775   0.00000  Uiso   1.00
H514   H     0.28822   0.46505   0.90198   0.00000  Uiso   1.00
H515   H     0.31495   0.03491   0.86872   0.00000  Uiso   1.00
H516   H     0.21178   0.46505   0.76468   0.00000  Uiso   1.00
H517   H     0.28818   0.37842   0.89987   0.00000  Uiso   1.00
H518   H     0.31309   0.12149   0.86891   0.00000  Uiso   1.00
H519   H     0.21182   0.37841   0.76680   0.00000  Uiso   1.00
H520   H     0.02859   0.28429   0.76139   0.00000  Uiso   1.00
H521   H     0.47137   0.21564   0.76149   0.00000  Uiso   1.00
H522   H     0.47142   0.28449   0.90517   0.00000  Uiso   1.00
H523   H     0.02864   0.21584   0.90528   0.00000  Uiso   1.00
H524   H     0.18505   0.03491   0.79794   0.00000  Uiso   1.00
N525   N     0.25000   0.12623   0.83333   0.00000  Uiso   1.00
N526   N     0.25000   0.37376   0.83333   0.00000  Uiso   1.00
N527   N     0.13468   0.30421   0.71511   0.00000  Uiso   1.00
N528   N     0.36527   0.19567   0.71518   0.00000  Uiso   1.00
N529   N     0.36533   0.30453   0.95139   0.00000  Uiso   1.00
N530   N     0.13473   0.19599   0.95165   0.00000  Uiso   1.00
O531   O     0.18453   0.28974   0.83334   0.00000  Uiso   1.00
O532   O     0.31547   0.21026   0.83333   0.00000  Uiso   1.00
O533   O     0.31547   0.28974   0.83333   0.00000  Uiso   1.00
O534   O     0.18453   0.21026   0.83334   0.00000  Uiso   1.00
O535   O     0.25000   0.28973   0.76178   0.00000  Uiso   1.00
O536   O     0.25000   0.21027   0.90489   0.00000  Uiso   1.00
O537   O     0.25000   0.28973   0.90489   0.00000  Uiso   1.00
O538   O     0.25000   0.21027   0.76178   0.00000  Uiso   1.00
Zn539  Zn    0.25000   0.30307   0.83333   0.00000  Uiso   1.00
Zn540  Zn    0.25000   0.19693   0.83333   0.00000  Uiso   1.00
C541   C     0.66410   0.25000   0.83333   0.00000  Uiso   1.00
C542   C     0.72836   0.44734   0.79536   0.00000  Uiso   1.00
C543   C     0.74999   0.25000   0.73953   0.00000  Uiso   1.00
C544   C     0.75001   0.25000   0.92714   0.00000  Uiso   1.00
C545   C     0.75000   0.02667   0.83333   0.00000  Uiso   1.00
C546   C     0.75000   0.47330   0.83333   0.00000  Uiso   1.00
C547   C     0.74999   0.25001   0.68846   0.00000  Uiso   1.00
C548   C     0.75001   0.25001   0.97821   0.00000  Uiso   1.00
C549   C     0.54690   0.26930   0.79263   0.00000  Uiso   1.00
C550   C     0.95308   0.23069   0.79269   0.00000  Uiso   1.00
C551   C     0.95311   0.26941   0.87398   0.00000  Uiso   1.00
C552   C     0.83590   0.25000   0.83334   0.00000  Uiso   1.00
C553   C     0.54693   0.23080   0.87404   0.00000  Uiso   1.00
C554   C     0.59314   0.26952   0.79239   0.00000  Uiso   1.00
C555   C     0.90684   0.23043   0.79245   0.00000  Uiso   1.00
C556   C     0.90686   0.26963   0.87422   0.00000  Uiso   1.00
C557   C     0.59317   0.23054   0.87428   0.00000  Uiso   1.00
C558   C     0.61622   0.25001   0.83333   0.00000  Uiso   1.00
C559   C     0.88378   0.25001   0.83334   0.00000  Uiso   1.00
C560   C     0.52406   0.25006   0.83333   0.00000  Uiso   1.00
C561   C     0.97595   0.25006   0.83333   0.00000  Uiso   1.00
C562   C     0.61620   0.28881   0.74945   0.00000  Uiso   1.00
C563   C     0.71476   0.10221   0.81344   0.00000  Uiso   1.00
C564   C     0.88377   0.21109   0.74952   0.00000  Uiso   1.00
C565   C     0.88381   0.28905   0.91709   0.00000  Uiso   1.00
C566   C     0.61624   0.21132   0.91726   0.00000  Uiso   1.00
C567   C     0.77136   0.39776   0.87050   0.00000  Uiso   1.00
C568   C     0.78524   0.10221   0.85323   0.00000  Uiso   1.00
C569   C     0.72865   0.39776   0.79616   0.00000  Uiso   1.00
C570   C     0.71402   0.05262   0.81320   0.00000  Uiso   1.00
C571   C     0.77164   0.44735   0.87130   0.00000  Uiso   1.00
C572   C     0.78598   0.05262   0.85346   0.00000  Uiso   1.00
H573   H     0.68691   0.12149   0.79775   0.00000  Uiso   1.00
H574   H     0.78822   0.46505   0.90198   0.00000  Uiso   1.00
H575   H     0.81495   0.03491   0.86872   0.00000  Uiso   1.00
H576   H     0.71178   0.46505   0.76468   0.00000  Uiso   1.00
H577   H     0.78818   0.37842   0.89987   0.00000  Uiso   1.00
H578   H     0.81309   0.12149   0.86891   0.00000  Uiso   1.00
H579   H     0.71182   0.37841   0.76680   0.00000  Uiso   1.00
H580   H     0.52859   0.28429   0.76139   0.00000  Uiso   1.00
H581   H     0.97137   0.21564   0.76149   0.00000  Uiso   1.00
H582   H     0.97142   0.28449   0.90517   0.00000  Uiso   1.00
H583   H     0.52864   0.21584   0.90528   0.00000  Uiso   1.00
H584   H     0.68505   0.03491   0.79794   0.00000  Uiso   1.00
N585   N     0.75000   0.12623   0.83333   0.00000  Uiso   1.00
N586   N     0.75000   0.37376   0.83333   0.00000  Uiso   1.00
N587   N     0.63468   0.30421   0.71511   0.00000  Uiso   1.00
N588   N     0.86527   0.19567   0.71518   0.00000  Uiso   1.00
N589   N     0.86533   0.30453   0.95139   0.00000  Uiso   1.00
N590   N     0.63473   0.19599   0.95165   0.00000  Uiso   1.00
O591   O     0.68453   0.28974   0.83334   0.00000  Uiso   1.00
O592   O     0.81547   0.21026   0.83333   0.00000  Uiso   1.00
O593   O     0.81547   0.28974   0.83333   0.00000  Uiso   1.00
O594   O     0.68453   0.21026   0.83334   0.00000  Uiso   1.00
O595   O     0.75000   0.28973   0.76178   0.00000  Uiso   1.00
O596   O     0.75000   0.21027   0.90489   0.00000  Uiso   1.00
O597   O     0.75000   0.28973   0.90489   0.00000  Uiso   1.00
O598   O     0.75000   0.21027   0.76178   0.00000  Uiso   1.00
Zn599  Zn    0.75000   0.30307   0.83333   0.00000  Uiso   1.00
Zn600  Zn    0.75000   0.19693   0.83333   0.00000  Uiso   1.00
C601   C     0.16410   0.75000   0.83333   0.00000  Uiso   1.00
C602   C     0.22836   0.94734   0.79536   0.00000  Uiso   1.00
C603   C     0.24999   0.75000   0.73953   0.00000  Uiso   1.00
C604   C     0.25001   0.75000   0.92714   0.00000  Uiso   1.00
C605   C     0.25000   0.52667   0.83333   0.00000  Uiso   1.00
C606   C     0.25000   0.97330   0.83333   0.00000  Uiso   1.00
C607   C     0.24999   0.75001   0.68846   0.00000  Uiso   1.00
C608   C     0.25001   0.75001   0.97821   0.00000  Uiso   1.00
C609   C     0.04690   0.76930   0.79263   0.00000  Uiso   1.00
C610   C     0.45308   0.73069   0.79269   0.00000  Uiso   1.00
C611   C     0.45311   0.76941   0.87398   0.00000  Uiso   1.00
C612   C     0.33590   0.75000   0.83334   0.00000  Uiso   1.00
C613   C     0.04693   0.73080   0.87404   0.00000  Uiso   1.00
C614   C     0.09314   0.76952   0.79239   0.00000  Uiso   1.00
C615   C     0.40684   0.73043   0.79245   0.00000  Uiso   1.00
C616   C     0.40686   0.76963   0.87422   0.00000  Uiso   1.00
C617   C     0.09317   0.73054   0.87428   0.00000  Uiso   1.00
C618   C     0.11622   0.75001   0.83333   0.00000  Uiso   1.00
C619   C     0.38378   0.75001   0.83334   0.00000  Uiso   1.00
C620   C     0.02406   0.75006   0.83333   0.00000  Uiso   1.00
C621   C     0.47595   0.75006   0.83333   0.00000  Uiso   1.00
C622   C     0.11620   0.78881   0.74945   0.00000  Uiso   1.00
C623   C     0.21476   0.60221   0.81344   0.00000  Uiso   1.00
C624   C     0.38377   0.71109   0.74952   0.00000  Uiso   1.00
C625   C     0.38381   0.78905   0.91709   0.00000  Uiso   1.00
C626   C     0.11624   0.71132   0.91726   0.00000  Uiso   1.00
C627   C     0.27136   0.89776   0.87050   0.00000  Uiso   1.00
C628   C     0.28524   0.60221   0.85323   0.00000  Uiso   1.00
C629   C     0.22865   0.89776   0.79616   0.00000  Uiso   1.00
C630   C     0.21402   0.55262   0.81320   0.00000  Uiso   1.00
C631   C     0.27164   0.94735   0.87130   0.00000  Uiso   1.00
C632   C     0.28598   0.55262   0.85346   0.00000  Uiso   1.00
H633   H     0.18691   0.62149   0.79775   0.00000  Uiso   1.00
H634   H     0.28822   0.96505   0.90198   0.00000  Uiso   1.00
H635   H     0.31495   0.53491   0.86872   0.00000  Uiso   1.00
H636   H     0.21178   0.96505   0.76468   0.00000  Uiso   1.00
H637   H     0.28818   0.87842   0.89987   0.00000  Uiso   1.00
H638   H     0.31309   0.62149   0.86891   0.00000  Uiso   1.00
H639   H     0.21182   0.87841   0.76680   0.00000  Uiso   1.00
H640   H     0.02859   0.78429   0.76139   0.00000  Uiso   1.00
H641   H     0.47137   0.71564   0.76149   0.00000  Uiso   1.00
H642   H     0.47142   0.78449   0.90517   0.00000  Uiso   1.00
H643   H     0.02864   0.71584   0.90528   0.00000  Uiso   1.00
H644   H     0.18505   0.53491   0.79794   0.00000  Uiso   1.00
N645   N     0.25000   0.62623   0.83333   0.00000  Uiso   1.00
N646   N     0.25000   0.87376   0.83333   0.00000  Uiso   1.00
N647   N     0.13468   0.80421   0.71511   0.00000  Uiso   1.00
N648   N     0.36527   0.69567   0.71518   0.00000  Uiso   1.00
N649   N     0.36533   0.80453   0.95139   0.00000  Uiso   1.00
N650   N     0.13473   0.69599   0.95165   0.00000  Uiso   1.00
O651   O     0.18453   0.78974   0.83334   0.00000  Uiso   1.00
O652   O     0.31547   0.71026   0.83333   0.00000  Uiso   1.00
O653   O     0.31547   0.78974   0.83333   0.00000  Uiso   1.00
O654   O     0.18453   0.71026   0.83334   0.00000  Uiso   1.00
O655   O     0.25000   0.78973   0.76178   0.00000  Uiso   1.00
O656   O     0.25000   0.71027   0.90489   0.00000  Uiso   1.00
O657   O     0.25000   0.78973   0.90489   0.00000  Uiso   1.00
O658   O     0.25000   0.71027   0.76178   0.00000  Uiso   1.00
Zn659  Zn    0.25000   0.80307   0.83333   0.00000  Uiso   1.00
Zn660  Zn    0.25000   0.69693   0.83333   0.00000  Uiso   1.00
C661   C     0.66410   0.75000   0.83333   0.00000  Uiso   1.00
C662   C     0.72836   0.94734   0.79536   0.00000  Uiso   1.00
C663   C     0.74999   0.75000   0.73953   0.00000  Uiso   1.00
C664   C     0.75001   0.75000   0.92714   0.00000  Uiso   1.00
C665   C     0.75000   0.52667   0.83333   0.00000  Uiso   1.00
C666   C     0.75000   0.97330   0.83333   0.00000  Uiso   1.00
C667   C     0.74999   0.75001   0.68846   0.00000  Uiso   1.00
C668   C     0.75001   0.75001   0.97821   0.00000  Uiso   1.00
C669   C     0.54690   0.76930   0.79263   0.00000  Uiso   1.00
C670   C     0.95308   0.73069   0.79269   0.00000  Uiso   1.00
C671   C     0.95311   0.76941   0.87398   0.00000  Uiso   1.00
C672   C     0.83590   0.75000   0.83334   0.00000  Uiso   1.00
C673   C     0.54693   0.73080   0.87404   0.00000  Uiso   1.00
C674   C     0.59314   0.76952   0.79239   0.00000  Uiso   1.00
C675   C     0.90684   0.73043   0.79245   0.00000  Uiso   1.00
C676   C     0.90686   0.76963   0.87422   0.00000  Uiso   1.00
C677   C     0.59317   0.73054   0.87428   0.00000  Uiso   1.00
C678   C     0.61622   0.75001   0.83333   0.00000  Uiso   1.00
C679   C     0.88378   0.75001   0.83334   0.00000  Uiso   1.00
C680   C     0.52406   0.75006   0.83333   0.00000  Uiso   1.00
C681   C     0.97595   0.75006   0.83333   0.00000  Uiso   1.00
C682   C     0.61620   0.78881   0.74945   0.00000  Uiso   1.00
C683   C     0.71476   0.60221   0.81344   0.00000  Uiso   1.00
C684   C     0.88377   0.71109   0.74952   0.00000  Uiso   1.00
C685   C     0.88381   0.78905   0.91709   0.00000  Uiso   1.00
C686   C     0.61624   0.71132   0.91726   0.00000  Uiso   1.00
C687   C     0.77136   0.89776   0.87050   0.00000  Uiso   1.00
C688   C     0.78524   0.60221   0.85323   0.00000  Uiso   1.00
C689   C     0.72865   0.89776   0.79616   0.00000  Uiso   1.00
C690   C     0.71402   0.55262   0.81320   0.00000  Uiso   1.00
C691   C     0.77164   0.94735   0.87130   0.00000  Uiso   1.00
C692   C     0.78598   0.55262   0.85346   0.00000  Uiso   1.00
H693   H     0.68691   0.62149   0.79775   0.00000  Uiso   1.00
H694   H     0.78822   0.96505   0.90198   0.00000  Uiso   1.00
H695   H     0.81495   0.53491   0.86872   0.00000  Uiso   1.00
H696   H     0.71178   0.96505   0.76468   0.00000  Uiso   1.00
H697   H     0.78818   0.87842   0.89987   0.00000  Uiso   1.00
H698   H     0.81309   0.62149   0.86891   0.00000  Uiso   1.00
H699   H     0.71182   0.87841   0.76680   0.00000  Uiso   1.00
H700   H     0.52859   0.78429   0.76139   0.00000  Uiso   1.00
H701   H     0.97137   0.71564   0.76149   0.00000  Uiso   1.00
H702   H     0.97142   0.78449   0.90517   0.00000  Uiso   1.00
H703   H     0.52864   0.71584   0.90528   0.00000  Uiso   1.00
H704   H     0.68505   0.53491   0.79794   0.00000  Uiso   1.00
N705   N     0.75000   0.62623   0.83333   0.00000  Uiso   1.00
N706   N     0.75000   0.87376   0.83333   0.00000  Uiso   1.00
N707   N     0.63468   0.80421   0.71511   0.00000  Uiso   1.00
N708   N     0.86527   0.69567   0.71518   0.00000  Uiso   1.00
N709   N     0.86533   0.80453   0.95139   0.00000  Uiso   1.00
N710   N     0.63473   0.69599   0.95165   0.00000  Uiso   1.00
O711   O     0.68453   0.78974   0.83334   0.00000  Uiso   1.00
O712   O     0.81547   0.71026   0.83333   0.00000  Uiso   1.00
O713   O     0.81547   0.78974   0.83333   0.00000  Uiso   1.00
O714   O     0.68453   0.71026   0.83334   0.00000  Uiso   1.00
O715   O     0.75000   0.78973   0.76178   0.00000  Uiso   1.00
O716   O     0.75000   0.71027   0.90489   0.00000  Uiso   1.00
O717   O     0.75000   0.78973   0.90489   0.00000  Uiso   1.00
O718   O     0.75000   0.71027   0.76178   0.00000  Uiso   1.00
Zn719  Zn    0.75000   0.80307   0.83333   0.00000  Uiso   1.00
Zn720  Zn    0.75000   0.69693   0.83333   0.00000  Uiso   1.00
loop_
_geom_bond_atom_site_label_1
_geom_bond_atom_site_label_2
_geom_bond_distance
_geom_bond_site_symmetry_2
_ccdc_geom_bond_type
C1     O54     1.283   .     A
C1     O51     1.283   .     A
C1     C18     1.433   .     S
C2     C6      1.411   .     A
C2     C29     1.408   .     A
C2     H36     1.082   .     S
C3     O58     1.275   .     A
C3     O55     1.275   .     A
C3     C7      1.365   .     S
C4     O57     1.275   .     A
C4     O56     1.275   .     A
C4     C8      1.365   .     S
C5     C32     1.411   .     A
C5     C30     1.411   .     A
C5     C126    1.515   1_545 S
C6     C31     1.411   .     A
C6     C125    1.515   .     S
C7     C488    1.165   1_554 S
C8     C247    1.165   .     S
C9     C20     1.396   .     A
C9     C14     1.384   .     A
C9     H40     1.085   .     S
C10    H41     1.085   .     S
C10    C15     1.384   .     A
C10    C21     1.396   .     A
C11    C16     1.384   .     A
C11    H42     1.085   .     S
C11    C21     1.396   .     A
C12    O53     1.283   .     A
C12    C19     1.433   .     S
C12    O52     1.283   .     A
C13    C17     1.384   .     A
C13    H43     1.085   .     S
C13    C20     1.396   .     A
C14    C18     1.407   .     A
C14    C22     1.447   .     S
C15    C19     1.407   .     A
C15    C24     1.447   .     S
C16    C19     1.407   .     A
C16    C25     1.447   .     S
C17    C26     1.447   .     S
C17    C18     1.407   .     A
C20    C81     1.440   1_455 S
C21    C80     1.440   .     S
C22    N47     1.157   .     T
C23    N45     1.363   .     A
C23    C30     1.408   .     A
C23    H33     1.081   .     S
C24    N48     1.157   .     T
C25    N49     1.157   .     T
C26    N50     1.157   .     T
C27    H37     1.082   .     S
C27    C31     1.408   .     A
C27    N46     1.363   .     A
C28    H38     1.081   .     S
C28    N45     1.363   .     A
C28    C32     1.408   .     A
C29    N46     1.363   .     A
C29    H39     1.082   .     S
C30    H44     1.082   .     S
C31    H34     1.082   .     S
C32    H35     1.082   .     S
N45    Zn60    2.007   .     S
N46    Zn59    2.007   .     S
O51    Zn59    1.995   .     S
O52    Zn60    1.995   .     S
O53    Zn59    1.995   .     S
O54    Zn60    1.995   .     S
O55    Zn59    1.949   .     S
O56    Zn60    1.949   .     S
O57    Zn59    1.949   .     S
O58    Zn60    1.949   .     S
C61    O114    1.283   .     A
C61    O111    1.283   .     A
C61    C78     1.433   .     S
C62    C66     1.411   .     A
C62    C89     1.408   .     A
C62    H96     1.082   .     S
C63    O118    1.275   .     A
C63    O115    1.275   .     A
C63    C67     1.365   .     S
C64    O117    1.275   .     A
C64    O116    1.275   .     A
C64    C68     1.365   .     S
C65    C92     1.411   .     A
C65    C90     1.411   .     A
C65    C186    1.515   1_545 S
C66    C91     1.411   .     A
C66    C185    1.515   .     S
C67    C548    1.165   1_554 S
C68    C307    1.165   .     S
C69    C80     1.396   .     A
C69    C74     1.384   .     A
C69    H100    1.085   .     S
C70    H101    1.085   .     S
C70    C75     1.384   .     A
C70    C81     1.396   .     A
C71    C76     1.384   .     A
C71    H102    1.085   .     S
C71    C81     1.396   .     A
C72    O113    1.283   .     A
C72    C79     1.433   .     S
C72    O112    1.283   .     A
C73    C77     1.384   .     A
C73    H103    1.085   .     S
C73    C80     1.396   .     A
C74    C78     1.407   .     A
C74    C82     1.447   .     S
C75    C79     1.407   .     A
C75    C84     1.447   .     S
C76    C79     1.407   .     A
C76    C85     1.447   .     S
C77    C86     1.447   .     S
C77    C78     1.407   .     A
C81    C20     1.440   1_655 S
C82    N107    1.157   .     T
C83    N105    1.363   .     A
C83    C90     1.408   .     A
C83    H93     1.081   .     S
C84    N108    1.157   .     T
C85    N109    1.157   .     T
C86    N110    1.157   .     T
C87    H97     1.082   .     S
C87    C91     1.408   .     A
C87    N106    1.363   .     A
C88    H98     1.081   .     S
C88    N105    1.363   .     A
C88    C92     1.408   .     A
C89    N106    1.363   .     A
C89    H99     1.082   .     S
C90    H104    1.082   .     S
C91    H94     1.082   .     S
C92    H95     1.082   .     S
N105   Zn120   2.007   .     S
N106   Zn119   2.007   .     S
O111   Zn119   1.995   .     S
O112   Zn120   1.995   .     S
O113   Zn119   1.995   .     S
O114   Zn120   1.995   .     S
O115   Zn119   1.949   .     S
O116   Zn120   1.949   .     S
O117   Zn119   1.949   .     S
O118   Zn120   1.949   .     S
C121   O174    1.283   .     A
C121   O171    1.283   .     A
C121   C138    1.433   .     S
C122   C126    1.411   .     A
C122   C149    1.408   .     A
C122   H156    1.082   .     S
C123   O178    1.275   .     A
C123   O175    1.275   .     A
C123   C127    1.365   .     S
C124   O177    1.275   .     A
C124   O176    1.275   .     A
C124   C128    1.365   .     S
C125   C152    1.411   .     A
C125   C150    1.411   .     A
C126   C151    1.411   .     A
C126   C5      1.515   1_565 S
C127   C608    1.165   1_554 S
C128   C367    1.165   .     S
C129   C140    1.396   .     A
C129   C134    1.384   .     A
C129   H160    1.085   .     S
C130   H161    1.085   .     S
C130   C135    1.384   .     A
C130   C141    1.396   .     A
C131   C136    1.384   .     A
C131   H162    1.085   .     S
C131   C141    1.396   .     A
C132   O173    1.283   .     A
C132   C139    1.433   .     S
C132   O172    1.283   .     A
C133   C137    1.384   .     A
C133   H163    1.085   .     S
C133   C140    1.396   .     A
C134   C138    1.407   .     A
C134   C142    1.447   .     S
C135   C139    1.407   .     A
C135   C144    1.447   .     S
C136   C139    1.407   .     A
C136   C145    1.447   .     S
C137   C146    1.447   .     S
C137   C138    1.407   .     A
C140   C201    1.440   1_455 S
C141   C200    1.440   .     S
C142   N167    1.157   .     T
C143   N165    1.363   .     A
C143   C150    1.408   .     A
C143   H153    1.081   .     S
C144   N168    1.157   .     T
C145   N169    1.157   .     T
C146   N170    1.157   .     T
C147   H157    1.082   .     S
C147   C151    1.408   .     A
C147   N166    1.363   .     A
C148   H158    1.081   .     S
C148   N165    1.363   .     A
C148   C152    1.408   .     A
C149   N166    1.363   .     A
C149   H159    1.082   .     S
C150   H164    1.082   .     S
C151   H154    1.082   .     S
C152   H155    1.082   .     S
N165   Zn180   2.007   .     S
N166   Zn179   2.007   .     S
O171   Zn179   1.995   .     S
O172   Zn180   1.995   .     S
O173   Zn179   1.995   .     S
O174   Zn180   1.995   .     S
O175   Zn179   1.949   .     S
O176   Zn180   1.949   .     S
O177   Zn179   1.949   .     S
O178   Zn180   1.949   .     S
C181   O234    1.283   .     A
C181   O231    1.283   .     A
C181   C198    1.433   .     S
C182   C186    1.411   .     A
C182   C209    1.408   .     A
C182   H216    1.082   .     S
C183   O238    1.275   .     A
C183   O235    1.275   .     A
C183   C187    1.365   .     S
C184   O237    1.275   .     A
C184   O236    1.275   .     A
C184   C188    1.365   .     S
C185   C212    1.411   .     A
C185   C210    1.411   .     A
C186   C211    1.411   .     A
C186   C65     1.515   1_565 S
C187   C668    1.165   1_554 S
C188   C427    1.165   .     S
C189   C200    1.396   .     A
C189   C194    1.384   .     A
C189   H220    1.085   .     S
C190   H221    1.085   .     S
C190   C195    1.384   .     A
C190   C201    1.396   .     A
C191   C196    1.384   .     A
C191   H222    1.085   .     S
C191   C201    1.396   .     A
C192   O233    1.283   .     A
C192   C199    1.433   .     S
C192   O232    1.283   .     A
C193   C197    1.384   .     A
C193   H223    1.085   .     S
C193   C200    1.396   .     A
C194   C198    1.407   .     A
C194   C202    1.447   .     S
C195   C199    1.407   .     A
C195   C204    1.447   .     S
C196   C199    1.407   .     A
C196   C205    1.447   .     S
C197   C206    1.447   .     S
C197   C198    1.407   .     A
C201   C140    1.440   1_655 S
C202   N227    1.157   .     T
C203   N225    1.363   .     A
C203   C210    1.408   .     A
C203   H213    1.081   .     S
C204   N228    1.157   .     T
C205   N229    1.157   .     T
C206   N230    1.157   .     T
C207   H217    1.082   .     S
C207   C211    1.408   .     A
C207   N226    1.363   .     A
C208   H218    1.081   .     S
C208   N225    1.363   .     A
C208   C212    1.408   .     A
C209   N226    1.363   .     A
C209   H219    1.082   .     S
C210   H224    1.082   .     S
C211   H214    1.082   .     S
C212   H215    1.082   .     S
N225   Zn240   2.007   .     S
N226   Zn239   2.007   .     S
O231   Zn239   1.995   .     S
O232   Zn240   1.995   .     S
O233   Zn239   1.995   .     S
O234   Zn240   1.995   .     S
O235   Zn239   1.949   .     S
O236   Zn240   1.949   .     S
O237   Zn239   1.949   .     S
O238   Zn240   1.949   .     S
C241   O294    1.283   .     A
C241   O291    1.283   .     A
C241   C258    1.433   .     S
C242   C246    1.411   .     A
C242   C269    1.408   .     A
C242   H276    1.082   .     S
C243   O298    1.275   .     A
C243   O295    1.275   .     A
C243   C247    1.365   .     S
C244   O297    1.275   .     A
C244   O296    1.275   .     A
C244   C248    1.365   .     S
C245   C272    1.411   .     A
C245   C270    1.411   .     A
C245   C366    1.515   1_545 S
C246   C271    1.411   .     A
C246   C365    1.515   .     S
C248   C487    1.165   .     S
C249   C260    1.396   .     A
C249   C254    1.384   .     A
C249   H280    1.085   .     S
C250   H281    1.085   .     S
C250   C255    1.384   .     A
C250   C261    1.396   .     A
C251   C256    1.384   .     A
C251   H282    1.085   .     S
C251   C261    1.396   .     A
C252   O293    1.283   .     A
C252   C259    1.433   .     S
C252   O292    1.283   .     A
C253   C257    1.384   .     A
C253   H283    1.085   .     S
C253   C260    1.396   .     A
C254   C258    1.407   .     A
C254   C262    1.447   .     S
C255   C259    1.407   .     A
C255   C264    1.447   .     S
C256   C259    1.407   .     A
C256   C265    1.447   .     S
C257   C266    1.447   .     S
C257   C258    1.407   .     A
C260   C321    1.440   1_455 S
C261   C320    1.440   .     S
C262   N287    1.157   .     T
C263   N285    1.363   .     A
C263   C270    1.408   .     A
C263   H273    1.081   .     S
C264   N288    1.157   .     T
C265   N289    1.157   .     T
C266   N290    1.157   .     T
C267   H277    1.082   .     S
C267   C271    1.408   .     A
C267   N286    1.363   .     A
C268   H278    1.081   .     S
C268   N285    1.363   .     A
C268   C272    1.408   .     A
C269   N286    1.363   .     A
C269   H279    1.082   .     S
C270   H284    1.082   .     S
C271   H274    1.082   .     S
C272   H275    1.082   .     S
N285   Zn300   2.007   .     S
N286   Zn299   2.007   .     S
O291   Zn299   1.995   .     S
O292   Zn300   1.995   .     S
O293   Zn299   1.995   .     S
O294   Zn300   1.995   .     S
O295   Zn299   1.949   .     S
O296   Zn300   1.949   .     S
O297   Zn299   1.949   .     S
O298   Zn300   1.949   .     S
C301   O354    1.283   .     A
C301   O351    1.283   .     A
C301   C318    1.433   .     S
C302   C306    1.411   .     A
C302   C329    1.408   .     A
C302   H336    1.082   .     S
C303   O358    1.275   .     A
C303   O355    1.275   .     A
C303   C307    1.365   .     S
C304   O357    1.275   .     A
C304   O356    1.275   .     A
C304   C308    1.365   .     S
C305   C332    1.411   .     A
C305   C330    1.411   .     A
C305   C426    1.515   1_545 S
C306   C331    1.411   .     A
C306   C425    1.515   .     S
C308   C547    1.165   .     S
C309   C320    1.396   .     A
C309   C314    1.384   .     A
C309   H340    1.085   .     S
C310   H341    1.085   .     S
C310   C315    1.384   .     A
C310   C321    1.396   .     A
C311   C316    1.384   .     A
C311   H342    1.085   .     S
C311   C321    1.396   .     A
C312   O353    1.283   .     A
C312   C319    1.433   .     S
C312   O352    1.283   .     A
C313   C317    1.384   .     A
C313   H343    1.085   .     S
C313   C320    1.396   .     A
C314   C318    1.407   .     A
C314   C322    1.447   .     S
C315   C319    1.407   .     A
C315   C324    1.447   .     S
C316   C319    1.407   .     A
C316   C325    1.447   .     S
C317   C326    1.447   .     S
C317   C318    1.407   .     A
C321   C260    1.440   1_655 S
C322   N347    1.157   .     T
C323   N345    1.363   .     A
C323   C330    1.408   .     A
C323   H333    1.081   .     S
C324   N348    1.157   .     T
C325   N349    1.157   .     T
C326   N350    1.157   .     T
C327   H337    1.082   .     S
C327   C331    1.408   .     A
C327   N346    1.363   .     A
C328   H338    1.081   .     S
C328   N345    1.363   .     A
C328   C332    1.408   .     A
C329   N346    1.363   .     A
C329   H339    1.082   .     S
C330   H344    1.082   .     S
C331   H334    1.082   .     S
C332   H335    1.082   .     S
N345   Zn360   2.007   .     S
N346   Zn359   2.007   .     S
O351   Zn359   1.995   .     S
O352   Zn360   1.995   .     S
O353   Zn359   1.995   .     S
O354   Zn360   1.995   .     S
O355   Zn359   1.949   .     S
O356   Zn360   1.949   .     S
O357   Zn359   1.949   .     S
O358   Zn360   1.949   .     S
C361   O414    1.283   .     A
C361   O411    1.283   .     A
C361   C378    1.433   .     S
C362   C366    1.411   .     A
C362   C389    1.408   .     A
C362   H396    1.082   .     S
C363   O418    1.275   .     A
C363   O415    1.275   .     A
C363   C367    1.365   .     S
C364   O417    1.275   .     A
C364   O416    1.275   .     A
C364   C368    1.365   .     S
C365   C392    1.411   .     A
C365   C390    1.411   .     A
C366   C391    1.411   .     A
C366   C245    1.515   1_565 S
C368   C607    1.165   .     S
C369   C380    1.396   .     A
C369   C374    1.384   .     A
C369   H400    1.085   .     S
C370   H401    1.085   .     S
C370   C375    1.384   .     A
C370   C381    1.396   .     A
C371   C376    1.384   .     A
C371   H402    1.085   .     S
C371   C381    1.396   .     A
C372   O413    1.283   .     A
C372   C379    1.433   .     S
C372   O412    1.283   .     A
C373   C377    1.384   .     A
C373   H403    1.085   .     S
C373   C380    1.396   .     A
C374   C378    1.407   .     A
C374   C382    1.447   .     S
C375   C379    1.407   .     A
C375   C384    1.447   .     S
C376   C379    1.407   .     A
C376   C385    1.447   .     S
C377   C386    1.447   .     S
C377   C378    1.407   .     A
C380   C441    1.440   1_455 S
C381   C440    1.440   .     S
C382   N407    1.157   .     T
C383   N405    1.363   .     A
C383   C390    1.408   .     A
C383   H393    1.081   .     S
C384   N408    1.157   .     T
C385   N409    1.157   .     T
C386   N410    1.157   .     T
C387   H397    1.082   .     S
C387   C391    1.408   .     A
C387   N406    1.363   .     A
C388   H398    1.081   .     S
C388   N405    1.363   .     A
C388   C392    1.408   .     A
C389   N406    1.363   .     A
C389   H399    1.082   .     S
C390   H404    1.082   .     S
C391   H394    1.082   .     S
C392   H395    1.082   .     S
N405   Zn420   2.007   .     S
N406   Zn419   2.007   .     S
O411   Zn419   1.995   .     S
O412   Zn420   1.995   .     S
O413   Zn419   1.995   .     S
O414   Zn420   1.995   .     S
O415   Zn419   1.949   .     S
O416   Zn420   1.949   .     S
O417   Zn419   1.949   .     S
O418   Zn420   1.949   .     S
C421   O474    1.283   .     A
C421   O471    1.283   .     A
C421   C438    1.433   .     S
C422   C426    1.411   .     A
C422   C449    1.408   .     A
C422   H456    1.082   .     S
C423   O478    1.275   .     A
C423   O475    1.275   .     A
C423   C427    1.365   .     S
C424   O477    1.275   .     A
C424   O476    1.275   .     A
C424   C428    1.365   .     S
C425   C452    1.411   .     A
C425   C450    1.411   .     A
C426   C451    1.411   .     A
C426   C305    1.515   1_565 S
C428   C667    1.165   .     S
C429   C440    1.396   .     A
C429   C434    1.384   .     A
C429   H460    1.085   .     S
C430   H461    1.085   .     S
C430   C435    1.384   .     A
C430   C441    1.396   .     A
C431   C436    1.384   .     A
C431   H462    1.085   .     S
C431   C441    1.396   .     A
C432   O473    1.283   .     A
C432   C439    1.433   .     S
C432   O472    1.283   .     A
C433   C437    1.384   .     A
C433   H463    1.085   .     S
C433   C440    1.396   .     A
C434   C438    1.407   .     A
C434   C442    1.447   .     S
C435   C439    1.407   .     A
C435   C444    1.447   .     S
C436   C439    1.407   .     A
C436   C445    1.447   .     S
C437   C446    1.447   .     S
C437   C438    1.407   .     A
C441   C380    1.440   1_655 S
C442   N467    1.157   .     T
C443   N465    1.363   .     A
C443   C450    1.408   .     A
C443   H453    1.081   .     S
C444   N468    1.157   .     T
C445   N469    1.157   .     T
C446   N470    1.157   .     T
C447   H457    1.082   .     S
C447   C451    1.408   .     A
C447   N466    1.363   .     A
C448   H458    1.081   .     S
C448   N465    1.363   .     A
C448   C452    1.408   .     A
C449   N466    1.363   .     A
C449   H459    1.082   .     S
C450   H464    1.082   .     S
C451   H454    1.082   .     S
C452   H455    1.082   .     S
N465   Zn480   2.007   .     S
N466   Zn479   2.007   .     S
O471   Zn479   1.995   .     S
O472   Zn480   1.995   .     S
O473   Zn479   1.995   .     S
O474   Zn480   1.995   .     S
O475   Zn479   1.949   .     S
O476   Zn480   1.949   .     S
O477   Zn479   1.949   .     S
O478   Zn480   1.949   .     S
C481   O534    1.283   .     A
C481   O531    1.283   .     A
C481   C498    1.433   .     S
C482   C486    1.411   .     A
C482   C509    1.408   .     A
C482   H516    1.082   .     S
C483   O538    1.275   .     A
C483   O535    1.275   .     A
C483   C487    1.365   .     S
C484   O537    1.275   .     A
C484   O536    1.275   .     A
C484   C488    1.365   .     S
C485   C512    1.411   .     A
C485   C510    1.411   .     A
C485   C606    1.515   1_545 S
C486   C511    1.411   .     A
C486   C605    1.515   .     S
C488   C7      1.165   1_556 S
C489   C500    1.396   .     A
C489   C494    1.384   .     A
C489   H520    1.085   .     S
C490   H521    1.085   .     S
C490   C495    1.384   .     A
C490   C501    1.396   .     A
C491   C496    1.384   .     A
C491   H522    1.085   .     S
C491   C501    1.396   .     A
C492   O533    1.283   .     A
C492   C499    1.433   .     S
C492   O532    1.283   .     A
C493   C497    1.384   .     A
C493   H523    1.085   .     S
C493   C500    1.396   .     A
C494   C498    1.407   .     A
C494   C502    1.447   .     S
C495   C499    1.407   .     A
C495   C504    1.447   .     S
C496   C499    1.407   .     A
C496   C505    1.447   .     S
C497   C506    1.447   .     S
C497   C498    1.407   .     A
C500   C561    1.440   1_455 S
C501   C560    1.440   .     S
C502   N527    1.157   .     T
C503   N525    1.363   .     A
C503   C510    1.408   .     A
C503   H513    1.081   .     S
C504   N528    1.157   .     T
C505   N529    1.157   .     T
C506   N530    1.157   .     T
C507   H517    1.082   .     S
C507   C511    1.408   .     A
C507   N526    1.363   .     A
C508   H518    1.081   .     S
C508   N525    1.363   .     A
C508   C512    1.408   .     A
C509   N526    1.363   .     A
C509   H519    1.082   .     S
C510   H524    1.082   .     S
C511   H514    1.082   .     S
C512   H515    1.082   .     S
N525   Zn540   2.007   .     S
N526   Zn539   2.007   .     S
O531   Zn539   1.995   .     S
O532   Zn540   1.995   .     S
O533   Zn539   1.995   .     S
O534   Zn540   1.995   .     S
O535   Zn539   1.949   .     S
O536   Zn540   1.949   .     S
O537   Zn539   1.949   .     S
O538   Zn540   1.949   .     S
C541   O594    1.283   .     A
C541   O591    1.283   .     A
C541   C558    1.433   .     S
C542   C546    1.411   .     A
C542   C569    1.408   .     A
C542   H576    1.082   .     S
C543   O598    1.275   .     A
C543   O595    1.275   .     A
C543   C547    1.365   .     S
C544   O597    1.275   .     A
C544   O596    1.275   .     A
C544   C548    1.365   .     S
C545   C572    1.411   .     A
C545   C570    1.411   .     A
C545   C666    1.515   1_545 S
C546   C571    1.411   .     A
C546   C665    1.515   .     S
C548   C67     1.165   1_556 S
C549   C560    1.396   .     A
C549   C554    1.384   .     A
C549   H580    1.085   .     S
C550   H581    1.085   .     S
C550   C555    1.384   .     A
C550   C561    1.396   .     A
C551   C556    1.384   .     A
C551   H582    1.085   .     S
C551   C561    1.396   .     A
C552   O593    1.283   .     A
C552   C559    1.433   .     S
C552   O592    1.283   .     A
C553   C557    1.384   .     A
C553   H583    1.085   .     S
C553   C560    1.396   .     A
C554   C558    1.407   .     A
C554   C562    1.447   .     S
C555   C559    1.407   .     A
C555   C564    1.447   .     S
C556   C559    1.407   .     A
C556   C565    1.447   .     S
C557   C566    1.447   .     S
C557   C558    1.407   .     A
C561   C500    1.440   1_655 S
C562   N587    1.157   .     T
C563   N585    1.363   .     A
C563   C570    1.408   .     A
C563   H573    1.081   .     S
C564   N588    1.157   .     T
C565   N589    1.157   .     T
C566   N590    1.157   .     T
C567   H577    1.082   .     S
C567   C571    1.408   .     A
C567   N586    1.363   .     A
C568   H578    1.081   .     S
C568   N585    1.363   .     A
C568   C572    1.408   .     A
C569   N586    1.363   .     A
C569   H579    1.082   .     S
C570   H584    1.082   .     S
C571   H574    1.082   .     S
C572   H575    1.082   .     S
N585   Zn600   2.007   .     S
N586   Zn599   2.007   .     S
O591   Zn599   1.995   .     S
O592   Zn600   1.995   .     S
O593   Zn599   1.995   .     S
O594   Zn600   1.995   .     S
O595   Zn599   1.949   .     S
O596   Zn600   1.949   .     S
O597   Zn599   1.949   .     S
O598   Zn600   1.949   .     S
C601   O654    1.283   .     A
C601   O651    1.283   .     A
C601   C618    1.433   .     S
C602   C606    1.411   .     A
C602   C629    1.408   .     A
C602   H636    1.082   .     S
C603   O658    1.275   .     A
C603   O655    1.275   .     A
C603   C607    1.365   .     S
C604   O657    1.275   .     A
C604   O656    1.275   .     A
C604   C608    1.365   .     S
C605   C632    1.411   .     A
C605   C630    1.411   .     A
C606   C631    1.411   .     A
C606   C485    1.515   1_565 S
C608   C127    1.165   1_556 S
C609   C620    1.396   .     A
C609   C614    1.384   .     A
C609   H640    1.085   .     S
C610   H641    1.085   .     S
C610   C615    1.384   .     A
C610   C621    1.396   .     A
C611   C616    1.384   .     A
C611   H642    1.085   .     S
C611   C621    1.396   .     A
C612   O653    1.283   .     A
C612   C619    1.433   .     S
C612   O652    1.283   .     A
C613   C617    1.384   .     A
C613   H643    1.085   .     S
C613   C620    1.396   .     A
C614   C618    1.407   .     A
C614   C622    1.447   .     S
C615   C619    1.407   .     A
C615   C624    1.447   .     S
C616   C619    1.407   .     A
C616   C625    1.447   .     S
C617   C626    1.447   .     S
C617   C618    1.407   .     A
C620   C681    1.440   1_455 S
C621   C680    1.440   .     S
C622   N647    1.157   .     T
C623   N645    1.363   .     A
C623   C630    1.408   .     A
C623   H633    1.081   .     S
C624   N648    1.157   .     T
C625   N649    1.157   .     T
C626   N650    1.157   .     T
C627   H637    1.082   .     S
C627   C631    1.408   .     A
C627   N646    1.363   .     A
C628   H638    1.081   .     S
C628   N645    1.363   .     A
C628   C632    1.408   .     A
C629   N646    1.363   .     A
C629   H639    1.082   .     S
C630   H644    1.082   .     S
C631   H634    1.082   .     S
C632   H635    1.082   .     S
N645   Zn660   2.007   .     S
N646   Zn659   2.007   .     S
O651   Zn659   1.995   .     S
O652   Zn660   1.995   .     S
O653   Zn659   1.995   .     S
O654   Zn660   1.995   .     S
O655   Zn659   1.949   .     S
O656   Zn660   1.949   .     S
O657   Zn659   1.949   .     S
O658   Zn660   1.949   .     S
C661   O714    1.283   .     A
C661   O711    1.283   .     A
C661   C678    1.433   .     S
C662   C666    1.411   .     A
C662   C689    1.408   .     A
C662   H696    1.082   .     S
C663   O718    1.275   .     A
C663   O715    1.275   .     A
C663   C667    1.365   .     S
C664   O717    1.275   .     A
C664   O716    1.275   .     A
C664   C668    1.365   .     S
C665   C692    1.411   .     A
C665   C690    1.411   .     A
C666   C691    1.411   .     A
C666   C545    1.515   1_565 S
C668   C187    1.165   1_556 S
C669   C680    1.396   .     A
C669   C674    1.384   .     A
C669   H700    1.085   .     S
C670   H701    1.085   .     S
C670   C675    1.384   .     A
C670   C681    1.396   .     A
C671   C676    1.384   .     A
C671   H702    1.085   .     S
C671   C681    1.396   .     A
C672   O713    1.283   .     A
C672   C679    1.433   .     S
C672   O712    1.283   .     A
C673   C677    1.384   .     A
C673   H703    1.085   .     S
C673   C680    1.396   .     A
C674   C678    1.407   .     A
C674   C682    1.447   .     S
C675   C679    1.407   .     A
C675   C684    1.447   .     S
C676   C679    1.407   .     A
C676   C685    1.447   .     S
C677   C686    1.447   .     S
C677   C678    1.407   .     A
C681   C620    1.440   1_655 S
C682   N707    1.157   .     T
C683   N705    1.363   .     A
C683   C690    1.408   .     A
C683   H693    1.081   .     S
C684   N708    1.157   .     T
C685   N709    1.157   .     T
C686   N710    1.157   .     T
C687   H697    1.082   .     S
C687   C691    1.408   .     A
C687   N706    1.363   .     A
C688   H698    1.081   .     S
C688   N705    1.363   .     A
C688   C692    1.408   .     A
C689   N706    1.363   .     A
C689   H699    1.082   .     S
C690   H704    1.082   .     S
C691   H694    1.082   .     S
C692   H695    1.082   .     S
N705   Zn720   2.007   .     S
N706   Zn719   2.007   .     S
O711   Zn719   1.995   .     S
O712   Zn720   1.995   .     S
O713   Zn719   1.995   .     S
O714   Zn720   1.995   .     S
O715   Zn719   1.949   .     S
O716   Zn720   1.949   .     S
O717   Zn719   1.949   .     S
O718   Zn720   1.949   .     S
