data_str_m2_o10_o18_pcu_sym.118
_audit_creation_date              2020-01-03
_audit_creation_method            'Materials Studio'
_symmetry_space_group_name_H-M    'P1'
_symmetry_Int_Tables_number       1
_symmetry_cell_setting            triclinic
loop_
_symmetry_equiv_pos_as_xyz
  x,y,z
_cell_length_a                    22.3095
_cell_length_b                    26.0838
_cell_length_c                    31.6630
_cell_angle_alpha                 94.2846
_cell_angle_beta                  75.0927
_cell_angle_gamma                 103.1322
loop_
_atom_site_label
_atom_site_type_symbol
_atom_site_fract_x
_atom_site_fract_y
_atom_site_fract_z
_atom_site_U_iso_or_equiv
_atom_site_adp_type
_atom_site_occupancy
C1     C     0.18169   0.26671   0.25130   0.00000  Uiso   1.00
C2     C     0.15164   0.06662   0.24870   0.00000  Uiso   1.00
C3     C     0.09552   0.12494   0.03779   0.00000  Uiso   1.00
C4     C     0.24174   0.19477   0.45954   0.00000  Uiso   1.00
C5     C     0.05266   0.11214   0.01178   0.00000  Uiso   1.00
C6     C     0.28488   0.20663   0.48538   0.00000  Uiso   1.00
C7     C     0.19015   0.32267   0.25194   0.00000  Uiso   1.00
C8     C     0.14317   0.01066   0.24808   0.00000  Uiso   1.00
C9     C     0.12802   0.16267   0.33310   0.00000  Uiso   1.00
C10    C     0.20529   0.17034   0.16686   0.00000  Uiso   1.00
C11    C     0.10465   0.15552   0.38049   0.00000  Uiso   1.00
C12    C     0.22864   0.17480   0.11918   0.00000  Uiso   1.00
C13    C     0.02584   0.11423   0.44290   0.00000  Uiso   1.00
C14    C     0.31054   0.20722   0.05497   0.00000  Uiso   1.00
C15    C     0.04302   0.12785   0.39904   0.00000  Uiso   1.00
C16    C     0.29202   0.19733   0.09960   0.00000  Uiso   1.00
C17    C     0.14784   0.17153   0.40656   0.00000  Uiso   1.00
C18    C     0.18491   0.15966   0.09337   0.00000  Uiso   1.00
C19    C     0.13259   0.15679   0.45052   0.00000  Uiso   1.00
C20    C     0.20247   0.16839   0.04813   0.00000  Uiso   1.00
C21    C     0.07017   0.12789   0.46855   0.00000  Uiso   1.00
C22    C     0.26614   0.19393   0.02936   0.00000  Uiso   1.00
C23    C     0.17765   0.16906   0.47672   0.00000  Uiso   1.00
C24    C     0.15822   0.15416   0.02143   0.00000  Uiso   1.00
Cu25   Cu    0.10737   0.16108   0.24517   0.00000  Uiso   1.00
Cu26   Cu    0.22596   0.17225   0.25484   0.00000  Uiso   1.00
H27    H     0.00521   0.08965   0.02574   0.00000  Uiso   1.00
H28    H     0.00018   0.22610   0.47071   0.00000  Uiso   1.00
H29    H     0.32656   0.20917   0.11899   0.00000  Uiso   1.00
H30    H     0.00900   0.11512   0.37935   0.00000  Uiso   1.00
H31    H     0.31145   0.09216   0.45665   0.00000  Uiso   1.00
H32    H     0.02613   0.22608   0.04053   0.00000  Uiso   1.00
H33    H     0.23544   0.01311   0.25558   0.00000  Uiso   1.00
H34    H     0.09789   0.32022   0.24444   0.00000  Uiso   1.00
H35    H     0.00133   0.20505   0.28441   0.00000  Uiso   1.00
H36    H     0.33200   0.12828   0.21559   0.00000  Uiso   1.00
N37    N     0.31506   0.18068   0.26212   0.00000  Uiso   1.00
N38    N     0.01827   0.15265   0.23788   0.00000  Uiso   1.00
O39    O     0.12815   0.23809   0.24686   0.00000  Uiso   1.00
O40    O     0.20518   0.09524   0.25314   0.00000  Uiso   1.00
O41    O     0.22829   0.24753   0.25503   0.00000  Uiso   1.00
O42    O     0.10504   0.08580   0.24497   0.00000  Uiso   1.00
O43    O     0.08851   0.15930   0.30854   0.00000  Uiso   1.00
O44    O     0.24482   0.17403   0.19146   0.00000  Uiso   1.00
O45    O     0.18866   0.16874   0.31671   0.00000  Uiso   1.00
O46    O     0.14468   0.16460   0.18329   0.00000  Uiso   1.00
H47    H     0.13665   0.14292   0.10990   0.00000  Uiso   1.00
H48    H     0.19358   0.19483   0.39116   0.00000  Uiso   1.00
H49    H     0.07794   0.11001   0.07045   0.00000  Uiso   1.00
H50    H     0.26109   0.20563   0.42587   0.00000  Uiso   1.00
C51    C     0.51502   0.26671   0.25130   0.00000  Uiso   1.00
C52    C     0.48498   0.06662   0.24870   0.00000  Uiso   1.00
C53    C     0.42885   0.12494   0.03779   0.00000  Uiso   1.00
C54    C     0.57508   0.19477   0.45954   0.00000  Uiso   1.00
C55    C     0.38600   0.11214   0.01178   0.00000  Uiso   1.00
C56    C     0.61822   0.20663   0.48538   0.00000  Uiso   1.00
C57    C     0.52348   0.32267   0.25194   0.00000  Uiso   1.00
C58    C     0.47651   0.01066   0.24808   0.00000  Uiso   1.00
C59    C     0.46135   0.16267   0.33310   0.00000  Uiso   1.00
C60    C     0.53862   0.17034   0.16686   0.00000  Uiso   1.00
C61    C     0.43798   0.15552   0.38049   0.00000  Uiso   1.00
C62    C     0.56198   0.17480   0.11918   0.00000  Uiso   1.00
C63    C     0.35918   0.11423   0.44290   0.00000  Uiso   1.00
C64    C     0.64388   0.20722   0.05497   0.00000  Uiso   1.00
C65    C     0.37636   0.12785   0.39904   0.00000  Uiso   1.00
C66    C     0.62535   0.19733   0.09960   0.00000  Uiso   1.00
C67    C     0.48117   0.17153   0.40656   0.00000  Uiso   1.00
C68    C     0.51824   0.15966   0.09337   0.00000  Uiso   1.00
C69    C     0.46593   0.15679   0.45052   0.00000  Uiso   1.00
C70    C     0.53580   0.16839   0.04813   0.00000  Uiso   1.00
C71    C     0.40350   0.12789   0.46855   0.00000  Uiso   1.00
C72    C     0.59948   0.19393   0.02936   0.00000  Uiso   1.00
C73    C     0.51098   0.16906   0.47672   0.00000  Uiso   1.00
C74    C     0.49155   0.15416   0.02143   0.00000  Uiso   1.00
Cu75   Cu    0.44071   0.16108   0.24517   0.00000  Uiso   1.00
Cu76   Cu    0.55929   0.17225   0.25484   0.00000  Uiso   1.00
H77    H     0.33855   0.08965   0.02574   0.00000  Uiso   1.00
H78    H     0.33351   0.22610   0.47071   0.00000  Uiso   1.00
H79    H     0.65989   0.20917   0.11899   0.00000  Uiso   1.00
H80    H     0.34233   0.11512   0.37935   0.00000  Uiso   1.00
H81    H     0.64478   0.09216   0.45665   0.00000  Uiso   1.00
H82    H     0.35947   0.22608   0.04053   0.00000  Uiso   1.00
H83    H     0.56877   0.01311   0.25558   0.00000  Uiso   1.00
H84    H     0.43122   0.32022   0.24444   0.00000  Uiso   1.00
H85    H     0.33466   0.20505   0.28441   0.00000  Uiso   1.00
H86    H     0.66534   0.12828   0.21559   0.00000  Uiso   1.00
N87    N     0.64839   0.18068   0.26212   0.00000  Uiso   1.00
N88    N     0.35161   0.15265   0.23788   0.00000  Uiso   1.00
O89    O     0.46148   0.23809   0.24686   0.00000  Uiso   1.00
O90    O     0.53852   0.09524   0.25314   0.00000  Uiso   1.00
O91    O     0.56163   0.24753   0.25503   0.00000  Uiso   1.00
O92    O     0.43837   0.08580   0.24497   0.00000  Uiso   1.00
O93    O     0.42185   0.15930   0.30854   0.00000  Uiso   1.00
O94    O     0.57815   0.17403   0.19146   0.00000  Uiso   1.00
O95    O     0.52199   0.16874   0.31671   0.00000  Uiso   1.00
O96    O     0.47801   0.16460   0.18329   0.00000  Uiso   1.00
H97    H     0.46998   0.14292   0.10990   0.00000  Uiso   1.00
H98    H     0.52691   0.19483   0.39116   0.00000  Uiso   1.00
H99    H     0.41128   0.11001   0.07045   0.00000  Uiso   1.00
H100   H     0.59442   0.20563   0.42587   0.00000  Uiso   1.00
C101   C     0.84835   0.26671   0.25130   0.00000  Uiso   1.00
C102   C     0.81831   0.06662   0.24870   0.00000  Uiso   1.00
C103   C     0.76218   0.12494   0.03779   0.00000  Uiso   1.00
C104   C     0.90841   0.19477   0.45954   0.00000  Uiso   1.00
C105   C     0.71933   0.11214   0.01178   0.00000  Uiso   1.00
C106   C     0.95155   0.20663   0.48538   0.00000  Uiso   1.00
C107   C     0.85682   0.32267   0.25194   0.00000  Uiso   1.00
C108   C     0.80984   0.01066   0.24808   0.00000  Uiso   1.00
C109   C     0.79469   0.16267   0.33310   0.00000  Uiso   1.00
C110   C     0.87195   0.17034   0.16686   0.00000  Uiso   1.00
C111   C     0.77132   0.15552   0.38049   0.00000  Uiso   1.00
C112   C     0.89531   0.17480   0.11918   0.00000  Uiso   1.00
C113   C     0.69251   0.11423   0.44290   0.00000  Uiso   1.00
C114   C     0.97721   0.20722   0.05497   0.00000  Uiso   1.00
C115   C     0.70969   0.12785   0.39904   0.00000  Uiso   1.00
C116   C     0.95869   0.19733   0.09960   0.00000  Uiso   1.00
C117   C     0.81450   0.17153   0.40656   0.00000  Uiso   1.00
C118   C     0.85158   0.15966   0.09337   0.00000  Uiso   1.00
C119   C     0.79926   0.15679   0.45052   0.00000  Uiso   1.00
C120   C     0.86914   0.16839   0.04813   0.00000  Uiso   1.00
C121   C     0.73684   0.12789   0.46855   0.00000  Uiso   1.00
C122   C     0.93281   0.19393   0.02936   0.00000  Uiso   1.00
C123   C     0.84432   0.16906   0.47672   0.00000  Uiso   1.00
C124   C     0.82489   0.15416   0.02143   0.00000  Uiso   1.00
Cu125  Cu    0.77404   0.16108   0.24517   0.00000  Uiso   1.00
Cu126  Cu    0.89263   0.17225   0.25484   0.00000  Uiso   1.00
H127   H     0.67188   0.08965   0.02574   0.00000  Uiso   1.00
H128   H     0.66685   0.22610   0.47071   0.00000  Uiso   1.00
H129   H     0.99323   0.20917   0.11899   0.00000  Uiso   1.00
H130   H     0.67567   0.11512   0.37935   0.00000  Uiso   1.00
H131   H     0.97811   0.09216   0.45665   0.00000  Uiso   1.00
H132   H     0.69280   0.22608   0.04053   0.00000  Uiso   1.00
H133   H     0.90210   0.01311   0.25558   0.00000  Uiso   1.00
H134   H     0.76455   0.32022   0.24444   0.00000  Uiso   1.00
H135   H     0.66800   0.20505   0.28441   0.00000  Uiso   1.00
H136   H     0.99867   0.12828   0.21559   0.00000  Uiso   1.00
N137   N     0.98173   0.18068   0.26212   0.00000  Uiso   1.00
N138   N     0.68494   0.15265   0.23788   0.00000  Uiso   1.00
O139   O     0.79482   0.23809   0.24686   0.00000  Uiso   1.00
O140   O     0.87185   0.09524   0.25314   0.00000  Uiso   1.00
O141   O     0.89496   0.24753   0.25503   0.00000  Uiso   1.00
O142   O     0.77171   0.08580   0.24497   0.00000  Uiso   1.00
O143   O     0.75518   0.15930   0.30854   0.00000  Uiso   1.00
O144   O     0.91149   0.17403   0.19146   0.00000  Uiso   1.00
O145   O     0.85532   0.16874   0.31671   0.00000  Uiso   1.00
O146   O     0.81134   0.16460   0.18329   0.00000  Uiso   1.00
H147   H     0.80331   0.14292   0.10990   0.00000  Uiso   1.00
H148   H     0.86024   0.19483   0.39116   0.00000  Uiso   1.00
H149   H     0.74461   0.11001   0.07045   0.00000  Uiso   1.00
H150   H     0.92775   0.20563   0.42587   0.00000  Uiso   1.00
C151   C     0.18169   0.60005   0.25130   0.00000  Uiso   1.00
C152   C     0.15164   0.39995   0.24870   0.00000  Uiso   1.00
C153   C     0.09552   0.45828   0.03779   0.00000  Uiso   1.00
C154   C     0.24174   0.52810   0.45954   0.00000  Uiso   1.00
C155   C     0.05266   0.44548   0.01178   0.00000  Uiso   1.00
C156   C     0.28488   0.53997   0.48538   0.00000  Uiso   1.00
C157   C     0.19015   0.65601   0.25194   0.00000  Uiso   1.00
C158   C     0.14317   0.34399   0.24808   0.00000  Uiso   1.00
C159   C     0.12802   0.49601   0.33310   0.00000  Uiso   1.00
C160   C     0.20529   0.50368   0.16686   0.00000  Uiso   1.00
C161   C     0.10465   0.48885   0.38049   0.00000  Uiso   1.00
C162   C     0.22864   0.50813   0.11918   0.00000  Uiso   1.00
C163   C     0.02584   0.44757   0.44290   0.00000  Uiso   1.00
C164   C     0.31054   0.54055   0.05497   0.00000  Uiso   1.00
C165   C     0.04302   0.46118   0.39904   0.00000  Uiso   1.00
C166   C     0.29202   0.53066   0.09960   0.00000  Uiso   1.00
C167   C     0.14784   0.50486   0.40656   0.00000  Uiso   1.00
C168   C     0.18491   0.49300   0.09337   0.00000  Uiso   1.00
C169   C     0.13259   0.49012   0.45052   0.00000  Uiso   1.00
C170   C     0.20247   0.50172   0.04813   0.00000  Uiso   1.00
C171   C     0.07017   0.46123   0.46855   0.00000  Uiso   1.00
C172   C     0.26614   0.52727   0.02936   0.00000  Uiso   1.00
C173   C     0.17765   0.50239   0.47672   0.00000  Uiso   1.00
C174   C     0.15822   0.48749   0.02143   0.00000  Uiso   1.00
Cu175  Cu    0.10737   0.49441   0.24517   0.00000  Uiso   1.00
Cu176  Cu    0.22596   0.50559   0.25484   0.00000  Uiso   1.00
H177   H     0.00521   0.42298   0.02574   0.00000  Uiso   1.00
H178   H     0.00018   0.55943   0.47071   0.00000  Uiso   1.00
H179   H     0.32656   0.54251   0.11899   0.00000  Uiso   1.00
H180   H     0.00900   0.44846   0.37935   0.00000  Uiso   1.00
H181   H     0.31145   0.42549   0.45665   0.00000  Uiso   1.00
H182   H     0.02613   0.55941   0.04053   0.00000  Uiso   1.00
H183   H     0.23544   0.34644   0.25558   0.00000  Uiso   1.00
H184   H     0.09789   0.65356   0.24444   0.00000  Uiso   1.00
H185   H     0.00133   0.53838   0.28441   0.00000  Uiso   1.00
H186   H     0.33200   0.46162   0.21559   0.00000  Uiso   1.00
N187   N     0.31506   0.51401   0.26212   0.00000  Uiso   1.00
N188   N     0.01827   0.48599   0.23788   0.00000  Uiso   1.00
O189   O     0.12815   0.57142   0.24686   0.00000  Uiso   1.00
O190   O     0.20518   0.42858   0.25314   0.00000  Uiso   1.00
O191   O     0.22829   0.58086   0.25503   0.00000  Uiso   1.00
O192   O     0.10504   0.41914   0.24497   0.00000  Uiso   1.00
O193   O     0.08851   0.49263   0.30854   0.00000  Uiso   1.00
O194   O     0.24482   0.50737   0.19146   0.00000  Uiso   1.00
O195   O     0.18866   0.50207   0.31671   0.00000  Uiso   1.00
O196   O     0.14468   0.49793   0.18329   0.00000  Uiso   1.00
H197   H     0.13665   0.47626   0.10990   0.00000  Uiso   1.00
H198   H     0.19358   0.52816   0.39116   0.00000  Uiso   1.00
H199   H     0.07794   0.44334   0.07045   0.00000  Uiso   1.00
H200   H     0.26109   0.53896   0.42587   0.00000  Uiso   1.00
C201   C     0.51502   0.60005   0.25130   0.00000  Uiso   1.00
C202   C     0.48498   0.39995   0.24870   0.00000  Uiso   1.00
C203   C     0.42885   0.45828   0.03779   0.00000  Uiso   1.00
C204   C     0.57508   0.52810   0.45954   0.00000  Uiso   1.00
C205   C     0.38600   0.44548   0.01178   0.00000  Uiso   1.00
C206   C     0.61822   0.53997   0.48538   0.00000  Uiso   1.00
C207   C     0.52348   0.65601   0.25194   0.00000  Uiso   1.00
C208   C     0.47651   0.34399   0.24808   0.00000  Uiso   1.00
C209   C     0.46135   0.49601   0.33310   0.00000  Uiso   1.00
C210   C     0.53862   0.50368   0.16686   0.00000  Uiso   1.00
C211   C     0.43798   0.48885   0.38049   0.00000  Uiso   1.00
C212   C     0.56198   0.50813   0.11918   0.00000  Uiso   1.00
C213   C     0.35918   0.44757   0.44290   0.00000  Uiso   1.00
C214   C     0.64388   0.54055   0.05497   0.00000  Uiso   1.00
C215   C     0.37636   0.46118   0.39904   0.00000  Uiso   1.00
C216   C     0.62535   0.53066   0.09960   0.00000  Uiso   1.00
C217   C     0.48117   0.50486   0.40656   0.00000  Uiso   1.00
C218   C     0.51824   0.49300   0.09337   0.00000  Uiso   1.00
C219   C     0.46593   0.49012   0.45052   0.00000  Uiso   1.00
C220   C     0.53580   0.50172   0.04813   0.00000  Uiso   1.00
C221   C     0.40350   0.46123   0.46855   0.00000  Uiso   1.00
C222   C     0.59948   0.52727   0.02936   0.00000  Uiso   1.00
C223   C     0.51098   0.50239   0.47672   0.00000  Uiso   1.00
C224   C     0.49155   0.48749   0.02143   0.00000  Uiso   1.00
Cu225  Cu    0.44071   0.49441   0.24517   0.00000  Uiso   1.00
Cu226  Cu    0.55929   0.50559   0.25484   0.00000  Uiso   1.00
H227   H     0.33855   0.42298   0.02574   0.00000  Uiso   1.00
H228   H     0.33351   0.55943   0.47071   0.00000  Uiso   1.00
H229   H     0.65989   0.54251   0.11899   0.00000  Uiso   1.00
H230   H     0.34233   0.44846   0.37935   0.00000  Uiso   1.00
H231   H     0.64478   0.42549   0.45665   0.00000  Uiso   1.00
H232   H     0.35947   0.55941   0.04053   0.00000  Uiso   1.00
H233   H     0.56877   0.34644   0.25558   0.00000  Uiso   1.00
H234   H     0.43122   0.65356   0.24444   0.00000  Uiso   1.00
H235   H     0.33466   0.53838   0.28441   0.00000  Uiso   1.00
H236   H     0.66534   0.46162   0.21559   0.00000  Uiso   1.00
N237   N     0.64839   0.51401   0.26212   0.00000  Uiso   1.00
N238   N     0.35161   0.48599   0.23788   0.00000  Uiso   1.00
O239   O     0.46148   0.57142   0.24686   0.00000  Uiso   1.00
O240   O     0.53852   0.42858   0.25314   0.00000  Uiso   1.00
O241   O     0.56163   0.58086   0.25503   0.00000  Uiso   1.00
O242   O     0.43837   0.41914   0.24497   0.00000  Uiso   1.00
O243   O     0.42185   0.49263   0.30854   0.00000  Uiso   1.00
O244   O     0.57815   0.50737   0.19146   0.00000  Uiso   1.00
O245   O     0.52199   0.50207   0.31671   0.00000  Uiso   1.00
O246   O     0.47801   0.49793   0.18329   0.00000  Uiso   1.00
H247   H     0.46998   0.47626   0.10990   0.00000  Uiso   1.00
H248   H     0.52691   0.52816   0.39116   0.00000  Uiso   1.00
H249   H     0.41128   0.44334   0.07045   0.00000  Uiso   1.00
H250   H     0.59442   0.53896   0.42587   0.00000  Uiso   1.00
C251   C     0.84835   0.60005   0.25130   0.00000  Uiso   1.00
C252   C     0.81831   0.39995   0.24870   0.00000  Uiso   1.00
C253   C     0.76218   0.45828   0.03779   0.00000  Uiso   1.00
C254   C     0.90841   0.52810   0.45954   0.00000  Uiso   1.00
C255   C     0.71933   0.44548   0.01178   0.00000  Uiso   1.00
C256   C     0.95155   0.53997   0.48538   0.00000  Uiso   1.00
C257   C     0.85682   0.65601   0.25194   0.00000  Uiso   1.00
C258   C     0.80984   0.34399   0.24808   0.00000  Uiso   1.00
C259   C     0.79469   0.49601   0.33310   0.00000  Uiso   1.00
C260   C     0.87195   0.50368   0.16686   0.00000  Uiso   1.00
C261   C     0.77132   0.48885   0.38049   0.00000  Uiso   1.00
C262   C     0.89531   0.50813   0.11918   0.00000  Uiso   1.00
C263   C     0.69251   0.44757   0.44290   0.00000  Uiso   1.00
C264   C     0.97721   0.54055   0.05497   0.00000  Uiso   1.00
C265   C     0.70969   0.46118   0.39904   0.00000  Uiso   1.00
C266   C     0.95869   0.53066   0.09960   0.00000  Uiso   1.00
C267   C     0.81450   0.50486   0.40656   0.00000  Uiso   1.00
C268   C     0.85158   0.49300   0.09337   0.00000  Uiso   1.00
C269   C     0.79926   0.49012   0.45052   0.00000  Uiso   1.00
C270   C     0.86914   0.50172   0.04813   0.00000  Uiso   1.00
C271   C     0.73684   0.46123   0.46855   0.00000  Uiso   1.00
C272   C     0.93281   0.52727   0.02936   0.00000  Uiso   1.00
C273   C     0.84432   0.50239   0.47672   0.00000  Uiso   1.00
C274   C     0.82489   0.48749   0.02143   0.00000  Uiso   1.00
Cu275  Cu    0.77404   0.49441   0.24517   0.00000  Uiso   1.00
Cu276  Cu    0.89263   0.50559   0.25484   0.00000  Uiso   1.00
H277   H     0.67188   0.42298   0.02574   0.00000  Uiso   1.00
H278   H     0.66685   0.55943   0.47071   0.00000  Uiso   1.00
H279   H     0.99323   0.54251   0.11899   0.00000  Uiso   1.00
H280   H     0.67567   0.44846   0.37935   0.00000  Uiso   1.00
H281   H     0.97811   0.42549   0.45665   0.00000  Uiso   1.00
H282   H     0.69280   0.55941   0.04053   0.00000  Uiso   1.00
H283   H     0.90210   0.34644   0.25558   0.00000  Uiso   1.00
H284   H     0.76455   0.65356   0.24444   0.00000  Uiso   1.00
H285   H     0.66800   0.53838   0.28441   0.00000  Uiso   1.00
H286   H     0.99867   0.46162   0.21559   0.00000  Uiso   1.00
N287   N     0.98173   0.51401   0.26212   0.00000  Uiso   1.00
N288   N     0.68494   0.48599   0.23788   0.00000  Uiso   1.00
O289   O     0.79482   0.57142   0.24686   0.00000  Uiso   1.00
O290   O     0.87185   0.42858   0.25314   0.00000  Uiso   1.00
O291   O     0.89496   0.58086   0.25503   0.00000  Uiso   1.00
O292   O     0.77171   0.41914   0.24497   0.00000  Uiso   1.00
O293   O     0.75518   0.49263   0.30854   0.00000  Uiso   1.00
O294   O     0.91149   0.50737   0.19146   0.00000  Uiso   1.00
O295   O     0.85532   0.50207   0.31671   0.00000  Uiso   1.00
O296   O     0.81134   0.49793   0.18329   0.00000  Uiso   1.00
H297   H     0.80331   0.47626   0.10990   0.00000  Uiso   1.00
H298   H     0.86024   0.52816   0.39116   0.00000  Uiso   1.00
H299   H     0.74461   0.44334   0.07045   0.00000  Uiso   1.00
H300   H     0.92775   0.53896   0.42587   0.00000  Uiso   1.00
C301   C     0.18169   0.93338   0.25130   0.00000  Uiso   1.00
C302   C     0.15164   0.73329   0.24870   0.00000  Uiso   1.00
C303   C     0.09552   0.79161   0.03779   0.00000  Uiso   1.00
C304   C     0.24174   0.86144   0.45954   0.00000  Uiso   1.00
C305   C     0.05266   0.77881   0.01178   0.00000  Uiso   1.00
C306   C     0.28488   0.87330   0.48538   0.00000  Uiso   1.00
C307   C     0.19015   0.98934   0.25194   0.00000  Uiso   1.00
C308   C     0.14317   0.67733   0.24808   0.00000  Uiso   1.00
C309   C     0.12802   0.82934   0.33310   0.00000  Uiso   1.00
C310   C     0.20529   0.83701   0.16686   0.00000  Uiso   1.00
C311   C     0.10465   0.82218   0.38049   0.00000  Uiso   1.00
C312   C     0.22864   0.84146   0.11918   0.00000  Uiso   1.00
C313   C     0.02584   0.78090   0.44290   0.00000  Uiso   1.00
C314   C     0.31054   0.87388   0.05497   0.00000  Uiso   1.00
C315   C     0.04302   0.79452   0.39904   0.00000  Uiso   1.00
C316   C     0.29202   0.86400   0.09960   0.00000  Uiso   1.00
C317   C     0.14784   0.83820   0.40656   0.00000  Uiso   1.00
C318   C     0.18491   0.82633   0.09337   0.00000  Uiso   1.00
C319   C     0.13259   0.82346   0.45052   0.00000  Uiso   1.00
C320   C     0.20247   0.83505   0.04813   0.00000  Uiso   1.00
C321   C     0.07017   0.79456   0.46855   0.00000  Uiso   1.00
C322   C     0.26614   0.86060   0.02936   0.00000  Uiso   1.00
C323   C     0.17765   0.83573   0.47672   0.00000  Uiso   1.00
C324   C     0.15822   0.82083   0.02143   0.00000  Uiso   1.00
Cu325  Cu    0.10737   0.82775   0.24517   0.00000  Uiso   1.00
Cu326  Cu    0.22596   0.83892   0.25484   0.00000  Uiso   1.00
H327   H     0.00521   0.75631   0.02574   0.00000  Uiso   1.00
H328   H     0.00018   0.89276   0.47071   0.00000  Uiso   1.00
H329   H     0.32656   0.87584   0.11899   0.00000  Uiso   1.00
H330   H     0.00900   0.78179   0.37935   0.00000  Uiso   1.00
H331   H     0.31145   0.75883   0.45665   0.00000  Uiso   1.00
H332   H     0.02613   0.89275   0.04053   0.00000  Uiso   1.00
H333   H     0.23544   0.67978   0.25558   0.00000  Uiso   1.00
H334   H     0.09789   0.98689   0.24444   0.00000  Uiso   1.00
H335   H     0.00133   0.87172   0.28441   0.00000  Uiso   1.00
H336   H     0.33200   0.79495   0.21559   0.00000  Uiso   1.00
N337   N     0.31506   0.84735   0.26212   0.00000  Uiso   1.00
N338   N     0.01827   0.81932   0.23788   0.00000  Uiso   1.00
O339   O     0.12815   0.90476   0.24686   0.00000  Uiso   1.00
O340   O     0.20518   0.76191   0.25314   0.00000  Uiso   1.00
O341   O     0.22829   0.91420   0.25503   0.00000  Uiso   1.00
O342   O     0.10504   0.75247   0.24497   0.00000  Uiso   1.00
O343   O     0.08851   0.82597   0.30854   0.00000  Uiso   1.00
O344   O     0.24482   0.84070   0.19146   0.00000  Uiso   1.00
O345   O     0.18866   0.83540   0.31671   0.00000  Uiso   1.00
O346   O     0.14468   0.83126   0.18329   0.00000  Uiso   1.00
H347   H     0.13665   0.80959   0.10990   0.00000  Uiso   1.00
H348   H     0.19358   0.86150   0.39116   0.00000  Uiso   1.00
H349   H     0.07794   0.77667   0.07045   0.00000  Uiso   1.00
H350   H     0.26109   0.87229   0.42587   0.00000  Uiso   1.00
C351   C     0.51502   0.93338   0.25130   0.00000  Uiso   1.00
C352   C     0.48498   0.73329   0.24870   0.00000  Uiso   1.00
C353   C     0.42885   0.79161   0.03779   0.00000  Uiso   1.00
C354   C     0.57508   0.86144   0.45954   0.00000  Uiso   1.00
C355   C     0.38600   0.77881   0.01178   0.00000  Uiso   1.00
C356   C     0.61822   0.87330   0.48538   0.00000  Uiso   1.00
C357   C     0.52348   0.98934   0.25194   0.00000  Uiso   1.00
C358   C     0.47651   0.67733   0.24808   0.00000  Uiso   1.00
C359   C     0.46135   0.82934   0.33310   0.00000  Uiso   1.00
C360   C     0.53862   0.83701   0.16686   0.00000  Uiso   1.00
C361   C     0.43798   0.82218   0.38049   0.00000  Uiso   1.00
C362   C     0.56198   0.84146   0.11918   0.00000  Uiso   1.00
C363   C     0.35918   0.78090   0.44290   0.00000  Uiso   1.00
C364   C     0.64388   0.87388   0.05497   0.00000  Uiso   1.00
C365   C     0.37636   0.79452   0.39904   0.00000  Uiso   1.00
C366   C     0.62535   0.86400   0.09960   0.00000  Uiso   1.00
C367   C     0.48117   0.83820   0.40656   0.00000  Uiso   1.00
C368   C     0.51824   0.82633   0.09337   0.00000  Uiso   1.00
C369   C     0.46593   0.82346   0.45052   0.00000  Uiso   1.00
C370   C     0.53580   0.83505   0.04813   0.00000  Uiso   1.00
C371   C     0.40350   0.79456   0.46855   0.00000  Uiso   1.00
C372   C     0.59948   0.86060   0.02936   0.00000  Uiso   1.00
C373   C     0.51098   0.83573   0.47672   0.00000  Uiso   1.00
C374   C     0.49155   0.82083   0.02143   0.00000  Uiso   1.00
Cu375  Cu    0.44071   0.82775   0.24517   0.00000  Uiso   1.00
Cu376  Cu    0.55929   0.83892   0.25484   0.00000  Uiso   1.00
H377   H     0.33855   0.75631   0.02574   0.00000  Uiso   1.00
H378   H     0.33351   0.89276   0.47071   0.00000  Uiso   1.00
H379   H     0.65989   0.87584   0.11899   0.00000  Uiso   1.00
H380   H     0.34233   0.78179   0.37935   0.00000  Uiso   1.00
H381   H     0.64478   0.75883   0.45665   0.00000  Uiso   1.00
H382   H     0.35947   0.89275   0.04053   0.00000  Uiso   1.00
H383   H     0.56877   0.67978   0.25558   0.00000  Uiso   1.00
H384   H     0.43122   0.98689   0.24444   0.00000  Uiso   1.00
H385   H     0.33466   0.87172   0.28441   0.00000  Uiso   1.00
H386   H     0.66534   0.79495   0.21559   0.00000  Uiso   1.00
N387   N     0.64839   0.84735   0.26212   0.00000  Uiso   1.00
N388   N     0.35161   0.81932   0.23788   0.00000  Uiso   1.00
O389   O     0.46148   0.90476   0.24686   0.00000  Uiso   1.00
O390   O     0.53852   0.76191   0.25314   0.00000  Uiso   1.00
O391   O     0.56163   0.91420   0.25503   0.00000  Uiso   1.00
O392   O     0.43837   0.75247   0.24497   0.00000  Uiso   1.00
O393   O     0.42185   0.82597   0.30854   0.00000  Uiso   1.00
O394   O     0.57815   0.84070   0.19146   0.00000  Uiso   1.00
O395   O     0.52199   0.83540   0.31671   0.00000  Uiso   1.00
O396   O     0.47801   0.83126   0.18329   0.00000  Uiso   1.00
H397   H     0.46998   0.80959   0.10990   0.00000  Uiso   1.00
H398   H     0.52691   0.86150   0.39116   0.00000  Uiso   1.00
H399   H     0.41128   0.77667   0.07045   0.00000  Uiso   1.00
H400   H     0.59442   0.87229   0.42587   0.00000  Uiso   1.00
C401   C     0.84835   0.93338   0.25130   0.00000  Uiso   1.00
C402   C     0.81831   0.73329   0.24870   0.00000  Uiso   1.00
C403   C     0.76218   0.79161   0.03779   0.00000  Uiso   1.00
C404   C     0.90841   0.86144   0.45954   0.00000  Uiso   1.00
C405   C     0.71933   0.77881   0.01178   0.00000  Uiso   1.00
C406   C     0.95155   0.87330   0.48538   0.00000  Uiso   1.00
C407   C     0.85682   0.98934   0.25194   0.00000  Uiso   1.00
C408   C     0.80984   0.67733   0.24808   0.00000  Uiso   1.00
C409   C     0.79469   0.82934   0.33310   0.00000  Uiso   1.00
C410   C     0.87195   0.83701   0.16686   0.00000  Uiso   1.00
C411   C     0.77132   0.82218   0.38049   0.00000  Uiso   1.00
C412   C     0.89531   0.84146   0.11918   0.00000  Uiso   1.00
C413   C     0.69251   0.78090   0.44290   0.00000  Uiso   1.00
C414   C     0.97721   0.87388   0.05497   0.00000  Uiso   1.00
C415   C     0.70969   0.79452   0.39904   0.00000  Uiso   1.00
C416   C     0.95869   0.86400   0.09960   0.00000  Uiso   1.00
C417   C     0.81450   0.83820   0.40656   0.00000  Uiso   1.00
C418   C     0.85158   0.82633   0.09337   0.00000  Uiso   1.00
C419   C     0.79926   0.82346   0.45052   0.00000  Uiso   1.00
C420   C     0.86914   0.83505   0.04813   0.00000  Uiso   1.00
C421   C     0.73684   0.79456   0.46855   0.00000  Uiso   1.00
C422   C     0.93281   0.86060   0.02936   0.00000  Uiso   1.00
C423   C     0.84432   0.83573   0.47672   0.00000  Uiso   1.00
C424   C     0.82489   0.82083   0.02143   0.00000  Uiso   1.00
Cu425  Cu    0.77404   0.82775   0.24517   0.00000  Uiso   1.00
Cu426  Cu    0.89263   0.83892   0.25484   0.00000  Uiso   1.00
H427   H     0.67188   0.75631   0.02574   0.00000  Uiso   1.00
H428   H     0.66685   0.89276   0.47071   0.00000  Uiso   1.00
H429   H     0.99323   0.87584   0.11899   0.00000  Uiso   1.00
H430   H     0.67567   0.78179   0.37935   0.00000  Uiso   1.00
H431   H     0.97811   0.75883   0.45665   0.00000  Uiso   1.00
H432   H     0.69280   0.89275   0.04053   0.00000  Uiso   1.00
H433   H     0.90210   0.67978   0.25558   0.00000  Uiso   1.00
H434   H     0.76455   0.98689   0.24444   0.00000  Uiso   1.00
H435   H     0.66800   0.87172   0.28441   0.00000  Uiso   1.00
H436   H     0.99867   0.79495   0.21559   0.00000  Uiso   1.00
N437   N     0.98173   0.84735   0.26212   0.00000  Uiso   1.00
N438   N     0.68494   0.81932   0.23788   0.00000  Uiso   1.00
O439   O     0.79482   0.90476   0.24686   0.00000  Uiso   1.00
O440   O     0.87185   0.76191   0.25314   0.00000  Uiso   1.00
O441   O     0.89496   0.91420   0.25503   0.00000  Uiso   1.00
O442   O     0.77171   0.75247   0.24497   0.00000  Uiso   1.00
O443   O     0.75518   0.82597   0.30854   0.00000  Uiso   1.00
O444   O     0.91149   0.84070   0.19146   0.00000  Uiso   1.00
O445   O     0.85532   0.83540   0.31671   0.00000  Uiso   1.00
O446   O     0.81134   0.83126   0.18329   0.00000  Uiso   1.00
H447   H     0.80331   0.80959   0.10990   0.00000  Uiso   1.00
H448   H     0.86024   0.86150   0.39116   0.00000  Uiso   1.00
H449   H     0.74461   0.77667   0.07045   0.00000  Uiso   1.00
H450   H     0.92775   0.87229   0.42587   0.00000  Uiso   1.00
C451   C     0.18169   0.26671   0.75130   0.00000  Uiso   1.00
C452   C     0.15164   0.06662   0.74870   0.00000  Uiso   1.00
C453   C     0.09552   0.12494   0.53779   0.00000  Uiso   1.00
C454   C     0.24174   0.19477   0.95954   0.00000  Uiso   1.00
C455   C     0.05266   0.11214   0.51178   0.00000  Uiso   1.00
C456   C     0.28488   0.20663   0.98538   0.00000  Uiso   1.00
C457   C     0.19015   0.32267   0.75194   0.00000  Uiso   1.00
C458   C     0.14317   0.01066   0.74808   0.00000  Uiso   1.00
C459   C     0.12802   0.16267   0.83310   0.00000  Uiso   1.00
C460   C     0.20529   0.17034   0.66686   0.00000  Uiso   1.00
C461   C     0.10465   0.15552   0.88049   0.00000  Uiso   1.00
C462   C     0.22864   0.17480   0.61918   0.00000  Uiso   1.00
C463   C     0.02584   0.11423   0.94290   0.00000  Uiso   1.00
C464   C     0.31054   0.20722   0.55497   0.00000  Uiso   1.00
C465   C     0.04302   0.12785   0.89904   0.00000  Uiso   1.00
C466   C     0.29202   0.19733   0.59960   0.00000  Uiso   1.00
C467   C     0.14784   0.17153   0.90656   0.00000  Uiso   1.00
C468   C     0.18491   0.15966   0.59337   0.00000  Uiso   1.00
C469   C     0.13259   0.15679   0.95052   0.00000  Uiso   1.00
C470   C     0.20247   0.16839   0.54813   0.00000  Uiso   1.00
C471   C     0.07017   0.12789   0.96855   0.00000  Uiso   1.00
C472   C     0.26614   0.19393   0.52936   0.00000  Uiso   1.00
C473   C     0.17765   0.16906   0.97672   0.00000  Uiso   1.00
C474   C     0.15822   0.15416   0.52143   0.00000  Uiso   1.00
Cu475  Cu    0.10737   0.16108   0.74517   0.00000  Uiso   1.00
Cu476  Cu    0.22596   0.17225   0.75484   0.00000  Uiso   1.00
H477   H     0.00521   0.08965   0.52574   0.00000  Uiso   1.00
H478   H     0.00018   0.22610   0.97071   0.00000  Uiso   1.00
H479   H     0.32656   0.20917   0.61899   0.00000  Uiso   1.00
H480   H     0.00900   0.11512   0.87935   0.00000  Uiso   1.00
H481   H     0.31145   0.09216   0.95665   0.00000  Uiso   1.00
H482   H     0.02613   0.22608   0.54053   0.00000  Uiso   1.00
H483   H     0.23544   0.01311   0.75558   0.00000  Uiso   1.00
H484   H     0.09789   0.32022   0.74444   0.00000  Uiso   1.00
H485   H     0.00133   0.20505   0.78441   0.00000  Uiso   1.00
H486   H     0.33200   0.12828   0.71559   0.00000  Uiso   1.00
N487   N     0.31506   0.18068   0.76212   0.00000  Uiso   1.00
N488   N     0.01827   0.15265   0.73788   0.00000  Uiso   1.00
O489   O     0.12815   0.23809   0.74686   0.00000  Uiso   1.00
O490   O     0.20518   0.09524   0.75314   0.00000  Uiso   1.00
O491   O     0.22829   0.24753   0.75503   0.00000  Uiso   1.00
O492   O     0.10504   0.08580   0.74497   0.00000  Uiso   1.00
O493   O     0.08851   0.15930   0.80854   0.00000  Uiso   1.00
O494   O     0.24482   0.17403   0.69146   0.00000  Uiso   1.00
O495   O     0.18866   0.16874   0.81671   0.00000  Uiso   1.00
O496   O     0.14468   0.16460   0.68329   0.00000  Uiso   1.00
H497   H     0.13665   0.14292   0.60990   0.00000  Uiso   1.00
H498   H     0.19358   0.19483   0.89116   0.00000  Uiso   1.00
H499   H     0.07794   0.11001   0.57045   0.00000  Uiso   1.00
H500   H     0.26109   0.20563   0.92587   0.00000  Uiso   1.00
C501   C     0.51502   0.26671   0.75130   0.00000  Uiso   1.00
C502   C     0.48498   0.06662   0.74870   0.00000  Uiso   1.00
C503   C     0.42885   0.12494   0.53779   0.00000  Uiso   1.00
C504   C     0.57508   0.19477   0.95954   0.00000  Uiso   1.00
C505   C     0.38600   0.11214   0.51178   0.00000  Uiso   1.00
C506   C     0.61822   0.20663   0.98538   0.00000  Uiso   1.00
C507   C     0.52348   0.32267   0.75194   0.00000  Uiso   1.00
C508   C     0.47651   0.01066   0.74808   0.00000  Uiso   1.00
C509   C     0.46135   0.16267   0.83310   0.00000  Uiso   1.00
C510   C     0.53862   0.17034   0.66686   0.00000  Uiso   1.00
C511   C     0.43798   0.15552   0.88049   0.00000  Uiso   1.00
C512   C     0.56198   0.17480   0.61918   0.00000  Uiso   1.00
C513   C     0.35918   0.11423   0.94290   0.00000  Uiso   1.00
C514   C     0.64388   0.20722   0.55497   0.00000  Uiso   1.00
C515   C     0.37636   0.12785   0.89904   0.00000  Uiso   1.00
C516   C     0.62535   0.19733   0.59960   0.00000  Uiso   1.00
C517   C     0.48117   0.17153   0.90656   0.00000  Uiso   1.00
C518   C     0.51824   0.15966   0.59337   0.00000  Uiso   1.00
C519   C     0.46593   0.15679   0.95052   0.00000  Uiso   1.00
C520   C     0.53580   0.16839   0.54813   0.00000  Uiso   1.00
C521   C     0.40350   0.12789   0.96855   0.00000  Uiso   1.00
C522   C     0.59948   0.19393   0.52936   0.00000  Uiso   1.00
C523   C     0.51098   0.16906   0.97672   0.00000  Uiso   1.00
C524   C     0.49155   0.15416   0.52143   0.00000  Uiso   1.00
Cu525  Cu    0.44071   0.16108   0.74517   0.00000  Uiso   1.00
Cu526  Cu    0.55929   0.17225   0.75484   0.00000  Uiso   1.00
H527   H     0.33855   0.08965   0.52574   0.00000  Uiso   1.00
H528   H     0.33351   0.22610   0.97071   0.00000  Uiso   1.00
H529   H     0.65989   0.20917   0.61899   0.00000  Uiso   1.00
H530   H     0.34233   0.11512   0.87935   0.00000  Uiso   1.00
H531   H     0.64478   0.09216   0.95665   0.00000  Uiso   1.00
H532   H     0.35947   0.22608   0.54053   0.00000  Uiso   1.00
H533   H     0.56877   0.01311   0.75558   0.00000  Uiso   1.00
H534   H     0.43122   0.32022   0.74444   0.00000  Uiso   1.00
H535   H     0.33466   0.20505   0.78441   0.00000  Uiso   1.00
H536   H     0.66534   0.12828   0.71559   0.00000  Uiso   1.00
N537   N     0.64839   0.18068   0.76212   0.00000  Uiso   1.00
N538   N     0.35161   0.15265   0.73788   0.00000  Uiso   1.00
O539   O     0.46148   0.23809   0.74686   0.00000  Uiso   1.00
O540   O     0.53852   0.09524   0.75314   0.00000  Uiso   1.00
O541   O     0.56163   0.24753   0.75503   0.00000  Uiso   1.00
O542   O     0.43837   0.08580   0.74497   0.00000  Uiso   1.00
O543   O     0.42185   0.15930   0.80854   0.00000  Uiso   1.00
O544   O     0.57815   0.17403   0.69146   0.00000  Uiso   1.00
O545   O     0.52199   0.16874   0.81671   0.00000  Uiso   1.00
O546   O     0.47801   0.16460   0.68329   0.00000  Uiso   1.00
H547   H     0.46998   0.14292   0.60990   0.00000  Uiso   1.00
H548   H     0.52691   0.19483   0.89116   0.00000  Uiso   1.00
H549   H     0.41128   0.11001   0.57045   0.00000  Uiso   1.00
H550   H     0.59442   0.20563   0.92587   0.00000  Uiso   1.00
C551   C     0.84835   0.26671   0.75130   0.00000  Uiso   1.00
C552   C     0.81831   0.06662   0.74870   0.00000  Uiso   1.00
C553   C     0.76218   0.12494   0.53779   0.00000  Uiso   1.00
C554   C     0.90841   0.19477   0.95954   0.00000  Uiso   1.00
C555   C     0.71933   0.11214   0.51178   0.00000  Uiso   1.00
C556   C     0.95155   0.20663   0.98538   0.00000  Uiso   1.00
C557   C     0.85682   0.32267   0.75194   0.00000  Uiso   1.00
C558   C     0.80984   0.01066   0.74808   0.00000  Uiso   1.00
C559   C     0.79469   0.16267   0.83310   0.00000  Uiso   1.00
C560   C     0.87195   0.17034   0.66686   0.00000  Uiso   1.00
C561   C     0.77132   0.15552   0.88049   0.00000  Uiso   1.00
C562   C     0.89531   0.17480   0.61918   0.00000  Uiso   1.00
C563   C     0.69251   0.11423   0.94290   0.00000  Uiso   1.00
C564   C     0.97721   0.20722   0.55497   0.00000  Uiso   1.00
C565   C     0.70969   0.12785   0.89904   0.00000  Uiso   1.00
C566   C     0.95869   0.19733   0.59960   0.00000  Uiso   1.00
C567   C     0.81450   0.17153   0.90656   0.00000  Uiso   1.00
C568   C     0.85158   0.15966   0.59337   0.00000  Uiso   1.00
C569   C     0.79926   0.15679   0.95052   0.00000  Uiso   1.00
C570   C     0.86914   0.16839   0.54813   0.00000  Uiso   1.00
C571   C     0.73684   0.12789   0.96855   0.00000  Uiso   1.00
C572   C     0.93281   0.19393   0.52936   0.00000  Uiso   1.00
C573   C     0.84432   0.16906   0.97672   0.00000  Uiso   1.00
C574   C     0.82489   0.15416   0.52143   0.00000  Uiso   1.00
Cu575  Cu    0.77404   0.16108   0.74517   0.00000  Uiso   1.00
Cu576  Cu    0.89263   0.17225   0.75484   0.00000  Uiso   1.00
H577   H     0.67188   0.08965   0.52574   0.00000  Uiso   1.00
H578   H     0.66685   0.22610   0.97071   0.00000  Uiso   1.00
H579   H     0.99323   0.20917   0.61899   0.00000  Uiso   1.00
H580   H     0.67567   0.11512   0.87935   0.00000  Uiso   1.00
H581   H     0.97811   0.09216   0.95665   0.00000  Uiso   1.00
H582   H     0.69280   0.22608   0.54053   0.00000  Uiso   1.00
H583   H     0.90210   0.01311   0.75558   0.00000  Uiso   1.00
H584   H     0.76455   0.32022   0.74444   0.00000  Uiso   1.00
H585   H     0.66800   0.20505   0.78441   0.00000  Uiso   1.00
H586   H     0.99867   0.12828   0.71559   0.00000  Uiso   1.00
N587   N     0.98173   0.18068   0.76212   0.00000  Uiso   1.00
N588   N     0.68494   0.15265   0.73788   0.00000  Uiso   1.00
O589   O     0.79482   0.23809   0.74686   0.00000  Uiso   1.00
O590   O     0.87185   0.09524   0.75314   0.00000  Uiso   1.00
O591   O     0.89496   0.24753   0.75503   0.00000  Uiso   1.00
O592   O     0.77171   0.08580   0.74497   0.00000  Uiso   1.00
O593   O     0.75518   0.15930   0.80854   0.00000  Uiso   1.00
O594   O     0.91149   0.17403   0.69146   0.00000  Uiso   1.00
O595   O     0.85532   0.16874   0.81671   0.00000  Uiso   1.00
O596   O     0.81134   0.16460   0.68329   0.00000  Uiso   1.00
H597   H     0.80331   0.14292   0.60990   0.00000  Uiso   1.00
H598   H     0.86024   0.19483   0.89116   0.00000  Uiso   1.00
H599   H     0.74461   0.11001   0.57045   0.00000  Uiso   1.00
H600   H     0.92775   0.20563   0.92587   0.00000  Uiso   1.00
C601   C     0.18169   0.60005   0.75130   0.00000  Uiso   1.00
C602   C     0.15164   0.39995   0.74870   0.00000  Uiso   1.00
C603   C     0.09552   0.45828   0.53779   0.00000  Uiso   1.00
C604   C     0.24174   0.52810   0.95954   0.00000  Uiso   1.00
C605   C     0.05266   0.44548   0.51178   0.00000  Uiso   1.00
C606   C     0.28488   0.53997   0.98538   0.00000  Uiso   1.00
C607   C     0.19015   0.65601   0.75194   0.00000  Uiso   1.00
C608   C     0.14317   0.34399   0.74808   0.00000  Uiso   1.00
C609   C     0.12802   0.49601   0.83310   0.00000  Uiso   1.00
C610   C     0.20529   0.50368   0.66686   0.00000  Uiso   1.00
C611   C     0.10465   0.48885   0.88049   0.00000  Uiso   1.00
C612   C     0.22864   0.50813   0.61918   0.00000  Uiso   1.00
C613   C     0.02584   0.44757   0.94290   0.00000  Uiso   1.00
C614   C     0.31054   0.54055   0.55497   0.00000  Uiso   1.00
C615   C     0.04302   0.46118   0.89904   0.00000  Uiso   1.00
C616   C     0.29202   0.53066   0.59960   0.00000  Uiso   1.00
C617   C     0.14784   0.50486   0.90656   0.00000  Uiso   1.00
C618   C     0.18491   0.49300   0.59337   0.00000  Uiso   1.00
C619   C     0.13259   0.49012   0.95052   0.00000  Uiso   1.00
C620   C     0.20247   0.50172   0.54813   0.00000  Uiso   1.00
C621   C     0.07017   0.46123   0.96855   0.00000  Uiso   1.00
C622   C     0.26614   0.52727   0.52936   0.00000  Uiso   1.00
C623   C     0.17765   0.50239   0.97672   0.00000  Uiso   1.00
C624   C     0.15822   0.48749   0.52143   0.00000  Uiso   1.00
Cu625  Cu    0.10737   0.49441   0.74517   0.00000  Uiso   1.00
Cu626  Cu    0.22596   0.50559   0.75484   0.00000  Uiso   1.00
H627   H     0.00521   0.42298   0.52574   0.00000  Uiso   1.00
H628   H     0.00018   0.55943   0.97071   0.00000  Uiso   1.00
H629   H     0.32656   0.54251   0.61899   0.00000  Uiso   1.00
H630   H     0.00900   0.44846   0.87935   0.00000  Uiso   1.00
H631   H     0.31145   0.42549   0.95665   0.00000  Uiso   1.00
H632   H     0.02613   0.55941   0.54053   0.00000  Uiso   1.00
H633   H     0.23544   0.34644   0.75558   0.00000  Uiso   1.00
H634   H     0.09789   0.65356   0.74444   0.00000  Uiso   1.00
H635   H     0.00133   0.53838   0.78441   0.00000  Uiso   1.00
H636   H     0.33200   0.46162   0.71559   0.00000  Uiso   1.00
N637   N     0.31506   0.51401   0.76212   0.00000  Uiso   1.00
N638   N     0.01827   0.48599   0.73788   0.00000  Uiso   1.00
O639   O     0.12815   0.57142   0.74686   0.00000  Uiso   1.00
O640   O     0.20518   0.42858   0.75314   0.00000  Uiso   1.00
O641   O     0.22829   0.58086   0.75503   0.00000  Uiso   1.00
O642   O     0.10504   0.41914   0.74497   0.00000  Uiso   1.00
O643   O     0.08851   0.49263   0.80854   0.00000  Uiso   1.00
O644   O     0.24482   0.50737   0.69146   0.00000  Uiso   1.00
O645   O     0.18866   0.50207   0.81671   0.00000  Uiso   1.00
O646   O     0.14468   0.49793   0.68329   0.00000  Uiso   1.00
H647   H     0.13665   0.47626   0.60990   0.00000  Uiso   1.00
H648   H     0.19358   0.52816   0.89116   0.00000  Uiso   1.00
H649   H     0.07794   0.44334   0.57045   0.00000  Uiso   1.00
H650   H     0.26109   0.53896   0.92587   0.00000  Uiso   1.00
C651   C     0.51502   0.60005   0.75130   0.00000  Uiso   1.00
C652   C     0.48498   0.39995   0.74870   0.00000  Uiso   1.00
C653   C     0.42885   0.45828   0.53779   0.00000  Uiso   1.00
C654   C     0.57508   0.52810   0.95954   0.00000  Uiso   1.00
C655   C     0.38600   0.44548   0.51178   0.00000  Uiso   1.00
C656   C     0.61822   0.53997   0.98538   0.00000  Uiso   1.00
C657   C     0.52348   0.65601   0.75194   0.00000  Uiso   1.00
C658   C     0.47651   0.34399   0.74808   0.00000  Uiso   1.00
C659   C     0.46135   0.49601   0.83310   0.00000  Uiso   1.00
C660   C     0.53862   0.50368   0.66686   0.00000  Uiso   1.00
C661   C     0.43798   0.48885   0.88049   0.00000  Uiso   1.00
C662   C     0.56198   0.50813   0.61918   0.00000  Uiso   1.00
C663   C     0.35918   0.44757   0.94290   0.00000  Uiso   1.00
C664   C     0.64388   0.54055   0.55497   0.00000  Uiso   1.00
C665   C     0.37636   0.46118   0.89904   0.00000  Uiso   1.00
C666   C     0.62535   0.53066   0.59960   0.00000  Uiso   1.00
C667   C     0.48117   0.50486   0.90656   0.00000  Uiso   1.00
C668   C     0.51824   0.49300   0.59337   0.00000  Uiso   1.00
C669   C     0.46593   0.49012   0.95052   0.00000  Uiso   1.00
C670   C     0.53580   0.50172   0.54813   0.00000  Uiso   1.00
C671   C     0.40350   0.46123   0.96855   0.00000  Uiso   1.00
C672   C     0.59948   0.52727   0.52936   0.00000  Uiso   1.00
C673   C     0.51098   0.50239   0.97672   0.00000  Uiso   1.00
C674   C     0.49155   0.48749   0.52143   0.00000  Uiso   1.00
Cu675  Cu    0.44071   0.49441   0.74517   0.00000  Uiso   1.00
Cu676  Cu    0.55929   0.50559   0.75484   0.00000  Uiso   1.00
H677   H     0.33855   0.42298   0.52574   0.00000  Uiso   1.00
H678   H     0.33351   0.55943   0.97071   0.00000  Uiso   1.00
H679   H     0.65989   0.54251   0.61899   0.00000  Uiso   1.00
H680   H     0.34233   0.44846   0.87935   0.00000  Uiso   1.00
H681   H     0.64478   0.42549   0.95665   0.00000  Uiso   1.00
H682   H     0.35947   0.55941   0.54053   0.00000  Uiso   1.00
H683   H     0.56877   0.34644   0.75558   0.00000  Uiso   1.00
H684   H     0.43122   0.65356   0.74444   0.00000  Uiso   1.00
H685   H     0.33466   0.53838   0.78441   0.00000  Uiso   1.00
H686   H     0.66534   0.46162   0.71559   0.00000  Uiso   1.00
N687   N     0.64839   0.51401   0.76212   0.00000  Uiso   1.00
N688   N     0.35161   0.48599   0.73788   0.00000  Uiso   1.00
O689   O     0.46148   0.57142   0.74686   0.00000  Uiso   1.00
O690   O     0.53852   0.42858   0.75314   0.00000  Uiso   1.00
O691   O     0.56163   0.58086   0.75503   0.00000  Uiso   1.00
O692   O     0.43837   0.41914   0.74497   0.00000  Uiso   1.00
O693   O     0.42185   0.49263   0.80854   0.00000  Uiso   1.00
O694   O     0.57815   0.50737   0.69146   0.00000  Uiso   1.00
O695   O     0.52199   0.50207   0.81671   0.00000  Uiso   1.00
O696   O     0.47801   0.49793   0.68329   0.00000  Uiso   1.00
H697   H     0.46998   0.47626   0.60990   0.00000  Uiso   1.00
H698   H     0.52691   0.52816   0.89116   0.00000  Uiso   1.00
H699   H     0.41128   0.44334   0.57045   0.00000  Uiso   1.00
H700   H     0.59442   0.53896   0.92587   0.00000  Uiso   1.00
C701   C     0.84835   0.60005   0.75130   0.00000  Uiso   1.00
C702   C     0.81831   0.39995   0.74870   0.00000  Uiso   1.00
C703   C     0.76218   0.45828   0.53779   0.00000  Uiso   1.00
C704   C     0.90841   0.52810   0.95954   0.00000  Uiso   1.00
C705   C     0.71933   0.44548   0.51178   0.00000  Uiso   1.00
C706   C     0.95155   0.53997   0.98538   0.00000  Uiso   1.00
C707   C     0.85682   0.65601   0.75194   0.00000  Uiso   1.00
C708   C     0.80984   0.34399   0.74808   0.00000  Uiso   1.00
C709   C     0.79469   0.49601   0.83310   0.00000  Uiso   1.00
C710   C     0.87195   0.50368   0.66686   0.00000  Uiso   1.00
C711   C     0.77132   0.48885   0.88049   0.00000  Uiso   1.00
C712   C     0.89531   0.50813   0.61918   0.00000  Uiso   1.00
C713   C     0.69251   0.44757   0.94290   0.00000  Uiso   1.00
C714   C     0.97721   0.54055   0.55497   0.00000  Uiso   1.00
C715   C     0.70969   0.46118   0.89904   0.00000  Uiso   1.00
C716   C     0.95869   0.53066   0.59960   0.00000  Uiso   1.00
C717   C     0.81450   0.50486   0.90656   0.00000  Uiso   1.00
C718   C     0.85158   0.49300   0.59337   0.00000  Uiso   1.00
C719   C     0.79926   0.49012   0.95052   0.00000  Uiso   1.00
C720   C     0.86914   0.50172   0.54813   0.00000  Uiso   1.00
C721   C     0.73684   0.46123   0.96855   0.00000  Uiso   1.00
C722   C     0.93281   0.52727   0.52936   0.00000  Uiso   1.00
C723   C     0.84432   0.50239   0.97672   0.00000  Uiso   1.00
C724   C     0.82489   0.48749   0.52143   0.00000  Uiso   1.00
Cu725  Cu    0.77404   0.49441   0.74517   0.00000  Uiso   1.00
Cu726  Cu    0.89263   0.50559   0.75484   0.00000  Uiso   1.00
H727   H     0.67188   0.42298   0.52574   0.00000  Uiso   1.00
H728   H     0.66685   0.55943   0.97071   0.00000  Uiso   1.00
H729   H     0.99323   0.54251   0.61899   0.00000  Uiso   1.00
H730   H     0.67567   0.44846   0.87935   0.00000  Uiso   1.00
H731   H     0.97811   0.42549   0.95665   0.00000  Uiso   1.00
H732   H     0.69280   0.55941   0.54053   0.00000  Uiso   1.00
H733   H     0.90210   0.34644   0.75558   0.00000  Uiso   1.00
H734   H     0.76455   0.65356   0.74444   0.00000  Uiso   1.00
H735   H     0.66800   0.53838   0.78441   0.00000  Uiso   1.00
H736   H     0.99867   0.46162   0.71559   0.00000  Uiso   1.00
N737   N     0.98173   0.51401   0.76212   0.00000  Uiso   1.00
N738   N     0.68494   0.48599   0.73788   0.00000  Uiso   1.00
O739   O     0.79482   0.57142   0.74686   0.00000  Uiso   1.00
O740   O     0.87185   0.42858   0.75314   0.00000  Uiso   1.00
O741   O     0.89496   0.58086   0.75503   0.00000  Uiso   1.00
O742   O     0.77171   0.41914   0.74497   0.00000  Uiso   1.00
O743   O     0.75518   0.49263   0.80854   0.00000  Uiso   1.00
O744   O     0.91149   0.50737   0.69146   0.00000  Uiso   1.00
O745   O     0.85532   0.50207   0.81671   0.00000  Uiso   1.00
O746   O     0.81134   0.49793   0.68329   0.00000  Uiso   1.00
H747   H     0.80331   0.47626   0.60990   0.00000  Uiso   1.00
H748   H     0.86024   0.52816   0.89116   0.00000  Uiso   1.00
H749   H     0.74461   0.44334   0.57045   0.00000  Uiso   1.00
H750   H     0.92775   0.53896   0.92587   0.00000  Uiso   1.00
C751   C     0.18169   0.93338   0.75130   0.00000  Uiso   1.00
C752   C     0.15164   0.73329   0.74870   0.00000  Uiso   1.00
C753   C     0.09552   0.79161   0.53779   0.00000  Uiso   1.00
C754   C     0.24174   0.86144   0.95954   0.00000  Uiso   1.00
C755   C     0.05266   0.77881   0.51178   0.00000  Uiso   1.00
C756   C     0.28488   0.87330   0.98538   0.00000  Uiso   1.00
C757   C     0.19015   0.98934   0.75194   0.00000  Uiso   1.00
C758   C     0.14317   0.67733   0.74808   0.00000  Uiso   1.00
C759   C     0.12802   0.82934   0.83310   0.00000  Uiso   1.00
C760   C     0.20529   0.83701   0.66686   0.00000  Uiso   1.00
C761   C     0.10465   0.82218   0.88049   0.00000  Uiso   1.00
C762   C     0.22864   0.84146   0.61918   0.00000  Uiso   1.00
C763   C     0.02584   0.78090   0.94290   0.00000  Uiso   1.00
C764   C     0.31054   0.87388   0.55497   0.00000  Uiso   1.00
C765   C     0.04302   0.79452   0.89904   0.00000  Uiso   1.00
C766   C     0.29202   0.86400   0.59960   0.00000  Uiso   1.00
C767   C     0.14784   0.83820   0.90656   0.00000  Uiso   1.00
C768   C     0.18491   0.82633   0.59337   0.00000  Uiso   1.00
C769   C     0.13259   0.82346   0.95052   0.00000  Uiso   1.00
C770   C     0.20247   0.83505   0.54813   0.00000  Uiso   1.00
C771   C     0.07017   0.79456   0.96855   0.00000  Uiso   1.00
C772   C     0.26614   0.86060   0.52936   0.00000  Uiso   1.00
C773   C     0.17765   0.83573   0.97672   0.00000  Uiso   1.00
C774   C     0.15822   0.82083   0.52143   0.00000  Uiso   1.00
Cu775  Cu    0.10737   0.82775   0.74517   0.00000  Uiso   1.00
Cu776  Cu    0.22596   0.83892   0.75484   0.00000  Uiso   1.00
H777   H     0.00521   0.75631   0.52574   0.00000  Uiso   1.00
H778   H     0.00018   0.89276   0.97071   0.00000  Uiso   1.00
H779   H     0.32656   0.87584   0.61899   0.00000  Uiso   1.00
H780   H     0.00900   0.78179   0.87935   0.00000  Uiso   1.00
H781   H     0.31145   0.75883   0.95665   0.00000  Uiso   1.00
H782   H     0.02613   0.89275   0.54053   0.00000  Uiso   1.00
H783   H     0.23544   0.67978   0.75558   0.00000  Uiso   1.00
H784   H     0.09789   0.98689   0.74444   0.00000  Uiso   1.00
H785   H     0.00133   0.87172   0.78441   0.00000  Uiso   1.00
H786   H     0.33200   0.79495   0.71559   0.00000  Uiso   1.00
N787   N     0.31506   0.84735   0.76212   0.00000  Uiso   1.00
N788   N     0.01827   0.81932   0.73788   0.00000  Uiso   1.00
O789   O     0.12815   0.90476   0.74686   0.00000  Uiso   1.00
O790   O     0.20518   0.76191   0.75314   0.00000  Uiso   1.00
O791   O     0.22829   0.91420   0.75503   0.00000  Uiso   1.00
O792   O     0.10504   0.75247   0.74497   0.00000  Uiso   1.00
O793   O     0.08851   0.82597   0.80854   0.00000  Uiso   1.00
O794   O     0.24482   0.84070   0.69146   0.00000  Uiso   1.00
O795   O     0.18866   0.83540   0.81671   0.00000  Uiso   1.00
O796   O     0.14468   0.83126   0.68329   0.00000  Uiso   1.00
H797   H     0.13665   0.80959   0.60990   0.00000  Uiso   1.00
H798   H     0.19358   0.86150   0.89116   0.00000  Uiso   1.00
H799   H     0.07794   0.77667   0.57045   0.00000  Uiso   1.00
H800   H     0.26109   0.87229   0.92587   0.00000  Uiso   1.00
C801   C     0.51502   0.93338   0.75130   0.00000  Uiso   1.00
C802   C     0.48498   0.73329   0.74870   0.00000  Uiso   1.00
C803   C     0.42885   0.79161   0.53779   0.00000  Uiso   1.00
C804   C     0.57508   0.86144   0.95954   0.00000  Uiso   1.00
C805   C     0.38600   0.77881   0.51178   0.00000  Uiso   1.00
C806   C     0.61822   0.87330   0.98538   0.00000  Uiso   1.00
C807   C     0.52348   0.98934   0.75194   0.00000  Uiso   1.00
C808   C     0.47651   0.67733   0.74808   0.00000  Uiso   1.00
C809   C     0.46135   0.82934   0.83310   0.00000  Uiso   1.00
C810   C     0.53862   0.83701   0.66686   0.00000  Uiso   1.00
C811   C     0.43798   0.82218   0.88049   0.00000  Uiso   1.00
C812   C     0.56198   0.84146   0.61918   0.00000  Uiso   1.00
C813   C     0.35918   0.78090   0.94290   0.00000  Uiso   1.00
C814   C     0.64388   0.87388   0.55497   0.00000  Uiso   1.00
C815   C     0.37636   0.79452   0.89904   0.00000  Uiso   1.00
C816   C     0.62535   0.86400   0.59960   0.00000  Uiso   1.00
C817   C     0.48117   0.83820   0.90656   0.00000  Uiso   1.00
C818   C     0.51824   0.82633   0.59337   0.00000  Uiso   1.00
C819   C     0.46593   0.82346   0.95052   0.00000  Uiso   1.00
C820   C     0.53580   0.83505   0.54813   0.00000  Uiso   1.00
C821   C     0.40350   0.79456   0.96855   0.00000  Uiso   1.00
C822   C     0.59948   0.86060   0.52936   0.00000  Uiso   1.00
C823   C     0.51098   0.83573   0.97672   0.00000  Uiso   1.00
C824   C     0.49155   0.82083   0.52143   0.00000  Uiso   1.00
Cu825  Cu    0.44071   0.82775   0.74517   0.00000  Uiso   1.00
Cu826  Cu    0.55929   0.83892   0.75484   0.00000  Uiso   1.00
H827   H     0.33855   0.75631   0.52574   0.00000  Uiso   1.00
H828   H     0.33351   0.89276   0.97071   0.00000  Uiso   1.00
H829   H     0.65989   0.87584   0.61899   0.00000  Uiso   1.00
H830   H     0.34233   0.78179   0.87935   0.00000  Uiso   1.00
H831   H     0.64478   0.75883   0.95665   0.00000  Uiso   1.00
H832   H     0.35947   0.89275   0.54053   0.00000  Uiso   1.00
H833   H     0.56877   0.67978   0.75558   0.00000  Uiso   1.00
H834   H     0.43122   0.98689   0.74444   0.00000  Uiso   1.00
H835   H     0.33466   0.87172   0.78441   0.00000  Uiso   1.00
H836   H     0.66534   0.79495   0.71559   0.00000  Uiso   1.00
N837   N     0.64839   0.84735   0.76212   0.00000  Uiso   1.00
N838   N     0.35161   0.81932   0.73788   0.00000  Uiso   1.00
O839   O     0.46148   0.90476   0.74686   0.00000  Uiso   1.00
O840   O     0.53852   0.76191   0.75314   0.00000  Uiso   1.00
O841   O     0.56163   0.91420   0.75503   0.00000  Uiso   1.00
O842   O     0.43837   0.75247   0.74497   0.00000  Uiso   1.00
O843   O     0.42185   0.82597   0.80854   0.00000  Uiso   1.00
O844   O     0.57815   0.84070   0.69146   0.00000  Uiso   1.00
O845   O     0.52199   0.83540   0.81671   0.00000  Uiso   1.00
O846   O     0.47801   0.83126   0.68329   0.00000  Uiso   1.00
H847   H     0.46998   0.80959   0.60990   0.00000  Uiso   1.00
H848   H     0.52691   0.86150   0.89116   0.00000  Uiso   1.00
H849   H     0.41128   0.77667   0.57045   0.00000  Uiso   1.00
H850   H     0.59442   0.87229   0.92587   0.00000  Uiso   1.00
C851   C     0.84835   0.93338   0.75130   0.00000  Uiso   1.00
C852   C     0.81831   0.73329   0.74870   0.00000  Uiso   1.00
C853   C     0.76218   0.79161   0.53779   0.00000  Uiso   1.00
C854   C     0.90841   0.86144   0.95954   0.00000  Uiso   1.00
C855   C     0.71933   0.77881   0.51178   0.00000  Uiso   1.00
C856   C     0.95155   0.87330   0.98538   0.00000  Uiso   1.00
C857   C     0.85682   0.98934   0.75194   0.00000  Uiso   1.00
C858   C     0.80984   0.67733   0.74808   0.00000  Uiso   1.00
C859   C     0.79469   0.82934   0.83310   0.00000  Uiso   1.00
C860   C     0.87195   0.83701   0.66686   0.00000  Uiso   1.00
C861   C     0.77132   0.82218   0.88049   0.00000  Uiso   1.00
C862   C     0.89531   0.84146   0.61918   0.00000  Uiso   1.00
C863   C     0.69251   0.78090   0.94290   0.00000  Uiso   1.00
C864   C     0.97721   0.87388   0.55497   0.00000  Uiso   1.00
C865   C     0.70969   0.79452   0.89904   0.00000  Uiso   1.00
C866   C     0.95869   0.86400   0.59960   0.00000  Uiso   1.00
C867   C     0.81450   0.83820   0.90656   0.00000  Uiso   1.00
C868   C     0.85158   0.82633   0.59337   0.00000  Uiso   1.00
C869   C     0.79926   0.82346   0.95052   0.00000  Uiso   1.00
C870   C     0.86914   0.83505   0.54813   0.00000  Uiso   1.00
C871   C     0.73684   0.79456   0.96855   0.00000  Uiso   1.00
C872   C     0.93281   0.86060   0.52936   0.00000  Uiso   1.00
C873   C     0.84432   0.83573   0.97672   0.00000  Uiso   1.00
C874   C     0.82489   0.82083   0.52143   0.00000  Uiso   1.00
Cu875  Cu    0.77404   0.82775   0.74517   0.00000  Uiso   1.00
Cu876  Cu    0.89263   0.83892   0.75484   0.00000  Uiso   1.00
H877   H     0.67188   0.75631   0.52574   0.00000  Uiso   1.00
H878   H     0.66685   0.89276   0.97071   0.00000  Uiso   1.00
H879   H     0.99323   0.87584   0.61899   0.00000  Uiso   1.00
H880   H     0.67567   0.78179   0.87935   0.00000  Uiso   1.00
H881   H     0.97811   0.75883   0.95665   0.00000  Uiso   1.00
H882   H     0.69280   0.89275   0.54053   0.00000  Uiso   1.00
H883   H     0.90210   0.67978   0.75558   0.00000  Uiso   1.00
H884   H     0.76455   0.98689   0.74444   0.00000  Uiso   1.00
H885   H     0.66800   0.87172   0.78441   0.00000  Uiso   1.00
H886   H     0.99867   0.79495   0.71559   0.00000  Uiso   1.00
N887   N     0.98173   0.84735   0.76212   0.00000  Uiso   1.00
N888   N     0.68494   0.81932   0.73788   0.00000  Uiso   1.00
O889   O     0.79482   0.90476   0.74686   0.00000  Uiso   1.00
O890   O     0.87185   0.76191   0.75314   0.00000  Uiso   1.00
O891   O     0.89496   0.91420   0.75503   0.00000  Uiso   1.00
O892   O     0.77171   0.75247   0.74497   0.00000  Uiso   1.00
O893   O     0.75518   0.82597   0.80854   0.00000  Uiso   1.00
O894   O     0.91149   0.84070   0.69146   0.00000  Uiso   1.00
O895   O     0.85532   0.83540   0.81671   0.00000  Uiso   1.00
O896   O     0.81134   0.83126   0.68329   0.00000  Uiso   1.00
H897   H     0.80331   0.80959   0.60990   0.00000  Uiso   1.00
H898   H     0.86024   0.86150   0.89116   0.00000  Uiso   1.00
H899   H     0.74461   0.77667   0.57045   0.00000  Uiso   1.00
H900   H     0.92775   0.87229   0.92587   0.00000  Uiso   1.00
loop_
_geom_bond_atom_site_label_1
_geom_bond_atom_site_label_2
_geom_bond_distance
_geom_bond_site_symmetry_2
_ccdc_geom_bond_type
C1     O41     1.286   .     A
C1     O39     1.292   .     A
C1     C7      1.428   .     S
C2     O42     1.286   .     A
C2     O40     1.292   .     A
C2     C8      1.428   .     S
C3     H49     1.076   .     S
C3     C24     1.417   .     A
C3     C5      1.387   .     A
C4     H50     1.075   .     S
C4     C6      1.387   .     A
C4     C23     1.417   .     A
C5     H27     1.084   .     S
C5     C471    1.390   1_554 S
C6     C472    1.389   .     S
C6     H78     1.085   .     S
C7     C158    1.328   .     S
C7     H183    1.088   .     S
C8     C307    1.328   1_545 S
C8     H334    1.088   1_545 S
C9     O45     1.295   .     A
C9     C11     1.468   .     S
C9     O43     1.302   .     A
C10    O46     1.296   .     A
C10    C12     1.469   .     S
C10    O44     1.303   .     A
C11    C17     1.400   .     A
C11    C15     1.397   .     A
C12    C18     1.401   .     A
C12    C16     1.398   .     A
C13    C21     1.405   .     A
C13    C15     1.393   .     A
C13    H131    1.084   1_455 S
C14    C22     1.405   .     A
C14    C16     1.393   .     A
C14    H82     1.084   .     S
C15    H30     1.083   .     S
C16    H29     1.083   .     S
C17    H48     1.075   .     S
C17    C19     1.406   .     A
C18    H47     1.074   .     S
C18    C20     1.406   .     A
C19    C23     1.430   .     A
C19    C21     1.418   .     A
C20    C22     1.418   .     A
C20    C24     1.429   .     A
C21    C455    1.390   .     S
C22    C456    1.389   1_554 S
C23    C474    1.426   .     S
C24    C473    1.426   1_554 S
Cu25   O42     1.952   .     S
Cu25   N38     2.021   .     S
Cu25   O43     1.943   .     S
Cu25   Cu26    2.689   .     S
Cu25   O39     1.956   .     S
Cu25   O46     1.922   .     S
Cu26   N37     2.021   .     S
Cu26   O40     1.956   .     S
Cu26   O44     1.943   .     S
Cu26   O45     1.922   .     S
Cu26   O41     1.952   .     S
H28    C106    1.085   1_455 S
H31    C63     1.084   .     S
H32    C114    1.084   1_455 S
H33    C307    1.088   1_545 S
H34    C158    1.088   .     S
H35    N137    1.029   1_455 S
H36    N88     1.029   .     S
N37    H85     1.029   .     S
N37    N88     1.286   .     S
N38    H136    1.029   1_455 S
N38    N137    1.286   1_455 S
C51    O91     1.286   .     A
C51    O89     1.292   .     A
C51    C57     1.428   .     S
C52    O92     1.286   .     A
C52    O90     1.292   .     A
C52    C58     1.428   .     S
C53    H99     1.076   .     S
C53    C74     1.417   .     A
C53    C55     1.387   .     A
C54    H100    1.075   .     S
C54    C56     1.387   .     A
C54    C73     1.417   .     A
C55    H77     1.084   .     S
C55    C521    1.390   1_554 S
C56    C522    1.389   .     S
C56    H128    1.085   .     S
C57    C208    1.328   .     S
C57    H233    1.088   .     S
C58    C357    1.328   1_545 S
C58    H384    1.088   1_545 S
C59    O95     1.295   .     A
C59    C61     1.468   .     S
C59    O93     1.302   .     A
C60    O96     1.296   .     A
C60    C62     1.469   .     S
C60    O94     1.303   .     A
C61    C67     1.400   .     A
C61    C65     1.397   .     A
C62    C68     1.401   .     A
C62    C66     1.398   .     A
C63    C71     1.405   .     A
C63    C65     1.393   .     A
C64    C72     1.405   .     A
C64    C66     1.393   .     A
C64    H132    1.084   .     S
C65    H80     1.083   .     S
C66    H79     1.083   .     S
C67    H98     1.075   .     S
C67    C69     1.406   .     A
C68    H97     1.074   .     S
C68    C70     1.406   .     A
C69    C73     1.430   .     A
C69    C71     1.418   .     A
C70    C72     1.418   .     A
C70    C74     1.429   .     A
C71    C505    1.390   .     S
C72    C506    1.389   1_554 S
C73    C524    1.426   .     S
C74    C523    1.426   1_554 S
Cu75   O92     1.952   .     S
Cu75   N88     2.021   .     S
Cu75   O93     1.943   .     S
Cu75   Cu76    2.689   .     S
Cu75   O89     1.956   .     S
Cu75   O96     1.922   .     S
Cu76   N87     2.021   .     S
Cu76   O90     1.956   .     S
Cu76   O94     1.943   .     S
Cu76   O95     1.922   .     S
Cu76   O91     1.952   .     S
H81    C113    1.084   .     S
H83    C357    1.088   1_545 S
H84    C208    1.088   .     S
H86    N138    1.029   .     S
N87    H135    1.029   .     S
N87    N138    1.286   .     S
C101   O141    1.286   .     A
C101   O139    1.292   .     A
C101   C107    1.428   .     S
C102   O142    1.286   .     A
C102   O140    1.292   .     A
C102   C108    1.428   .     S
C103   H149    1.076   .     S
C103   C124    1.417   .     A
C103   C105    1.387   .     A
C104   H150    1.075   .     S
C104   C106    1.387   .     A
C104   C123    1.417   .     A
C105   H127    1.084   .     S
C105   C571    1.390   1_554 S
C106   C572    1.389   .     S
C106   H28     1.085   1_655 S
C107   C258    1.328   .     S
C107   H283    1.088   .     S
C108   C407    1.328   1_545 S
C108   H434    1.088   1_545 S
C109   O145    1.295   .     A
C109   C111    1.468   .     S
C109   O143    1.302   .     A
C110   O146    1.296   .     A
C110   C112    1.469   .     S
C110   O144    1.303   .     A
C111   C117    1.400   .     A
C111   C115    1.397   .     A
C112   C118    1.401   .     A
C112   C116    1.398   .     A
C113   C121    1.405   .     A
C113   C115    1.393   .     A
C114   C122    1.405   .     A
C114   C116    1.393   .     A
C114   H32     1.084   1_655 S
C115   H130    1.083   .     S
C116   H129    1.083   .     S
C117   H148    1.075   .     S
C117   C119    1.406   .     A
C118   H147    1.074   .     S
C118   C120    1.406   .     A
C119   C123    1.430   .     A
C119   C121    1.418   .     A
C120   C122    1.418   .     A
C120   C124    1.429   .     A
C121   C555    1.390   .     S
C122   C556    1.389   1_554 S
C123   C574    1.426   .     S
C124   C573    1.426   1_554 S
Cu125  O142    1.952   .     S
Cu125  N138    2.021   .     S
Cu125  O143    1.943   .     S
Cu125  Cu126   2.689   .     S
Cu125  O139    1.956   .     S
Cu125  O146    1.922   .     S
Cu126  N137    2.021   .     S
Cu126  O140    1.956   .     S
Cu126  O144    1.943   .     S
Cu126  O145    1.922   .     S
Cu126  O141    1.952   .     S
H131   C13     1.084   1_655 S
H133   C407    1.088   1_545 S
H134   C258    1.088   .     S
H136   N38     1.029   1_655 S
N137   H35     1.029   1_655 S
N137   N38     1.286   1_655 S
C151   O191    1.286   .     A
C151   O189    1.292   .     A
C151   C157    1.428   .     S
C152   O192    1.286   .     A
C152   O190    1.292   .     A
C152   C158    1.428   .     S
C153   H199    1.076   .     S
C153   C174    1.417   .     A
C153   C155    1.387   .     A
C154   H200    1.075   .     S
C154   C156    1.387   .     A
C154   C173    1.417   .     A
C155   H177    1.084   .     S
C155   C621    1.390   1_554 S
C156   C622    1.389   .     S
C156   H228    1.085   .     S
C157   C308    1.328   .     S
C157   H333    1.088   .     S
C159   O195    1.295   .     A
C159   C161    1.468   .     S
C159   O193    1.302   .     A
C160   O196    1.296   .     A
C160   C162    1.469   .     S
C160   O194    1.303   .     A
C161   C167    1.400   .     A
C161   C165    1.397   .     A
C162   C168    1.401   .     A
C162   C166    1.398   .     A
C163   C171    1.405   .     A
C163   C165    1.393   .     A
C163   H281    1.084   1_455 S
C164   C172    1.405   .     A
C164   C166    1.393   .     A
C164   H232    1.084   .     S
C165   H180    1.083   .     S
C166   H179    1.083   .     S
C167   H198    1.075   .     S
C167   C169    1.406   .     A
C168   H197    1.074   .     S
C168   C170    1.406   .     A
C169   C173    1.430   .     A
C169   C171    1.418   .     A
C170   C172    1.418   .     A
C170   C174    1.429   .     A
C171   C605    1.390   .     S
C172   C606    1.389   1_554 S
C173   C624    1.426   .     S
C174   C623    1.426   1_554 S
Cu175  O192    1.952   .     S
Cu175  N188    2.021   .     S
Cu175  O193    1.943   .     S
Cu175  Cu176   2.689   .     S
Cu175  O189    1.956   .     S
Cu175  O196    1.922   .     S
Cu176  N187    2.021   .     S
Cu176  O190    1.956   .     S
Cu176  O194    1.943   .     S
Cu176  O195    1.922   .     S
Cu176  O191    1.952   .     S
H178   C256    1.085   1_455 S
H181   C213    1.084   .     S
H182   C264    1.084   1_455 S
H184   C308    1.088   .     S
H185   N287    1.029   1_455 S
H186   N238    1.029   .     S
N187   H235    1.029   .     S
N187   N238    1.286   .     S
N188   H286    1.029   1_455 S
N188   N287    1.286   1_455 S
C201   O241    1.286   .     A
C201   O239    1.292   .     A
C201   C207    1.428   .     S
C202   O242    1.286   .     A
C202   O240    1.292   .     A
C202   C208    1.428   .     S
C203   H249    1.076   .     S
C203   C224    1.417   .     A
C203   C205    1.387   .     A
C204   H250    1.075   .     S
C204   C206    1.387   .     A
C204   C223    1.417   .     A
C205   H227    1.084   .     S
C205   C671    1.390   1_554 S
C206   C672    1.389   .     S
C206   H278    1.085   .     S
C207   C358    1.328   .     S
C207   H383    1.088   .     S
C209   O245    1.295   .     A
C209   C211    1.468   .     S
C209   O243    1.302   .     A
C210   O246    1.296   .     A
C210   C212    1.469   .     S
C210   O244    1.303   .     A
C211   C217    1.400   .     A
C211   C215    1.397   .     A
C212   C218    1.401   .     A
C212   C216    1.398   .     A
C213   C221    1.405   .     A
C213   C215    1.393   .     A
C214   C222    1.405   .     A
C214   C216    1.393   .     A
C214   H282    1.084   .     S
C215   H230    1.083   .     S
C216   H229    1.083   .     S
C217   H248    1.075   .     S
C217   C219    1.406   .     A
C218   H247    1.074   .     S
C218   C220    1.406   .     A
C219   C223    1.430   .     A
C219   C221    1.418   .     A
C220   C222    1.418   .     A
C220   C224    1.429   .     A
C221   C655    1.390   .     S
C222   C656    1.389   1_554 S
C223   C674    1.426   .     S
C224   C673    1.426   1_554 S
Cu225  O242    1.952   .     S
Cu225  N238    2.021   .     S
Cu225  O243    1.943   .     S
Cu225  Cu226   2.689   .     S
Cu225  O239    1.956   .     S
Cu225  O246    1.922   .     S
Cu226  N237    2.021   .     S
Cu226  O240    1.956   .     S
Cu226  O244    1.943   .     S
Cu226  O245    1.922   .     S
Cu226  O241    1.952   .     S
H231   C263    1.084   .     S
H234   C358    1.088   .     S
H236   N288    1.029   .     S
N237   H285    1.029   .     S
N237   N288    1.286   .     S
C251   O291    1.286   .     A
C251   O289    1.292   .     A
C251   C257    1.428   .     S
C252   O292    1.286   .     A
C252   O290    1.292   .     A
C252   C258    1.428   .     S
C253   H299    1.076   .     S
C253   C274    1.417   .     A
C253   C255    1.387   .     A
C254   H300    1.075   .     S
C254   C256    1.387   .     A
C254   C273    1.417   .     A
C255   H277    1.084   .     S
C255   C721    1.390   1_554 S
C256   C722    1.389   .     S
C256   H178    1.085   1_655 S
C257   C408    1.328   .     S
C257   H433    1.088   .     S
C259   O295    1.295   .     A
C259   C261    1.468   .     S
C259   O293    1.302   .     A
C260   O296    1.296   .     A
C260   C262    1.469   .     S
C260   O294    1.303   .     A
C261   C267    1.400   .     A
C261   C265    1.397   .     A
C262   C268    1.401   .     A
C262   C266    1.398   .     A
C263   C271    1.405   .     A
C263   C265    1.393   .     A
C264   C272    1.405   .     A
C264   C266    1.393   .     A
C264   H182    1.084   1_655 S
C265   H280    1.083   .     S
C266   H279    1.083   .     S
C267   H298    1.075   .     S
C267   C269    1.406   .     A
C268   H297    1.074   .     S
C268   C270    1.406   .     A
C269   C273    1.430   .     A
C269   C271    1.418   .     A
C270   C272    1.418   .     A
C270   C274    1.429   .     A
C271   C705    1.390   .     S
C272   C706    1.389   1_554 S
C273   C724    1.426   .     S
C274   C723    1.426   1_554 S
Cu275  O292    1.952   .     S
Cu275  N288    2.021   .     S
Cu275  O293    1.943   .     S
Cu275  Cu276   2.689   .     S
Cu275  O289    1.956   .     S
Cu275  O296    1.922   .     S
Cu276  N287    2.021   .     S
Cu276  O290    1.956   .     S
Cu276  O294    1.943   .     S
Cu276  O295    1.922   .     S
Cu276  O291    1.952   .     S
H281   C163    1.084   1_655 S
H284   C408    1.088   .     S
H286   N188    1.029   1_655 S
N287   H185    1.029   1_655 S
N287   N188    1.286   1_655 S
C301   O341    1.286   .     A
C301   O339    1.292   .     A
C301   C307    1.428   .     S
C302   O342    1.286   .     A
C302   O340    1.292   .     A
C302   C308    1.428   .     S
C303   H349    1.076   .     S
C303   C324    1.417   .     A
C303   C305    1.387   .     A
C304   H350    1.075   .     S
C304   C306    1.387   .     A
C304   C323    1.417   .     A
C305   H327    1.084   .     S
C305   C771    1.390   1_554 S
C306   C772    1.389   .     S
C306   H378    1.085   .     S
C307   C8      1.328   1_565 S
C307   H33     1.088   1_565 S
C309   O345    1.295   .     A
C309   C311    1.468   .     S
C309   O343    1.302   .     A
C310   O346    1.296   .     A
C310   C312    1.469   .     S
C310   O344    1.303   .     A
C311   C317    1.400   .     A
C311   C315    1.397   .     A
C312   C318    1.401   .     A
C312   C316    1.398   .     A
C313   C321    1.405   .     A
C313   C315    1.393   .     A
C313   H431    1.084   1_455 S
C314   C322    1.405   .     A
C314   C316    1.393   .     A
C314   H382    1.084   .     S
C315   H330    1.083   .     S
C316   H329    1.083   .     S
C317   H348    1.075   .     S
C317   C319    1.406   .     A
C318   H347    1.074   .     S
C318   C320    1.406   .     A
C319   C323    1.430   .     A
C319   C321    1.418   .     A
C320   C322    1.418   .     A
C320   C324    1.429   .     A
C321   C755    1.390   .     S
C322   C756    1.389   1_554 S
C323   C774    1.426   .     S
C324   C773    1.426   1_554 S
Cu325  O342    1.952   .     S
Cu325  N338    2.021   .     S
Cu325  O343    1.943   .     S
Cu325  Cu326   2.689   .     S
Cu325  O339    1.956   .     S
Cu325  O346    1.922   .     S
Cu326  N337    2.021   .     S
Cu326  O340    1.956   .     S
Cu326  O344    1.943   .     S
Cu326  O345    1.922   .     S
Cu326  O341    1.952   .     S
H328   C406    1.085   1_455 S
H331   C363    1.084   .     S
H332   C414    1.084   1_455 S
H334   C8      1.088   1_565 S
H335   N437    1.029   1_455 S
H336   N388    1.029   .     S
N337   H385    1.029   .     S
N337   N388    1.286   .     S
N338   H436    1.029   1_455 S
N338   N437    1.286   1_455 S
C351   O391    1.286   .     A
C351   O389    1.292   .     A
C351   C357    1.428   .     S
C352   O392    1.286   .     A
C352   O390    1.292   .     A
C352   C358    1.428   .     S
C353   H399    1.076   .     S
C353   C374    1.417   .     A
C353   C355    1.387   .     A
C354   H400    1.075   .     S
C354   C356    1.387   .     A
C354   C373    1.417   .     A
C355   H377    1.084   .     S
C355   C821    1.390   1_554 S
C356   C822    1.389   .     S
C356   H428    1.085   .     S
C357   C58     1.328   1_565 S
C357   H83     1.088   1_565 S
C359   O395    1.295   .     A
C359   C361    1.468   .     S
C359   O393    1.302   .     A
C360   O396    1.296   .     A
C360   C362    1.469   .     S
C360   O394    1.303   .     A
C361   C367    1.400   .     A
C361   C365    1.397   .     A
C362   C368    1.401   .     A
C362   C366    1.398   .     A
C363   C371    1.405   .     A
C363   C365    1.393   .     A
C364   C372    1.405   .     A
C364   C366    1.393   .     A
C364   H432    1.084   .     S
C365   H380    1.083   .     S
C366   H379    1.083   .     S
C367   H398    1.075   .     S
C367   C369    1.406   .     A
C368   H397    1.074   .     S
C368   C370    1.406   .     A
C369   C373    1.430   .     A
C369   C371    1.418   .     A
C370   C372    1.418   .     A
C370   C374    1.429   .     A
C371   C805    1.390   .     S
C372   C806    1.389   1_554 S
C373   C824    1.426   .     S
C374   C823    1.426   1_554 S
Cu375  O392    1.952   .     S
Cu375  N388    2.021   .     S
Cu375  O393    1.943   .     S
Cu375  Cu376   2.689   .     S
Cu375  O389    1.956   .     S
Cu375  O396    1.922   .     S
Cu376  N387    2.021   .     S
Cu376  O390    1.956   .     S
Cu376  O394    1.943   .     S
Cu376  O395    1.922   .     S
Cu376  O391    1.952   .     S
H381   C413    1.084   .     S
H384   C58     1.088   1_565 S
H386   N438    1.029   .     S
N387   H435    1.029   .     S
N387   N438    1.286   .     S
C401   O441    1.286   .     A
C401   O439    1.292   .     A
C401   C407    1.428   .     S
C402   O442    1.286   .     A
C402   O440    1.292   .     A
C402   C408    1.428   .     S
C403   H449    1.076   .     S
C403   C424    1.417   .     A
C403   C405    1.387   .     A
C404   H450    1.075   .     S
C404   C406    1.387   .     A
C404   C423    1.417   .     A
C405   H427    1.084   .     S
C405   C871    1.390   1_554 S
C406   C872    1.389   .     S
C406   H328    1.085   1_655 S
C407   C108    1.328   1_565 S
C407   H133    1.088   1_565 S
C409   O445    1.295   .     A
C409   C411    1.468   .     S
C409   O443    1.302   .     A
C410   O446    1.296   .     A
C410   C412    1.469   .     S
C410   O444    1.303   .     A
C411   C417    1.400   .     A
C411   C415    1.397   .     A
C412   C418    1.401   .     A
C412   C416    1.398   .     A
C413   C421    1.405   .     A
C413   C415    1.393   .     A
C414   C422    1.405   .     A
C414   C416    1.393   .     A
C414   H332    1.084   1_655 S
C415   H430    1.083   .     S
C416   H429    1.083   .     S
C417   H448    1.075   .     S
C417   C419    1.406   .     A
C418   H447    1.074   .     S
C418   C420    1.406   .     A
C419   C423    1.430   .     A
C419   C421    1.418   .     A
C420   C422    1.418   .     A
C420   C424    1.429   .     A
C421   C855    1.390   .     S
C422   C856    1.389   1_554 S
C423   C874    1.426   .     S
C424   C873    1.426   1_554 S
Cu425  O442    1.952   .     S
Cu425  N438    2.021   .     S
Cu425  O443    1.943   .     S
Cu425  Cu426   2.689   .     S
Cu425  O439    1.956   .     S
Cu425  O446    1.922   .     S
Cu426  N437    2.021   .     S
Cu426  O440    1.956   .     S
Cu426  O444    1.943   .     S
Cu426  O445    1.922   .     S
Cu426  O441    1.952   .     S
H431   C313    1.084   1_655 S
H434   C108    1.088   1_565 S
H436   N338    1.029   1_655 S
N437   H335    1.029   1_655 S
N437   N338    1.286   1_655 S
C451   O491    1.286   .     A
C451   O489    1.292   .     A
C451   C457    1.428   .     S
C452   O492    1.286   .     A
C452   O490    1.292   .     A
C452   C458    1.428   .     S
C453   H499    1.076   .     S
C453   C474    1.417   .     A
C453   C455    1.387   .     A
C454   H500    1.075   .     S
C454   C456    1.387   .     A
C454   C473    1.417   .     A
C455   H477    1.084   .     S
C456   C22     1.389   1_556 S
C456   H528    1.085   .     S
C457   C608    1.328   .     S
C457   H633    1.088   .     S
C458   C757    1.328   1_545 S
C458   H784    1.088   1_545 S
C459   O495    1.295   .     A
C459   C461    1.468   .     S
C459   O493    1.302   .     A
C460   O496    1.296   .     A
C460   C462    1.469   .     S
C460   O494    1.303   .     A
C461   C467    1.400   .     A
C461   C465    1.397   .     A
C462   C468    1.401   .     A
C462   C466    1.398   .     A
C463   C471    1.405   .     A
C463   C465    1.393   .     A
C463   H581    1.084   1_455 S
C464   C472    1.405   .     A
C464   C466    1.393   .     A
C464   H532    1.084   .     S
C465   H480    1.083   .     S
C466   H479    1.083   .     S
C467   H498    1.075   .     S
C467   C469    1.406   .     A
C468   H497    1.074   .     S
C468   C470    1.406   .     A
C469   C473    1.430   .     A
C469   C471    1.418   .     A
C470   C472    1.418   .     A
C470   C474    1.429   .     A
C471   C5      1.390   1_556 S
C473   C24     1.426   1_556 S
Cu475  O492    1.952   .     S
Cu475  N488    2.021   .     S
Cu475  O493    1.943   .     S
Cu475  Cu476   2.689   .     S
Cu475  O489    1.956   .     S
Cu475  O496    1.922   .     S
Cu476  N487    2.021   .     S
Cu476  O490    1.956   .     S
Cu476  O494    1.943   .     S
Cu476  O495    1.922   .     S
Cu476  O491    1.952   .     S
H478   C556    1.085   1_455 S
H481   C513    1.084   .     S
H482   C564    1.084   1_455 S
H483   C757    1.088   1_545 S
H484   C608    1.088   .     S
H485   N587    1.029   1_455 S
H486   N538    1.029   .     S
N487   H535    1.029   .     S
N487   N538    1.286   .     S
N488   H586    1.029   1_455 S
N488   N587    1.286   1_455 S
C501   O541    1.286   .     A
C501   O539    1.292   .     A
C501   C507    1.428   .     S
C502   O542    1.286   .     A
C502   O540    1.292   .     A
C502   C508    1.428   .     S
C503   H549    1.076   .     S
C503   C524    1.417   .     A
C503   C505    1.387   .     A
C504   H550    1.075   .     S
C504   C506    1.387   .     A
C504   C523    1.417   .     A
C505   H527    1.084   .     S
C506   C72     1.389   1_556 S
C506   H578    1.085   .     S
C507   C658    1.328   .     S
C507   H683    1.088   .     S
C508   C807    1.328   1_545 S
C508   H834    1.088   1_545 S
C509   O545    1.295   .     A
C509   C511    1.468   .     S
C509   O543    1.302   .     A
C510   O546    1.296   .     A
C510   C512    1.469   .     S
C510   O544    1.303   .     A
C511   C517    1.400   .     A
C511   C515    1.397   .     A
C512   C518    1.401   .     A
C512   C516    1.398   .     A
C513   C521    1.405   .     A
C513   C515    1.393   .     A
C514   C522    1.405   .     A
C514   C516    1.393   .     A
C514   H582    1.084   .     S
C515   H530    1.083   .     S
C516   H529    1.083   .     S
C517   H548    1.075   .     S
C517   C519    1.406   .     A
C518   H547    1.074   .     S
C518   C520    1.406   .     A
C519   C523    1.430   .     A
C519   C521    1.418   .     A
C520   C522    1.418   .     A
C520   C524    1.429   .     A
C521   C55     1.390   1_556 S
C523   C74     1.426   1_556 S
Cu525  O542    1.952   .     S
Cu525  N538    2.021   .     S
Cu525  O543    1.943   .     S
Cu525  Cu526   2.689   .     S
Cu525  O539    1.956   .     S
Cu525  O546    1.922   .     S
Cu526  N537    2.021   .     S
Cu526  O540    1.956   .     S
Cu526  O544    1.943   .     S
Cu526  O545    1.922   .     S
Cu526  O541    1.952   .     S
H531   C563    1.084   .     S
H533   C807    1.088   1_545 S
H534   C658    1.088   .     S
H536   N588    1.029   .     S
N537   H585    1.029   .     S
N537   N588    1.286   .     S
C551   O591    1.286   .     A
C551   O589    1.292   .     A
C551   C557    1.428   .     S
C552   O592    1.286   .     A
C552   O590    1.292   .     A
C552   C558    1.428   .     S
C553   H599    1.076   .     S
C553   C574    1.417   .     A
C553   C555    1.387   .     A
C554   H600    1.075   .     S
C554   C556    1.387   .     A
C554   C573    1.417   .     A
C555   H577    1.084   .     S
C556   C122    1.389   1_556 S
C556   H478    1.085   1_655 S
C557   C708    1.328   .     S
C557   H733    1.088   .     S
C558   C857    1.328   1_545 S
C558   H884    1.088   1_545 S
C559   O595    1.295   .     A
C559   C561    1.468   .     S
C559   O593    1.302   .     A
C560   O596    1.296   .     A
C560   C562    1.469   .     S
C560   O594    1.303   .     A
C561   C567    1.400   .     A
C561   C565    1.397   .     A
C562   C568    1.401   .     A
C562   C566    1.398   .     A
C563   C571    1.405   .     A
C563   C565    1.393   .     A
C564   C572    1.405   .     A
C564   C566    1.393   .     A
C564   H482    1.084   1_655 S
C565   H580    1.083   .     S
C566   H579    1.083   .     S
C567   H598    1.075   .     S
C567   C569    1.406   .     A
C568   H597    1.074   .     S
C568   C570    1.406   .     A
C569   C573    1.430   .     A
C569   C571    1.418   .     A
C570   C572    1.418   .     A
C570   C574    1.429   .     A
C571   C105    1.390   1_556 S
C573   C124    1.426   1_556 S
Cu575  O592    1.952   .     S
Cu575  N588    2.021   .     S
Cu575  O593    1.943   .     S
Cu575  Cu576   2.689   .     S
Cu575  O589    1.956   .     S
Cu575  O596    1.922   .     S
Cu576  N587    2.021   .     S
Cu576  O590    1.956   .     S
Cu576  O594    1.943   .     S
Cu576  O595    1.922   .     S
Cu576  O591    1.952   .     S
H581   C463    1.084   1_655 S
H583   C857    1.088   1_545 S
H584   C708    1.088   .     S
H586   N488    1.029   1_655 S
N587   H485    1.029   1_655 S
N587   N488    1.286   1_655 S
C601   O641    1.286   .     A
C601   O639    1.292   .     A
C601   C607    1.428   .     S
C602   O642    1.286   .     A
C602   O640    1.292   .     A
C602   C608    1.428   .     S
C603   H649    1.076   .     S
C603   C624    1.417   .     A
C603   C605    1.387   .     A
C604   H650    1.075   .     S
C604   C606    1.387   .     A
C604   C623    1.417   .     A
C605   H627    1.084   .     S
C606   C172    1.389   1_556 S
C606   H678    1.085   .     S
C607   C758    1.328   .     S
C607   H783    1.088   .     S
C609   O645    1.295   .     A
C609   C611    1.468   .     S
C609   O643    1.302   .     A
C610   O646    1.296   .     A
C610   C612    1.469   .     S
C610   O644    1.303   .     A
C611   C617    1.400   .     A
C611   C615    1.397   .     A
C612   C618    1.401   .     A
C612   C616    1.398   .     A
C613   C621    1.405   .     A
C613   C615    1.393   .     A
C613   H731    1.084   1_455 S
C614   C622    1.405   .     A
C614   C616    1.393   .     A
C614   H682    1.084   .     S
C615   H630    1.083   .     S
C616   H629    1.083   .     S
C617   H648    1.075   .     S
C617   C619    1.406   .     A
C618   H647    1.074   .     S
C618   C620    1.406   .     A
C619   C623    1.430   .     A
C619   C621    1.418   .     A
C620   C622    1.418   .     A
C620   C624    1.429   .     A
C621   C155    1.390   1_556 S
C623   C174    1.426   1_556 S
Cu625  O642    1.952   .     S
Cu625  N638    2.021   .     S
Cu625  O643    1.943   .     S
Cu625  Cu626   2.689   .     S
Cu625  O639    1.956   .     S
Cu625  O646    1.922   .     S
Cu626  N637    2.021   .     S
Cu626  O640    1.956   .     S
Cu626  O644    1.943   .     S
Cu626  O645    1.922   .     S
Cu626  O641    1.952   .     S
H628   C706    1.085   1_455 S
H631   C663    1.084   .     S
H632   C714    1.084   1_455 S
H634   C758    1.088   .     S
H635   N737    1.029   1_455 S
H636   N688    1.029   .     S
N637   H685    1.029   .     S
N637   N688    1.286   .     S
N638   H736    1.029   1_455 S
N638   N737    1.286   1_455 S
C651   O691    1.286   .     A
C651   O689    1.292   .     A
C651   C657    1.428   .     S
C652   O692    1.286   .     A
C652   O690    1.292   .     A
C652   C658    1.428   .     S
C653   H699    1.076   .     S
C653   C674    1.417   .     A
C653   C655    1.387   .     A
C654   H700    1.075   .     S
C654   C656    1.387   .     A
C654   C673    1.417   .     A
C655   H677    1.084   .     S
C656   C222    1.389   1_556 S
C656   H728    1.085   .     S
C657   C808    1.328   .     S
C657   H833    1.088   .     S
C659   O695    1.295   .     A
C659   C661    1.468   .     S
C659   O693    1.302   .     A
C660   O696    1.296   .     A
C660   C662    1.469   .     S
C660   O694    1.303   .     A
C661   C667    1.400   .     A
C661   C665    1.397   .     A
C662   C668    1.401   .     A
C662   C666    1.398   .     A
C663   C671    1.405   .     A
C663   C665    1.393   .     A
C664   C672    1.405   .     A
C664   C666    1.393   .     A
C664   H732    1.084   .     S
C665   H680    1.083   .     S
C666   H679    1.083   .     S
C667   H698    1.075   .     S
C667   C669    1.406   .     A
C668   H697    1.074   .     S
C668   C670    1.406   .     A
C669   C673    1.430   .     A
C669   C671    1.418   .     A
C670   C672    1.418   .     A
C670   C674    1.429   .     A
C671   C205    1.390   1_556 S
C673   C224    1.426   1_556 S
Cu675  O692    1.952   .     S
Cu675  N688    2.021   .     S
Cu675  O693    1.943   .     S
Cu675  Cu676   2.689   .     S
Cu675  O689    1.956   .     S
Cu675  O696    1.922   .     S
Cu676  N687    2.021   .     S
Cu676  O690    1.956   .     S
Cu676  O694    1.943   .     S
Cu676  O695    1.922   .     S
Cu676  O691    1.952   .     S
H681   C713    1.084   .     S
H684   C808    1.088   .     S
H686   N738    1.029   .     S
N687   H735    1.029   .     S
N687   N738    1.286   .     S
C701   O741    1.286   .     A
C701   O739    1.292   .     A
C701   C707    1.428   .     S
C702   O742    1.286   .     A
C702   O740    1.292   .     A
C702   C708    1.428   .     S
C703   H749    1.076   .     S
C703   C724    1.417   .     A
C703   C705    1.387   .     A
C704   H750    1.075   .     S
C704   C706    1.387   .     A
C704   C723    1.417   .     A
C705   H727    1.084   .     S
C706   C272    1.389   1_556 S
C706   H628    1.085   1_655 S
C707   C858    1.328   .     S
C707   H883    1.088   .     S
C709   O745    1.295   .     A
C709   C711    1.468   .     S
C709   O743    1.302   .     A
C710   O746    1.296   .     A
C710   C712    1.469   .     S
C710   O744    1.303   .     A
C711   C717    1.400   .     A
C711   C715    1.397   .     A
C712   C718    1.401   .     A
C712   C716    1.398   .     A
C713   C721    1.405   .     A
C713   C715    1.393   .     A
C714   C722    1.405   .     A
C714   C716    1.393   .     A
C714   H632    1.084   1_655 S
C715   H730    1.083   .     S
C716   H729    1.083   .     S
C717   H748    1.075   .     S
C717   C719    1.406   .     A
C718   H747    1.074   .     S
C718   C720    1.406   .     A
C719   C723    1.430   .     A
C719   C721    1.418   .     A
C720   C722    1.418   .     A
C720   C724    1.429   .     A
C721   C255    1.390   1_556 S
C723   C274    1.426   1_556 S
Cu725  O742    1.952   .     S
Cu725  N738    2.021   .     S
Cu725  O743    1.943   .     S
Cu725  Cu726   2.689   .     S
Cu725  O739    1.956   .     S
Cu725  O746    1.922   .     S
Cu726  N737    2.021   .     S
Cu726  O740    1.956   .     S
Cu726  O744    1.943   .     S
Cu726  O745    1.922   .     S
Cu726  O741    1.952   .     S
H731   C613    1.084   1_655 S
H734   C858    1.088   .     S
H736   N638    1.029   1_655 S
N737   H635    1.029   1_655 S
N737   N638    1.286   1_655 S
C751   O791    1.286   .     A
C751   O789    1.292   .     A
C751   C757    1.428   .     S
C752   O792    1.286   .     A
C752   O790    1.292   .     A
C752   C758    1.428   .     S
C753   H799    1.076   .     S
C753   C774    1.417   .     A
C753   C755    1.387   .     A
C754   H800    1.075   .     S
C754   C756    1.387   .     A
C754   C773    1.417   .     A
C755   H777    1.084   .     S
C756   C322    1.389   1_556 S
C756   H828    1.085   .     S
C757   C458    1.328   1_565 S
C757   H483    1.088   1_565 S
C759   O795    1.295   .     A
C759   C761    1.468   .     S
C759   O793    1.302   .     A
C760   O796    1.296   .     A
C760   C762    1.469   .     S
C760   O794    1.303   .     A
C761   C767    1.400   .     A
C761   C765    1.397   .     A
C762   C768    1.401   .     A
C762   C766    1.398   .     A
C763   C771    1.405   .     A
C763   C765    1.393   .     A
C763   H881    1.084   1_455 S
C764   C772    1.405   .     A
C764   C766    1.393   .     A
C764   H832    1.084   .     S
C765   H780    1.083   .     S
C766   H779    1.083   .     S
C767   H798    1.075   .     S
C767   C769    1.406   .     A
C768   H797    1.074   .     S
C768   C770    1.406   .     A
C769   C773    1.430   .     A
C769   C771    1.418   .     A
C770   C772    1.418   .     A
C770   C774    1.429   .     A
C771   C305    1.390   1_556 S
C773   C324    1.426   1_556 S
Cu775  O792    1.952   .     S
Cu775  N788    2.021   .     S
Cu775  O793    1.943   .     S
Cu775  Cu776   2.689   .     S
Cu775  O789    1.956   .     S
Cu775  O796    1.922   .     S
Cu776  N787    2.021   .     S
Cu776  O790    1.956   .     S
Cu776  O794    1.943   .     S
Cu776  O795    1.922   .     S
Cu776  O791    1.952   .     S
H778   C856    1.085   1_455 S
H781   C813    1.084   .     S
H782   C864    1.084   1_455 S
H784   C458    1.088   1_565 S
H785   N887    1.029   1_455 S
H786   N838    1.029   .     S
N787   H835    1.029   .     S
N787   N838    1.286   .     S
N788   H886    1.029   1_455 S
N788   N887    1.286   1_455 S
C801   O841    1.286   .     A
C801   O839    1.292   .     A
C801   C807    1.428   .     S
C802   O842    1.286   .     A
C802   O840    1.292   .     A
C802   C808    1.428   .     S
C803   H849    1.076   .     S
C803   C824    1.417   .     A
C803   C805    1.387   .     A
C804   H850    1.075   .     S
C804   C806    1.387   .     A
C804   C823    1.417   .     A
C805   H827    1.084   .     S
C806   C372    1.389   1_556 S
C806   H878    1.085   .     S
C807   C508    1.328   1_565 S
C807   H533    1.088   1_565 S
C809   O845    1.295   .     A
C809   C811    1.468   .     S
C809   O843    1.302   .     A
C810   O846    1.296   .     A
C810   C812    1.469   .     S
C810   O844    1.303   .     A
C811   C817    1.400   .     A
C811   C815    1.397   .     A
C812   C818    1.401   .     A
C812   C816    1.398   .     A
C813   C821    1.405   .     A
C813   C815    1.393   .     A
C814   C822    1.405   .     A
C814   C816    1.393   .     A
C814   H882    1.084   .     S
C815   H830    1.083   .     S
C816   H829    1.083   .     S
C817   H848    1.075   .     S
C817   C819    1.406   .     A
C818   H847    1.074   .     S
C818   C820    1.406   .     A
C819   C823    1.430   .     A
C819   C821    1.418   .     A
C820   C822    1.418   .     A
C820   C824    1.429   .     A
C821   C355    1.390   1_556 S
C823   C374    1.426   1_556 S
Cu825  O842    1.952   .     S
Cu825  N838    2.021   .     S
Cu825  O843    1.943   .     S
Cu825  Cu826   2.689   .     S
Cu825  O839    1.956   .     S
Cu825  O846    1.922   .     S
Cu826  N837    2.021   .     S
Cu826  O840    1.956   .     S
Cu826  O844    1.943   .     S
Cu826  O845    1.922   .     S
Cu826  O841    1.952   .     S
H831   C863    1.084   .     S
H834   C508    1.088   1_565 S
H836   N888    1.029   .     S
N837   H885    1.029   .     S
N837   N888    1.286   .     S
C851   O891    1.286   .     A
C851   O889    1.292   .     A
C851   C857    1.428   .     S
C852   O892    1.286   .     A
C852   O890    1.292   .     A
C852   C858    1.428   .     S
C853   H899    1.076   .     S
C853   C874    1.417   .     A
C853   C855    1.387   .     A
C854   H900    1.075   .     S
C854   C856    1.387   .     A
C854   C873    1.417   .     A
C855   H877    1.084   .     S
C856   C422    1.389   1_556 S
C856   H778    1.085   1_655 S
C857   C558    1.328   1_565 S
C857   H583    1.088   1_565 S
C859   O895    1.295   .     A
C859   C861    1.468   .     S
C859   O893    1.302   .     A
C860   O896    1.296   .     A
C860   C862    1.469   .     S
C860   O894    1.303   .     A
C861   C867    1.400   .     A
C861   C865    1.397   .     A
C862   C868    1.401   .     A
C862   C866    1.398   .     A
C863   C871    1.405   .     A
C863   C865    1.393   .     A
C864   C872    1.405   .     A
C864   C866    1.393   .     A
C864   H782    1.084   1_655 S
C865   H880    1.083   .     S
C866   H879    1.083   .     S
C867   H898    1.075   .     S
C867   C869    1.406   .     A
C868   H897    1.074   .     S
C868   C870    1.406   .     A
C869   C873    1.430   .     A
C869   C871    1.418   .     A
C870   C872    1.418   .     A
C870   C874    1.429   .     A
C871   C405    1.390   1_556 S
C873   C424    1.426   1_556 S
Cu875  O892    1.952   .     S
Cu875  N888    2.021   .     S
Cu875  O893    1.943   .     S
Cu875  Cu876   2.689   .     S
Cu875  O889    1.956   .     S
Cu875  O896    1.922   .     S
Cu876  N887    2.021   .     S
Cu876  O890    1.956   .     S
Cu876  O894    1.943   .     S
Cu876  O895    1.922   .     S
Cu876  O891    1.952   .     S
H881   C763    1.084   1_655 S
H884   C558    1.088   1_565 S
H886   N788    1.029   1_655 S
N887   H785    1.029   1_655 S
N887   N788    1.286   1_655 S
