data_str_m2_o2_o10_pcu_sym.214
_audit_creation_date              2020-01-03
_audit_creation_method            'Materials Studio'
_symmetry_space_group_name_H-M    'P1'
_symmetry_Int_Tables_number       1
_symmetry_cell_setting            triclinic
loop_
_symmetry_equiv_pos_as_xyz
  x,y,z
_cell_length_a                    26.1881
_cell_length_b                    30.2743
_cell_length_c                    27.8545
_cell_angle_alpha                 89.5624
_cell_angle_beta                  97.6044
_cell_angle_gamma                 90.8752
loop_
_atom_site_label
_atom_site_type_symbol
_atom_site_fract_x
_atom_site_fract_y
_atom_site_fract_z
_atom_site_U_iso_or_equiv
_atom_site_adp_type
_atom_site_occupancy
C1     C     0.16646   0.16500   0.25011   0.00000  Uiso   1.00
C2     C     0.16655   0.33502   0.24986   0.00000  Uiso   1.00
C3     C     0.20274   0.27474   0.05809   0.00000  Uiso   1.00
C4     C     0.13800   0.21884   0.44284   0.00000  Uiso   1.00
C5     C     0.20185   0.27513   0.10842   0.00000  Uiso   1.00
C6     C     0.13762   0.21961   0.39233   0.00000  Uiso   1.00
C7     C     0.13060   0.22579   0.10067   0.00000  Uiso   1.00
C8     C     0.19456   0.28112   0.39829   0.00000  Uiso   1.00
C9     C     0.12894   0.22609   0.04993   0.00000  Uiso   1.00
C10    C     0.19414   0.28251   0.44875   0.00000  Uiso   1.00
C11    C     0.16583   0.25043   0.02726   0.00000  Uiso   1.00
C12    C     0.16606   0.25066   0.47254   0.00000  Uiso   1.00
C13    C     0.06798   0.24980   0.23766   0.00000  Uiso   1.00
C14    C     0.26536   0.24997   0.26235   0.00000  Uiso   1.00
C15    C     0.01276   0.24940   0.23085   0.00000  Uiso   1.00
C16    C     0.32059   0.24998   0.26919   0.00000  Uiso   1.00
C17    C     0.18199   0.04750   0.29297   0.00000  Uiso   1.00
C18    C     0.18025   0.45301   0.21024   0.00000  Uiso   1.00
C19    C     0.18180   0.09342   0.29314   0.00000  Uiso   1.00
C20    C     0.18006   0.40709   0.20996   0.00000  Uiso   1.00
C21    C     0.16592   0.11677   0.25026   0.00000  Uiso   1.00
C22    C     0.16606   0.38328   0.24967   0.00000  Uiso   1.00
C23    C     0.14961   0.09373   0.20737   0.00000  Uiso   1.00
C24    C     0.15163   0.40591   0.28938   0.00000  Uiso   1.00
C25    C     0.14905   0.04783   0.20736   0.00000  Uiso   1.00
C26    C     0.15103   0.45180   0.28934   0.00000  Uiso   1.00
C27    C     0.16552   0.02432   0.25009   0.00000  Uiso   1.00
C28    C     0.16560   0.47575   0.24988   0.00000  Uiso   1.00
Cu29   Cu    0.16667   0.25000   0.29821   0.00000  Uiso   1.00
Cu30   Cu    0.16667   0.25001   0.20178   0.00000  Uiso   1.00
H31    H     0.32636   0.24863   0.19399   0.00000  Uiso   1.00
H32    H     0.00703   0.25058   0.30606   0.00000  Uiso   1.00
H33    H     0.19569   0.03017   0.32623   0.00000  Uiso   1.00
H34    H     0.19247   0.47070   0.17971   0.00000  Uiso   1.00
H35    H     0.19485   0.11064   0.32657   0.00000  Uiso   1.00
H36    H     0.19153   0.39029   0.17901   0.00000  Uiso   1.00
H37    H     0.13667   0.11117   0.17397   0.00000  Uiso   1.00
H38    H     0.14018   0.38817   0.32024   0.00000  Uiso   1.00
H39    H     0.13521   0.03076   0.17404   0.00000  Uiso   1.00
H40    H     0.13863   0.46850   0.31994   0.00000  Uiso   1.00
H41    H     0.23271   0.29362   0.04379   0.00000  Uiso   1.00
H42    H     0.11617   0.19301   0.45818   0.00000  Uiso   1.00
H43    H     0.10231   0.20650   0.11706   0.00000  Uiso   1.00
H44    H     0.21680   0.30557   0.38115   0.00000  Uiso   1.00
H45    H     0.09819   0.20755   0.02924   0.00000  Uiso   1.00
H46    H     0.21547   0.30904   0.46822   0.00000  Uiso   1.00
N47    N     0.16667   0.25001   0.12934   0.00000  Uiso   1.00
N48    N     0.16667   0.24999   0.37065   0.00000  Uiso   1.00
O49    O     0.16667   0.18573   0.29071   0.00000  Uiso   1.00
O50    O     0.16666   0.31428   0.20928   0.00000  Uiso   1.00
O51    O     0.16667   0.18573   0.20928   0.00000  Uiso   1.00
O52    O     0.16666   0.31427   0.29072   0.00000  Uiso   1.00
O53    O     0.09161   0.25000   0.28132   0.00000  Uiso   1.00
O54    O     0.24172   0.25001   0.21868   0.00000  Uiso   1.00
O55    O     0.09161   0.25000   0.19988   0.00000  Uiso   1.00
O56    O     0.24172   0.25000   0.30011   0.00000  Uiso   1.00
C57    C     0.23812   0.30367   0.13708   0.00000  Uiso   1.00
N58    N     0.26740   0.32687   0.15969   0.00000  Uiso   1.00
C59    C     0.10468   0.18831   0.36400   0.00000  Uiso   1.00
N60    N     0.07791   0.16308   0.34157   0.00000  Uiso   1.00
C61    C     0.49979   0.16500   0.25011   0.00000  Uiso   1.00
C62    C     0.49988   0.33502   0.24986   0.00000  Uiso   1.00
C63    C     0.53608   0.27474   0.05809   0.00000  Uiso   1.00
C64    C     0.47133   0.21884   0.44284   0.00000  Uiso   1.00
C65    C     0.53518   0.27513   0.10842   0.00000  Uiso   1.00
C66    C     0.47095   0.21961   0.39233   0.00000  Uiso   1.00
C67    C     0.46393   0.22579   0.10067   0.00000  Uiso   1.00
C68    C     0.52789   0.28112   0.39829   0.00000  Uiso   1.00
C69    C     0.46228   0.22609   0.04993   0.00000  Uiso   1.00
C70    C     0.52747   0.28251   0.44875   0.00000  Uiso   1.00
C71    C     0.49916   0.25043   0.02726   0.00000  Uiso   1.00
C72    C     0.49939   0.25066   0.47254   0.00000  Uiso   1.00
C73    C     0.40132   0.24980   0.23766   0.00000  Uiso   1.00
C74    C     0.59869   0.24997   0.26235   0.00000  Uiso   1.00
C75    C     0.34610   0.24940   0.23085   0.00000  Uiso   1.00
C76    C     0.65392   0.24998   0.26919   0.00000  Uiso   1.00
C77    C     0.51532   0.04750   0.29297   0.00000  Uiso   1.00
C78    C     0.51358   0.45301   0.21024   0.00000  Uiso   1.00
C79    C     0.51513   0.09342   0.29314   0.00000  Uiso   1.00
C80    C     0.51339   0.40709   0.20996   0.00000  Uiso   1.00
C81    C     0.49926   0.11677   0.25026   0.00000  Uiso   1.00
C82    C     0.49940   0.38328   0.24967   0.00000  Uiso   1.00
C83    C     0.48294   0.09373   0.20737   0.00000  Uiso   1.00
C84    C     0.48496   0.40591   0.28938   0.00000  Uiso   1.00
C85    C     0.48238   0.04783   0.20736   0.00000  Uiso   1.00
C86    C     0.48437   0.45180   0.28934   0.00000  Uiso   1.00
C87    C     0.49886   0.02432   0.25009   0.00000  Uiso   1.00
C88    C     0.49893   0.47575   0.24988   0.00000  Uiso   1.00
Cu89   Cu    0.50000   0.25000   0.29821   0.00000  Uiso   1.00
Cu90   Cu    0.50000   0.25001   0.20178   0.00000  Uiso   1.00
H91    H     0.65969   0.24863   0.19399   0.00000  Uiso   1.00
H92    H     0.34036   0.25058   0.30606   0.00000  Uiso   1.00
H93    H     0.52902   0.03017   0.32623   0.00000  Uiso   1.00
H94    H     0.52580   0.47070   0.17971   0.00000  Uiso   1.00
H95    H     0.52818   0.11064   0.32657   0.00000  Uiso   1.00
H96    H     0.52486   0.39029   0.17901   0.00000  Uiso   1.00
H97    H     0.47000   0.11117   0.17397   0.00000  Uiso   1.00
H98    H     0.47351   0.38817   0.32024   0.00000  Uiso   1.00
H99    H     0.46854   0.03076   0.17404   0.00000  Uiso   1.00
H100   H     0.47196   0.46850   0.31994   0.00000  Uiso   1.00
H101   H     0.56604   0.29362   0.04379   0.00000  Uiso   1.00
H102   H     0.44951   0.19301   0.45818   0.00000  Uiso   1.00
H103   H     0.43564   0.20650   0.11706   0.00000  Uiso   1.00
H104   H     0.55014   0.30557   0.38115   0.00000  Uiso   1.00
H105   H     0.43153   0.20755   0.02924   0.00000  Uiso   1.00
H106   H     0.54881   0.30904   0.46822   0.00000  Uiso   1.00
N107   N     0.50000   0.25001   0.12934   0.00000  Uiso   1.00
N108   N     0.50000   0.24999   0.37065   0.00000  Uiso   1.00
O109   O     0.50000   0.18573   0.29071   0.00000  Uiso   1.00
O110   O     0.50000   0.31428   0.20928   0.00000  Uiso   1.00
O111   O     0.50000   0.18573   0.20928   0.00000  Uiso   1.00
O112   O     0.50000   0.31427   0.29072   0.00000  Uiso   1.00
O113   O     0.42495   0.25000   0.28132   0.00000  Uiso   1.00
O114   O     0.57505   0.25001   0.21868   0.00000  Uiso   1.00
O115   O     0.42495   0.25000   0.19988   0.00000  Uiso   1.00
O116   O     0.57505   0.25000   0.30011   0.00000  Uiso   1.00
C117   C     0.57145   0.30367   0.13708   0.00000  Uiso   1.00
N118   N     0.60073   0.32687   0.15969   0.00000  Uiso   1.00
C119   C     0.43801   0.18831   0.36400   0.00000  Uiso   1.00
N120   N     0.41125   0.16308   0.34157   0.00000  Uiso   1.00
C121   C     0.83312   0.16500   0.25011   0.00000  Uiso   1.00
C122   C     0.83322   0.33502   0.24986   0.00000  Uiso   1.00
C123   C     0.86941   0.27474   0.05809   0.00000  Uiso   1.00
C124   C     0.80467   0.21884   0.44284   0.00000  Uiso   1.00
C125   C     0.86852   0.27513   0.10842   0.00000  Uiso   1.00
C126   C     0.80429   0.21961   0.39233   0.00000  Uiso   1.00
C127   C     0.79726   0.22579   0.10067   0.00000  Uiso   1.00
C128   C     0.86123   0.28112   0.39829   0.00000  Uiso   1.00
C129   C     0.79561   0.22609   0.04993   0.00000  Uiso   1.00
C130   C     0.86081   0.28251   0.44875   0.00000  Uiso   1.00
C131   C     0.83250   0.25043   0.02726   0.00000  Uiso   1.00
C132   C     0.83273   0.25066   0.47254   0.00000  Uiso   1.00
C133   C     0.73465   0.24980   0.23766   0.00000  Uiso   1.00
C134   C     0.93202   0.24997   0.26235   0.00000  Uiso   1.00
C135   C     0.67943   0.24940   0.23085   0.00000  Uiso   1.00
C136   C     0.98726   0.24998   0.26919   0.00000  Uiso   1.00
C137   C     0.84865   0.04750   0.29297   0.00000  Uiso   1.00
C138   C     0.84691   0.45301   0.21024   0.00000  Uiso   1.00
C139   C     0.84846   0.09342   0.29314   0.00000  Uiso   1.00
C140   C     0.84673   0.40709   0.20996   0.00000  Uiso   1.00
C141   C     0.83259   0.11677   0.25026   0.00000  Uiso   1.00
C142   C     0.83273   0.38328   0.24967   0.00000  Uiso   1.00
C143   C     0.81628   0.09373   0.20737   0.00000  Uiso   1.00
C144   C     0.81830   0.40591   0.28938   0.00000  Uiso   1.00
C145   C     0.81571   0.04783   0.20736   0.00000  Uiso   1.00
C146   C     0.81770   0.45180   0.28934   0.00000  Uiso   1.00
C147   C     0.83219   0.02432   0.25009   0.00000  Uiso   1.00
C148   C     0.83227   0.47575   0.24988   0.00000  Uiso   1.00
Cu149  Cu    0.83333   0.25000   0.29821   0.00000  Uiso   1.00
Cu150  Cu    0.83333   0.25001   0.20178   0.00000  Uiso   1.00
H151   H     0.99302   0.24863   0.19399   0.00000  Uiso   1.00
H152   H     0.67370   0.25058   0.30606   0.00000  Uiso   1.00
H153   H     0.86236   0.03017   0.32623   0.00000  Uiso   1.00
H154   H     0.85914   0.47070   0.17971   0.00000  Uiso   1.00
H155   H     0.86151   0.11064   0.32657   0.00000  Uiso   1.00
H156   H     0.85819   0.39029   0.17901   0.00000  Uiso   1.00
H157   H     0.80333   0.11117   0.17397   0.00000  Uiso   1.00
H158   H     0.80684   0.38817   0.32024   0.00000  Uiso   1.00
H159   H     0.80188   0.03076   0.17404   0.00000  Uiso   1.00
H160   H     0.80530   0.46850   0.31994   0.00000  Uiso   1.00
H161   H     0.89938   0.29362   0.04379   0.00000  Uiso   1.00
H162   H     0.78284   0.19301   0.45818   0.00000  Uiso   1.00
H163   H     0.76897   0.20650   0.11706   0.00000  Uiso   1.00
H164   H     0.88347   0.30557   0.38115   0.00000  Uiso   1.00
H165   H     0.76486   0.20755   0.02924   0.00000  Uiso   1.00
H166   H     0.88214   0.30904   0.46822   0.00000  Uiso   1.00
N167   N     0.83333   0.25001   0.12934   0.00000  Uiso   1.00
N168   N     0.83333   0.24999   0.37065   0.00000  Uiso   1.00
O169   O     0.83334   0.18573   0.29071   0.00000  Uiso   1.00
O170   O     0.83333   0.31428   0.20928   0.00000  Uiso   1.00
O171   O     0.83334   0.18573   0.20928   0.00000  Uiso   1.00
O172   O     0.83333   0.31427   0.29072   0.00000  Uiso   1.00
O173   O     0.75828   0.25000   0.28132   0.00000  Uiso   1.00
O174   O     0.90839   0.25001   0.21868   0.00000  Uiso   1.00
O175   O     0.75828   0.25000   0.19988   0.00000  Uiso   1.00
O176   O     0.90839   0.25000   0.30011   0.00000  Uiso   1.00
C177   C     0.90478   0.30367   0.13708   0.00000  Uiso   1.00
N178   N     0.93406   0.32687   0.15969   0.00000  Uiso   1.00
C179   C     0.77134   0.18831   0.36400   0.00000  Uiso   1.00
N180   N     0.74458   0.16308   0.34157   0.00000  Uiso   1.00
C181   C     0.16646   0.66500   0.25011   0.00000  Uiso   1.00
C182   C     0.16655   0.83502   0.24986   0.00000  Uiso   1.00
C183   C     0.20274   0.77474   0.05809   0.00000  Uiso   1.00
C184   C     0.13800   0.71884   0.44284   0.00000  Uiso   1.00
C185   C     0.20185   0.77513   0.10842   0.00000  Uiso   1.00
C186   C     0.13762   0.71961   0.39233   0.00000  Uiso   1.00
C187   C     0.13060   0.72579   0.10067   0.00000  Uiso   1.00
C188   C     0.19456   0.78112   0.39829   0.00000  Uiso   1.00
C189   C     0.12894   0.72609   0.04993   0.00000  Uiso   1.00
C190   C     0.19414   0.78251   0.44875   0.00000  Uiso   1.00
C191   C     0.16583   0.75043   0.02726   0.00000  Uiso   1.00
C192   C     0.16606   0.75066   0.47254   0.00000  Uiso   1.00
C193   C     0.06798   0.74980   0.23766   0.00000  Uiso   1.00
C194   C     0.26536   0.74997   0.26235   0.00000  Uiso   1.00
C195   C     0.01276   0.74940   0.23085   0.00000  Uiso   1.00
C196   C     0.32059   0.74998   0.26919   0.00000  Uiso   1.00
C197   C     0.18199   0.54750   0.29297   0.00000  Uiso   1.00
C198   C     0.18025   0.95301   0.21024   0.00000  Uiso   1.00
C199   C     0.18180   0.59342   0.29314   0.00000  Uiso   1.00
C200   C     0.18006   0.90709   0.20996   0.00000  Uiso   1.00
C201   C     0.16592   0.61677   0.25026   0.00000  Uiso   1.00
C202   C     0.16606   0.88328   0.24967   0.00000  Uiso   1.00
C203   C     0.14961   0.59373   0.20737   0.00000  Uiso   1.00
C204   C     0.15163   0.90591   0.28938   0.00000  Uiso   1.00
C205   C     0.14905   0.54783   0.20736   0.00000  Uiso   1.00
C206   C     0.15103   0.95180   0.28934   0.00000  Uiso   1.00
C207   C     0.16552   0.52432   0.25009   0.00000  Uiso   1.00
C208   C     0.16560   0.97575   0.24988   0.00000  Uiso   1.00
Cu209  Cu    0.16667   0.75000   0.29821   0.00000  Uiso   1.00
Cu210  Cu    0.16667   0.75001   0.20178   0.00000  Uiso   1.00
H211   H     0.32636   0.74863   0.19399   0.00000  Uiso   1.00
H212   H     0.00703   0.75058   0.30606   0.00000  Uiso   1.00
H213   H     0.19569   0.53017   0.32623   0.00000  Uiso   1.00
H214   H     0.19247   0.97070   0.17971   0.00000  Uiso   1.00
H215   H     0.19485   0.61064   0.32657   0.00000  Uiso   1.00
H216   H     0.19153   0.89029   0.17901   0.00000  Uiso   1.00
H217   H     0.13667   0.61117   0.17397   0.00000  Uiso   1.00
H218   H     0.14018   0.88817   0.32024   0.00000  Uiso   1.00
H219   H     0.13521   0.53076   0.17404   0.00000  Uiso   1.00
H220   H     0.13863   0.96850   0.31994   0.00000  Uiso   1.00
H221   H     0.23271   0.79362   0.04379   0.00000  Uiso   1.00
H222   H     0.11617   0.69301   0.45818   0.00000  Uiso   1.00
H223   H     0.10231   0.70650   0.11706   0.00000  Uiso   1.00
H224   H     0.21680   0.80557   0.38115   0.00000  Uiso   1.00
H225   H     0.09819   0.70755   0.02924   0.00000  Uiso   1.00
H226   H     0.21547   0.80904   0.46822   0.00000  Uiso   1.00
N227   N     0.16667   0.75001   0.12934   0.00000  Uiso   1.00
N228   N     0.16667   0.74999   0.37065   0.00000  Uiso   1.00
O229   O     0.16667   0.68573   0.29071   0.00000  Uiso   1.00
O230   O     0.16666   0.81428   0.20928   0.00000  Uiso   1.00
O231   O     0.16667   0.68573   0.20928   0.00000  Uiso   1.00
O232   O     0.16666   0.81427   0.29072   0.00000  Uiso   1.00
O233   O     0.09161   0.75000   0.28132   0.00000  Uiso   1.00
O234   O     0.24172   0.75001   0.21868   0.00000  Uiso   1.00
O235   O     0.09161   0.75000   0.19988   0.00000  Uiso   1.00
O236   O     0.24172   0.75000   0.30011   0.00000  Uiso   1.00
C237   C     0.23812   0.80367   0.13708   0.00000  Uiso   1.00
N238   N     0.26740   0.82687   0.15969   0.00000  Uiso   1.00
C239   C     0.10468   0.68831   0.36400   0.00000  Uiso   1.00
N240   N     0.07791   0.66308   0.34157   0.00000  Uiso   1.00
C241   C     0.49979   0.66500   0.25011   0.00000  Uiso   1.00
C242   C     0.49988   0.83502   0.24986   0.00000  Uiso   1.00
C243   C     0.53608   0.77474   0.05809   0.00000  Uiso   1.00
C244   C     0.47133   0.71884   0.44284   0.00000  Uiso   1.00
C245   C     0.53518   0.77513   0.10842   0.00000  Uiso   1.00
C246   C     0.47095   0.71961   0.39233   0.00000  Uiso   1.00
C247   C     0.46393   0.72579   0.10067   0.00000  Uiso   1.00
C248   C     0.52789   0.78112   0.39829   0.00000  Uiso   1.00
C249   C     0.46228   0.72609   0.04993   0.00000  Uiso   1.00
C250   C     0.52747   0.78251   0.44875   0.00000  Uiso   1.00
C251   C     0.49916   0.75043   0.02726   0.00000  Uiso   1.00
C252   C     0.49939   0.75066   0.47254   0.00000  Uiso   1.00
C253   C     0.40132   0.74980   0.23766   0.00000  Uiso   1.00
C254   C     0.59869   0.74997   0.26235   0.00000  Uiso   1.00
C255   C     0.34610   0.74940   0.23085   0.00000  Uiso   1.00
C256   C     0.65392   0.74998   0.26919   0.00000  Uiso   1.00
C257   C     0.51532   0.54750   0.29297   0.00000  Uiso   1.00
C258   C     0.51358   0.95301   0.21024   0.00000  Uiso   1.00
C259   C     0.51513   0.59342   0.29314   0.00000  Uiso   1.00
C260   C     0.51339   0.90709   0.20996   0.00000  Uiso   1.00
C261   C     0.49926   0.61677   0.25026   0.00000  Uiso   1.00
C262   C     0.49940   0.88328   0.24967   0.00000  Uiso   1.00
C263   C     0.48294   0.59373   0.20737   0.00000  Uiso   1.00
C264   C     0.48496   0.90591   0.28938   0.00000  Uiso   1.00
C265   C     0.48238   0.54783   0.20736   0.00000  Uiso   1.00
C266   C     0.48437   0.95180   0.28934   0.00000  Uiso   1.00
C267   C     0.49886   0.52432   0.25009   0.00000  Uiso   1.00
C268   C     0.49893   0.97575   0.24988   0.00000  Uiso   1.00
Cu269  Cu    0.50000   0.75000   0.29821   0.00000  Uiso   1.00
Cu270  Cu    0.50000   0.75001   0.20178   0.00000  Uiso   1.00
H271   H     0.65969   0.74863   0.19399   0.00000  Uiso   1.00
H272   H     0.34036   0.75058   0.30606   0.00000  Uiso   1.00
H273   H     0.52902   0.53017   0.32623   0.00000  Uiso   1.00
H274   H     0.52580   0.97070   0.17971   0.00000  Uiso   1.00
H275   H     0.52818   0.61064   0.32657   0.00000  Uiso   1.00
H276   H     0.52486   0.89029   0.17901   0.00000  Uiso   1.00
H277   H     0.47000   0.61117   0.17397   0.00000  Uiso   1.00
H278   H     0.47351   0.88817   0.32024   0.00000  Uiso   1.00
H279   H     0.46854   0.53076   0.17404   0.00000  Uiso   1.00
H280   H     0.47196   0.96850   0.31994   0.00000  Uiso   1.00
H281   H     0.56604   0.79362   0.04379   0.00000  Uiso   1.00
H282   H     0.44951   0.69301   0.45818   0.00000  Uiso   1.00
H283   H     0.43564   0.70650   0.11706   0.00000  Uiso   1.00
H284   H     0.55014   0.80557   0.38115   0.00000  Uiso   1.00
H285   H     0.43153   0.70755   0.02924   0.00000  Uiso   1.00
H286   H     0.54881   0.80904   0.46822   0.00000  Uiso   1.00
N287   N     0.50000   0.75001   0.12934   0.00000  Uiso   1.00
N288   N     0.50000   0.74999   0.37065   0.00000  Uiso   1.00
O289   O     0.50000   0.68573   0.29071   0.00000  Uiso   1.00
O290   O     0.50000   0.81428   0.20928   0.00000  Uiso   1.00
O291   O     0.50000   0.68573   0.20928   0.00000  Uiso   1.00
O292   O     0.50000   0.81427   0.29072   0.00000  Uiso   1.00
O293   O     0.42495   0.75000   0.28132   0.00000  Uiso   1.00
O294   O     0.57505   0.75001   0.21868   0.00000  Uiso   1.00
O295   O     0.42495   0.75000   0.19988   0.00000  Uiso   1.00
O296   O     0.57505   0.75000   0.30011   0.00000  Uiso   1.00
C297   C     0.57145   0.80367   0.13708   0.00000  Uiso   1.00
N298   N     0.60073   0.82687   0.15969   0.00000  Uiso   1.00
C299   C     0.43801   0.68831   0.36400   0.00000  Uiso   1.00
N300   N     0.41125   0.66308   0.34157   0.00000  Uiso   1.00
C301   C     0.83312   0.66500   0.25011   0.00000  Uiso   1.00
C302   C     0.83322   0.83502   0.24986   0.00000  Uiso   1.00
C303   C     0.86941   0.77474   0.05809   0.00000  Uiso   1.00
C304   C     0.80467   0.71884   0.44284   0.00000  Uiso   1.00
C305   C     0.86852   0.77513   0.10842   0.00000  Uiso   1.00
C306   C     0.80429   0.71961   0.39233   0.00000  Uiso   1.00
C307   C     0.79726   0.72579   0.10067   0.00000  Uiso   1.00
C308   C     0.86123   0.78112   0.39829   0.00000  Uiso   1.00
C309   C     0.79561   0.72609   0.04993   0.00000  Uiso   1.00
C310   C     0.86081   0.78251   0.44875   0.00000  Uiso   1.00
C311   C     0.83250   0.75043   0.02726   0.00000  Uiso   1.00
C312   C     0.83273   0.75066   0.47254   0.00000  Uiso   1.00
C313   C     0.73465   0.74980   0.23766   0.00000  Uiso   1.00
C314   C     0.93202   0.74997   0.26235   0.00000  Uiso   1.00
C315   C     0.67943   0.74940   0.23085   0.00000  Uiso   1.00
C316   C     0.98726   0.74998   0.26919   0.00000  Uiso   1.00
C317   C     0.84865   0.54750   0.29297   0.00000  Uiso   1.00
C318   C     0.84691   0.95301   0.21024   0.00000  Uiso   1.00
C319   C     0.84846   0.59342   0.29314   0.00000  Uiso   1.00
C320   C     0.84673   0.90709   0.20996   0.00000  Uiso   1.00
C321   C     0.83259   0.61677   0.25026   0.00000  Uiso   1.00
C322   C     0.83273   0.88328   0.24967   0.00000  Uiso   1.00
C323   C     0.81628   0.59373   0.20737   0.00000  Uiso   1.00
C324   C     0.81830   0.90591   0.28938   0.00000  Uiso   1.00
C325   C     0.81571   0.54783   0.20736   0.00000  Uiso   1.00
C326   C     0.81770   0.95180   0.28934   0.00000  Uiso   1.00
C327   C     0.83219   0.52432   0.25009   0.00000  Uiso   1.00
C328   C     0.83227   0.97575   0.24988   0.00000  Uiso   1.00
Cu329  Cu    0.83333   0.75000   0.29821   0.00000  Uiso   1.00
Cu330  Cu    0.83333   0.75001   0.20178   0.00000  Uiso   1.00
H331   H     0.99302   0.74863   0.19399   0.00000  Uiso   1.00
H332   H     0.67370   0.75058   0.30606   0.00000  Uiso   1.00
H333   H     0.86236   0.53017   0.32623   0.00000  Uiso   1.00
H334   H     0.85914   0.97070   0.17971   0.00000  Uiso   1.00
H335   H     0.86151   0.61064   0.32657   0.00000  Uiso   1.00
H336   H     0.85819   0.89029   0.17901   0.00000  Uiso   1.00
H337   H     0.80333   0.61117   0.17397   0.00000  Uiso   1.00
H338   H     0.80684   0.88817   0.32024   0.00000  Uiso   1.00
H339   H     0.80188   0.53076   0.17404   0.00000  Uiso   1.00
H340   H     0.80530   0.96850   0.31994   0.00000  Uiso   1.00
H341   H     0.89938   0.79362   0.04379   0.00000  Uiso   1.00
H342   H     0.78284   0.69301   0.45818   0.00000  Uiso   1.00
H343   H     0.76897   0.70650   0.11706   0.00000  Uiso   1.00
H344   H     0.88347   0.80557   0.38115   0.00000  Uiso   1.00
H345   H     0.76486   0.70755   0.02924   0.00000  Uiso   1.00
H346   H     0.88214   0.80904   0.46822   0.00000  Uiso   1.00
N347   N     0.83333   0.75001   0.12934   0.00000  Uiso   1.00
N348   N     0.83333   0.74999   0.37065   0.00000  Uiso   1.00
O349   O     0.83334   0.68573   0.29071   0.00000  Uiso   1.00
O350   O     0.83333   0.81428   0.20928   0.00000  Uiso   1.00
O351   O     0.83334   0.68573   0.20928   0.00000  Uiso   1.00
O352   O     0.83333   0.81427   0.29072   0.00000  Uiso   1.00
O353   O     0.75828   0.75000   0.28132   0.00000  Uiso   1.00
O354   O     0.90839   0.75001   0.21868   0.00000  Uiso   1.00
O355   O     0.75828   0.75000   0.19988   0.00000  Uiso   1.00
O356   O     0.90839   0.75000   0.30011   0.00000  Uiso   1.00
C357   C     0.90478   0.80367   0.13708   0.00000  Uiso   1.00
N358   N     0.93406   0.82687   0.15969   0.00000  Uiso   1.00
C359   C     0.77134   0.68831   0.36400   0.00000  Uiso   1.00
N360   N     0.74458   0.66308   0.34157   0.00000  Uiso   1.00
C361   C     0.16646   0.16500   0.75011   0.00000  Uiso   1.00
C362   C     0.16655   0.33502   0.74986   0.00000  Uiso   1.00
C363   C     0.20274   0.27474   0.55809   0.00000  Uiso   1.00
C364   C     0.13800   0.21884   0.94284   0.00000  Uiso   1.00
C365   C     0.20185   0.27513   0.60842   0.00000  Uiso   1.00
C366   C     0.13762   0.21961   0.89233   0.00000  Uiso   1.00
C367   C     0.13060   0.22579   0.60067   0.00000  Uiso   1.00
C368   C     0.19456   0.28112   0.89829   0.00000  Uiso   1.00
C369   C     0.12894   0.22609   0.54993   0.00000  Uiso   1.00
C370   C     0.19414   0.28251   0.94875   0.00000  Uiso   1.00
C371   C     0.16583   0.25043   0.52726   0.00000  Uiso   1.00
C372   C     0.16606   0.25066   0.97254   0.00000  Uiso   1.00
C373   C     0.06798   0.24980   0.73766   0.00000  Uiso   1.00
C374   C     0.26536   0.24997   0.76235   0.00000  Uiso   1.00
C375   C     0.01276   0.24940   0.73085   0.00000  Uiso   1.00
C376   C     0.32059   0.24998   0.76919   0.00000  Uiso   1.00
C377   C     0.18199   0.04750   0.79297   0.00000  Uiso   1.00
C378   C     0.18025   0.45301   0.71024   0.00000  Uiso   1.00
C379   C     0.18180   0.09342   0.79314   0.00000  Uiso   1.00
C380   C     0.18006   0.40709   0.70996   0.00000  Uiso   1.00
C381   C     0.16592   0.11677   0.75026   0.00000  Uiso   1.00
C382   C     0.16606   0.38328   0.74967   0.00000  Uiso   1.00
C383   C     0.14961   0.09373   0.70737   0.00000  Uiso   1.00
C384   C     0.15163   0.40591   0.78938   0.00000  Uiso   1.00
C385   C     0.14905   0.04783   0.70736   0.00000  Uiso   1.00
C386   C     0.15103   0.45180   0.78934   0.00000  Uiso   1.00
C387   C     0.16552   0.02432   0.75009   0.00000  Uiso   1.00
C388   C     0.16560   0.47575   0.74988   0.00000  Uiso   1.00
Cu389  Cu    0.16667   0.25000   0.79821   0.00000  Uiso   1.00
Cu390  Cu    0.16667   0.25001   0.70178   0.00000  Uiso   1.00
H391   H     0.32636   0.24863   0.69399   0.00000  Uiso   1.00
H392   H     0.00703   0.25058   0.80606   0.00000  Uiso   1.00
H393   H     0.19569   0.03017   0.82623   0.00000  Uiso   1.00
H394   H     0.19247   0.47070   0.67971   0.00000  Uiso   1.00
H395   H     0.19485   0.11064   0.82657   0.00000  Uiso   1.00
H396   H     0.19153   0.39029   0.67901   0.00000  Uiso   1.00
H397   H     0.13667   0.11117   0.67397   0.00000  Uiso   1.00
H398   H     0.14018   0.38817   0.82024   0.00000  Uiso   1.00
H399   H     0.13521   0.03076   0.67404   0.00000  Uiso   1.00
H400   H     0.13863   0.46850   0.81994   0.00000  Uiso   1.00
H401   H     0.23271   0.29362   0.54379   0.00000  Uiso   1.00
H402   H     0.11617   0.19301   0.95818   0.00000  Uiso   1.00
H403   H     0.10231   0.20650   0.61706   0.00000  Uiso   1.00
H404   H     0.21680   0.30557   0.88115   0.00000  Uiso   1.00
H405   H     0.09819   0.20755   0.52924   0.00000  Uiso   1.00
H406   H     0.21547   0.30904   0.96822   0.00000  Uiso   1.00
N407   N     0.16667   0.25001   0.62934   0.00000  Uiso   1.00
N408   N     0.16667   0.24999   0.87065   0.00000  Uiso   1.00
O409   O     0.16667   0.18573   0.79071   0.00000  Uiso   1.00
O410   O     0.16666   0.31428   0.70928   0.00000  Uiso   1.00
O411   O     0.16667   0.18573   0.70928   0.00000  Uiso   1.00
O412   O     0.16666   0.31427   0.79072   0.00000  Uiso   1.00
O413   O     0.09161   0.25000   0.78132   0.00000  Uiso   1.00
O414   O     0.24172   0.25001   0.71868   0.00000  Uiso   1.00
O415   O     0.09161   0.25000   0.69988   0.00000  Uiso   1.00
O416   O     0.24172   0.25000   0.80011   0.00000  Uiso   1.00
C417   C     0.23812   0.30367   0.63708   0.00000  Uiso   1.00
N418   N     0.26740   0.32687   0.65969   0.00000  Uiso   1.00
C419   C     0.10468   0.18831   0.86400   0.00000  Uiso   1.00
N420   N     0.07791   0.16308   0.84157   0.00000  Uiso   1.00
C421   C     0.49979   0.16500   0.75011   0.00000  Uiso   1.00
C422   C     0.49988   0.33502   0.74986   0.00000  Uiso   1.00
C423   C     0.53608   0.27474   0.55809   0.00000  Uiso   1.00
C424   C     0.47133   0.21884   0.94284   0.00000  Uiso   1.00
C425   C     0.53518   0.27513   0.60842   0.00000  Uiso   1.00
C426   C     0.47095   0.21961   0.89233   0.00000  Uiso   1.00
C427   C     0.46393   0.22579   0.60067   0.00000  Uiso   1.00
C428   C     0.52789   0.28112   0.89829   0.00000  Uiso   1.00
C429   C     0.46228   0.22609   0.54993   0.00000  Uiso   1.00
C430   C     0.52747   0.28251   0.94875   0.00000  Uiso   1.00
C431   C     0.49916   0.25043   0.52726   0.00000  Uiso   1.00
C432   C     0.49939   0.25066   0.97254   0.00000  Uiso   1.00
C433   C     0.40132   0.24980   0.73766   0.00000  Uiso   1.00
C434   C     0.59869   0.24997   0.76235   0.00000  Uiso   1.00
C435   C     0.34610   0.24940   0.73085   0.00000  Uiso   1.00
C436   C     0.65392   0.24998   0.76919   0.00000  Uiso   1.00
C437   C     0.51532   0.04750   0.79297   0.00000  Uiso   1.00
C438   C     0.51358   0.45301   0.71024   0.00000  Uiso   1.00
C439   C     0.51513   0.09342   0.79314   0.00000  Uiso   1.00
C440   C     0.51339   0.40709   0.70996   0.00000  Uiso   1.00
C441   C     0.49926   0.11677   0.75026   0.00000  Uiso   1.00
C442   C     0.49940   0.38328   0.74967   0.00000  Uiso   1.00
C443   C     0.48294   0.09373   0.70737   0.00000  Uiso   1.00
C444   C     0.48496   0.40591   0.78938   0.00000  Uiso   1.00
C445   C     0.48238   0.04783   0.70736   0.00000  Uiso   1.00
C446   C     0.48437   0.45180   0.78934   0.00000  Uiso   1.00
C447   C     0.49886   0.02432   0.75009   0.00000  Uiso   1.00
C448   C     0.49893   0.47575   0.74988   0.00000  Uiso   1.00
Cu449  Cu    0.50000   0.25000   0.79821   0.00000  Uiso   1.00
Cu450  Cu    0.50000   0.25001   0.70178   0.00000  Uiso   1.00
H451   H     0.65969   0.24863   0.69399   0.00000  Uiso   1.00
H452   H     0.34036   0.25058   0.80606   0.00000  Uiso   1.00
H453   H     0.52902   0.03017   0.82623   0.00000  Uiso   1.00
H454   H     0.52580   0.47070   0.67971   0.00000  Uiso   1.00
H455   H     0.52818   0.11064   0.82657   0.00000  Uiso   1.00
H456   H     0.52486   0.39029   0.67901   0.00000  Uiso   1.00
H457   H     0.47000   0.11117   0.67397   0.00000  Uiso   1.00
H458   H     0.47351   0.38817   0.82024   0.00000  Uiso   1.00
H459   H     0.46854   0.03076   0.67404   0.00000  Uiso   1.00
H460   H     0.47196   0.46850   0.81994   0.00000  Uiso   1.00
H461   H     0.56604   0.29362   0.54379   0.00000  Uiso   1.00
H462   H     0.44951   0.19301   0.95818   0.00000  Uiso   1.00
H463   H     0.43564   0.20650   0.61706   0.00000  Uiso   1.00
H464   H     0.55014   0.30557   0.88115   0.00000  Uiso   1.00
H465   H     0.43153   0.20755   0.52924   0.00000  Uiso   1.00
H466   H     0.54881   0.30904   0.96822   0.00000  Uiso   1.00
N467   N     0.50000   0.25001   0.62934   0.00000  Uiso   1.00
N468   N     0.50000   0.24999   0.87065   0.00000  Uiso   1.00
O469   O     0.50000   0.18573   0.79071   0.00000  Uiso   1.00
O470   O     0.50000   0.31428   0.70928   0.00000  Uiso   1.00
O471   O     0.50000   0.18573   0.70928   0.00000  Uiso   1.00
O472   O     0.50000   0.31427   0.79072   0.00000  Uiso   1.00
O473   O     0.42495   0.25000   0.78132   0.00000  Uiso   1.00
O474   O     0.57505   0.25001   0.71868   0.00000  Uiso   1.00
O475   O     0.42495   0.25000   0.69988   0.00000  Uiso   1.00
O476   O     0.57505   0.25000   0.80011   0.00000  Uiso   1.00
C477   C     0.57145   0.30367   0.63708   0.00000  Uiso   1.00
N478   N     0.60073   0.32687   0.65969   0.00000  Uiso   1.00
C479   C     0.43801   0.18831   0.86400   0.00000  Uiso   1.00
N480   N     0.41125   0.16308   0.84157   0.00000  Uiso   1.00
C481   C     0.83312   0.16500   0.75011   0.00000  Uiso   1.00
C482   C     0.83322   0.33502   0.74986   0.00000  Uiso   1.00
C483   C     0.86941   0.27474   0.55809   0.00000  Uiso   1.00
C484   C     0.80467   0.21884   0.94284   0.00000  Uiso   1.00
C485   C     0.86852   0.27513   0.60842   0.00000  Uiso   1.00
C486   C     0.80429   0.21961   0.89233   0.00000  Uiso   1.00
C487   C     0.79726   0.22579   0.60067   0.00000  Uiso   1.00
C488   C     0.86123   0.28112   0.89829   0.00000  Uiso   1.00
C489   C     0.79561   0.22609   0.54993   0.00000  Uiso   1.00
C490   C     0.86081   0.28251   0.94875   0.00000  Uiso   1.00
C491   C     0.83250   0.25043   0.52726   0.00000  Uiso   1.00
C492   C     0.83273   0.25066   0.97254   0.00000  Uiso   1.00
C493   C     0.73465   0.24980   0.73766   0.00000  Uiso   1.00
C494   C     0.93202   0.24997   0.76235   0.00000  Uiso   1.00
C495   C     0.67943   0.24940   0.73085   0.00000  Uiso   1.00
C496   C     0.98726   0.24998   0.76919   0.00000  Uiso   1.00
C497   C     0.84865   0.04750   0.79297   0.00000  Uiso   1.00
C498   C     0.84691   0.45301   0.71024   0.00000  Uiso   1.00
C499   C     0.84846   0.09342   0.79314   0.00000  Uiso   1.00
C500   C     0.84673   0.40709   0.70996   0.00000  Uiso   1.00
C501   C     0.83259   0.11677   0.75026   0.00000  Uiso   1.00
C502   C     0.83273   0.38328   0.74967   0.00000  Uiso   1.00
C503   C     0.81628   0.09373   0.70737   0.00000  Uiso   1.00
C504   C     0.81830   0.40591   0.78938   0.00000  Uiso   1.00
C505   C     0.81571   0.04783   0.70736   0.00000  Uiso   1.00
C506   C     0.81770   0.45180   0.78934   0.00000  Uiso   1.00
C507   C     0.83219   0.02432   0.75009   0.00000  Uiso   1.00
C508   C     0.83227   0.47575   0.74988   0.00000  Uiso   1.00
Cu509  Cu    0.83333   0.25000   0.79821   0.00000  Uiso   1.00
Cu510  Cu    0.83333   0.25001   0.70178   0.00000  Uiso   1.00
H511   H     0.99302   0.24863   0.69399   0.00000  Uiso   1.00
H512   H     0.67370   0.25058   0.80606   0.00000  Uiso   1.00
H513   H     0.86236   0.03017   0.82623   0.00000  Uiso   1.00
H514   H     0.85914   0.47070   0.67971   0.00000  Uiso   1.00
H515   H     0.86151   0.11064   0.82657   0.00000  Uiso   1.00
H516   H     0.85819   0.39029   0.67901   0.00000  Uiso   1.00
H517   H     0.80333   0.11117   0.67397   0.00000  Uiso   1.00
H518   H     0.80684   0.38817   0.82024   0.00000  Uiso   1.00
H519   H     0.80188   0.03076   0.67404   0.00000  Uiso   1.00
H520   H     0.80530   0.46850   0.81994   0.00000  Uiso   1.00
H521   H     0.89938   0.29362   0.54379   0.00000  Uiso   1.00
H522   H     0.78284   0.19301   0.95818   0.00000  Uiso   1.00
H523   H     0.76897   0.20650   0.61706   0.00000  Uiso   1.00
H524   H     0.88347   0.30557   0.88115   0.00000  Uiso   1.00
H525   H     0.76486   0.20755   0.52924   0.00000  Uiso   1.00
H526   H     0.88214   0.30904   0.96822   0.00000  Uiso   1.00
N527   N     0.83333   0.25001   0.62934   0.00000  Uiso   1.00
N528   N     0.83333   0.24999   0.87065   0.00000  Uiso   1.00
O529   O     0.83334   0.18573   0.79071   0.00000  Uiso   1.00
O530   O     0.83333   0.31428   0.70928   0.00000  Uiso   1.00
O531   O     0.83334   0.18573   0.70928   0.00000  Uiso   1.00
O532   O     0.83333   0.31427   0.79072   0.00000  Uiso   1.00
O533   O     0.75828   0.25000   0.78132   0.00000  Uiso   1.00
O534   O     0.90839   0.25001   0.71868   0.00000  Uiso   1.00
O535   O     0.75828   0.25000   0.69988   0.00000  Uiso   1.00
O536   O     0.90839   0.25000   0.80011   0.00000  Uiso   1.00
C537   C     0.90478   0.30367   0.63708   0.00000  Uiso   1.00
N538   N     0.93406   0.32687   0.65969   0.00000  Uiso   1.00
C539   C     0.77134   0.18831   0.86400   0.00000  Uiso   1.00
N540   N     0.74458   0.16308   0.84157   0.00000  Uiso   1.00
C541   C     0.16646   0.66500   0.75011   0.00000  Uiso   1.00
C542   C     0.16655   0.83502   0.74986   0.00000  Uiso   1.00
C543   C     0.20274   0.77474   0.55809   0.00000  Uiso   1.00
C544   C     0.13800   0.71884   0.94284   0.00000  Uiso   1.00
C545   C     0.20185   0.77513   0.60842   0.00000  Uiso   1.00
C546   C     0.13762   0.71961   0.89233   0.00000  Uiso   1.00
C547   C     0.13060   0.72579   0.60067   0.00000  Uiso   1.00
C548   C     0.19456   0.78112   0.89829   0.00000  Uiso   1.00
C549   C     0.12894   0.72609   0.54993   0.00000  Uiso   1.00
C550   C     0.19414   0.78251   0.94875   0.00000  Uiso   1.00
C551   C     0.16583   0.75043   0.52726   0.00000  Uiso   1.00
C552   C     0.16606   0.75066   0.97254   0.00000  Uiso   1.00
C553   C     0.06798   0.74980   0.73766   0.00000  Uiso   1.00
C554   C     0.26536   0.74997   0.76235   0.00000  Uiso   1.00
C555   C     0.01276   0.74940   0.73085   0.00000  Uiso   1.00
C556   C     0.32059   0.74998   0.76919   0.00000  Uiso   1.00
C557   C     0.18199   0.54750   0.79297   0.00000  Uiso   1.00
C558   C     0.18025   0.95301   0.71024   0.00000  Uiso   1.00
C559   C     0.18180   0.59342   0.79314   0.00000  Uiso   1.00
C560   C     0.18006   0.90709   0.70996   0.00000  Uiso   1.00
C561   C     0.16592   0.61677   0.75026   0.00000  Uiso   1.00
C562   C     0.16606   0.88328   0.74967   0.00000  Uiso   1.00
C563   C     0.14961   0.59373   0.70737   0.00000  Uiso   1.00
C564   C     0.15163   0.90591   0.78938   0.00000  Uiso   1.00
C565   C     0.14905   0.54783   0.70736   0.00000  Uiso   1.00
C566   C     0.15103   0.95180   0.78934   0.00000  Uiso   1.00
C567   C     0.16552   0.52432   0.75009   0.00000  Uiso   1.00
C568   C     0.16560   0.97575   0.74988   0.00000  Uiso   1.00
Cu569  Cu    0.16667   0.75000   0.79821   0.00000  Uiso   1.00
Cu570  Cu    0.16667   0.75001   0.70178   0.00000  Uiso   1.00
H571   H     0.32636   0.74863   0.69399   0.00000  Uiso   1.00
H572   H     0.00703   0.75058   0.80606   0.00000  Uiso   1.00
H573   H     0.19569   0.53017   0.82623   0.00000  Uiso   1.00
H574   H     0.19247   0.97070   0.67971   0.00000  Uiso   1.00
H575   H     0.19485   0.61064   0.82657   0.00000  Uiso   1.00
H576   H     0.19153   0.89029   0.67901   0.00000  Uiso   1.00
H577   H     0.13667   0.61117   0.67397   0.00000  Uiso   1.00
H578   H     0.14018   0.88817   0.82024   0.00000  Uiso   1.00
H579   H     0.13521   0.53076   0.67404   0.00000  Uiso   1.00
H580   H     0.13863   0.96850   0.81994   0.00000  Uiso   1.00
H581   H     0.23271   0.79362   0.54379   0.00000  Uiso   1.00
H582   H     0.11617   0.69301   0.95818   0.00000  Uiso   1.00
H583   H     0.10231   0.70650   0.61706   0.00000  Uiso   1.00
H584   H     0.21680   0.80557   0.88115   0.00000  Uiso   1.00
H585   H     0.09819   0.70755   0.52924   0.00000  Uiso   1.00
H586   H     0.21547   0.80904   0.96822   0.00000  Uiso   1.00
N587   N     0.16667   0.75001   0.62934   0.00000  Uiso   1.00
N588   N     0.16667   0.74999   0.87065   0.00000  Uiso   1.00
O589   O     0.16667   0.68573   0.79071   0.00000  Uiso   1.00
O590   O     0.16666   0.81428   0.70928   0.00000  Uiso   1.00
O591   O     0.16667   0.68573   0.70928   0.00000  Uiso   1.00
O592   O     0.16666   0.81427   0.79072   0.00000  Uiso   1.00
O593   O     0.09161   0.75000   0.78132   0.00000  Uiso   1.00
O594   O     0.24172   0.75001   0.71868   0.00000  Uiso   1.00
O595   O     0.09161   0.75000   0.69988   0.00000  Uiso   1.00
O596   O     0.24172   0.75000   0.80011   0.00000  Uiso   1.00
C597   C     0.23812   0.80367   0.63708   0.00000  Uiso   1.00
N598   N     0.26740   0.82687   0.65969   0.00000  Uiso   1.00
C599   C     0.10468   0.68831   0.86400   0.00000  Uiso   1.00
N600   N     0.07791   0.66308   0.84157   0.00000  Uiso   1.00
C601   C     0.49979   0.66500   0.75011   0.00000  Uiso   1.00
C602   C     0.49988   0.83502   0.74986   0.00000  Uiso   1.00
C603   C     0.53608   0.77474   0.55809   0.00000  Uiso   1.00
C604   C     0.47133   0.71884   0.94284   0.00000  Uiso   1.00
C605   C     0.53518   0.77513   0.60842   0.00000  Uiso   1.00
C606   C     0.47095   0.71961   0.89233   0.00000  Uiso   1.00
C607   C     0.46393   0.72579   0.60067   0.00000  Uiso   1.00
C608   C     0.52789   0.78112   0.89829   0.00000  Uiso   1.00
C609   C     0.46228   0.72609   0.54993   0.00000  Uiso   1.00
C610   C     0.52747   0.78251   0.94875   0.00000  Uiso   1.00
C611   C     0.49916   0.75043   0.52726   0.00000  Uiso   1.00
C612   C     0.49939   0.75066   0.97254   0.00000  Uiso   1.00
C613   C     0.40132   0.74980   0.73766   0.00000  Uiso   1.00
C614   C     0.59869   0.74997   0.76235   0.00000  Uiso   1.00
C615   C     0.34610   0.74940   0.73085   0.00000  Uiso   1.00
C616   C     0.65392   0.74998   0.76919   0.00000  Uiso   1.00
C617   C     0.51532   0.54750   0.79297   0.00000  Uiso   1.00
C618   C     0.51358   0.95301   0.71024   0.00000  Uiso   1.00
C619   C     0.51513   0.59342   0.79314   0.00000  Uiso   1.00
C620   C     0.51339   0.90709   0.70996   0.00000  Uiso   1.00
C621   C     0.49926   0.61677   0.75026   0.00000  Uiso   1.00
C622   C     0.49940   0.88328   0.74967   0.00000  Uiso   1.00
C623   C     0.48294   0.59373   0.70737   0.00000  Uiso   1.00
C624   C     0.48496   0.90591   0.78938   0.00000  Uiso   1.00
C625   C     0.48238   0.54783   0.70736   0.00000  Uiso   1.00
C626   C     0.48437   0.95180   0.78934   0.00000  Uiso   1.00
C627   C     0.49886   0.52432   0.75009   0.00000  Uiso   1.00
C628   C     0.49893   0.97575   0.74988   0.00000  Uiso   1.00
Cu629  Cu    0.50000   0.75000   0.79821   0.00000  Uiso   1.00
Cu630  Cu    0.50000   0.75001   0.70178   0.00000  Uiso   1.00
H631   H     0.65969   0.74863   0.69399   0.00000  Uiso   1.00
H632   H     0.34036   0.75058   0.80606   0.00000  Uiso   1.00
H633   H     0.52902   0.53017   0.82623   0.00000  Uiso   1.00
H634   H     0.52580   0.97070   0.67971   0.00000  Uiso   1.00
H635   H     0.52818   0.61064   0.82657   0.00000  Uiso   1.00
H636   H     0.52486   0.89029   0.67901   0.00000  Uiso   1.00
H637   H     0.47000   0.61117   0.67397   0.00000  Uiso   1.00
H638   H     0.47351   0.88817   0.82024   0.00000  Uiso   1.00
H639   H     0.46854   0.53076   0.67404   0.00000  Uiso   1.00
H640   H     0.47196   0.96850   0.81994   0.00000  Uiso   1.00
H641   H     0.56604   0.79362   0.54379   0.00000  Uiso   1.00
H642   H     0.44951   0.69301   0.95818   0.00000  Uiso   1.00
H643   H     0.43564   0.70650   0.61706   0.00000  Uiso   1.00
H644   H     0.55014   0.80557   0.88115   0.00000  Uiso   1.00
H645   H     0.43153   0.70755   0.52924   0.00000  Uiso   1.00
H646   H     0.54881   0.80904   0.96822   0.00000  Uiso   1.00
N647   N     0.50000   0.75001   0.62934   0.00000  Uiso   1.00
N648   N     0.50000   0.74999   0.87065   0.00000  Uiso   1.00
O649   O     0.50000   0.68573   0.79071   0.00000  Uiso   1.00
O650   O     0.50000   0.81428   0.70928   0.00000  Uiso   1.00
O651   O     0.50000   0.68573   0.70928   0.00000  Uiso   1.00
O652   O     0.50000   0.81427   0.79072   0.00000  Uiso   1.00
O653   O     0.42495   0.75000   0.78132   0.00000  Uiso   1.00
O654   O     0.57505   0.75001   0.71868   0.00000  Uiso   1.00
O655   O     0.42495   0.75000   0.69988   0.00000  Uiso   1.00
O656   O     0.57505   0.75000   0.80011   0.00000  Uiso   1.00
C657   C     0.57145   0.80367   0.63708   0.00000  Uiso   1.00
N658   N     0.60073   0.82687   0.65969   0.00000  Uiso   1.00
C659   C     0.43801   0.68831   0.86400   0.00000  Uiso   1.00
N660   N     0.41125   0.66308   0.84157   0.00000  Uiso   1.00
C661   C     0.83312   0.66500   0.75011   0.00000  Uiso   1.00
C662   C     0.83322   0.83502   0.74986   0.00000  Uiso   1.00
C663   C     0.86941   0.77474   0.55809   0.00000  Uiso   1.00
C664   C     0.80467   0.71884   0.94284   0.00000  Uiso   1.00
C665   C     0.86852   0.77513   0.60842   0.00000  Uiso   1.00
C666   C     0.80429   0.71961   0.89233   0.00000  Uiso   1.00
C667   C     0.79726   0.72579   0.60067   0.00000  Uiso   1.00
C668   C     0.86123   0.78112   0.89829   0.00000  Uiso   1.00
C669   C     0.79561   0.72609   0.54993   0.00000  Uiso   1.00
C670   C     0.86081   0.78251   0.94875   0.00000  Uiso   1.00
C671   C     0.83250   0.75043   0.52726   0.00000  Uiso   1.00
C672   C     0.83273   0.75066   0.97254   0.00000  Uiso   1.00
C673   C     0.73465   0.74980   0.73766   0.00000  Uiso   1.00
C674   C     0.93202   0.74997   0.76235   0.00000  Uiso   1.00
C675   C     0.67943   0.74940   0.73085   0.00000  Uiso   1.00
C676   C     0.98726   0.74998   0.76919   0.00000  Uiso   1.00
C677   C     0.84865   0.54750   0.79297   0.00000  Uiso   1.00
C678   C     0.84691   0.95301   0.71024   0.00000  Uiso   1.00
C679   C     0.84846   0.59342   0.79314   0.00000  Uiso   1.00
C680   C     0.84673   0.90709   0.70996   0.00000  Uiso   1.00
C681   C     0.83259   0.61677   0.75026   0.00000  Uiso   1.00
C682   C     0.83273   0.88328   0.74967   0.00000  Uiso   1.00
C683   C     0.81628   0.59373   0.70737   0.00000  Uiso   1.00
C684   C     0.81830   0.90591   0.78938   0.00000  Uiso   1.00
C685   C     0.81571   0.54783   0.70736   0.00000  Uiso   1.00
C686   C     0.81770   0.95180   0.78934   0.00000  Uiso   1.00
C687   C     0.83219   0.52432   0.75009   0.00000  Uiso   1.00
C688   C     0.83227   0.97575   0.74988   0.00000  Uiso   1.00
Cu689  Cu    0.83333   0.75000   0.79821   0.00000  Uiso   1.00
Cu690  Cu    0.83333   0.75001   0.70178   0.00000  Uiso   1.00
H691   H     0.99302   0.74863   0.69399   0.00000  Uiso   1.00
H692   H     0.67370   0.75058   0.80606   0.00000  Uiso   1.00
H693   H     0.86236   0.53017   0.82623   0.00000  Uiso   1.00
H694   H     0.85914   0.97070   0.67971   0.00000  Uiso   1.00
H695   H     0.86151   0.61064   0.82657   0.00000  Uiso   1.00
H696   H     0.85819   0.89029   0.67901   0.00000  Uiso   1.00
H697   H     0.80333   0.61117   0.67397   0.00000  Uiso   1.00
H698   H     0.80684   0.88817   0.82024   0.00000  Uiso   1.00
H699   H     0.80188   0.53076   0.67404   0.00000  Uiso   1.00
H700   H     0.80530   0.96850   0.81994   0.00000  Uiso   1.00
H701   H     0.89938   0.79362   0.54379   0.00000  Uiso   1.00
H702   H     0.78284   0.69301   0.95818   0.00000  Uiso   1.00
H703   H     0.76897   0.70650   0.61706   0.00000  Uiso   1.00
H704   H     0.88347   0.80557   0.88115   0.00000  Uiso   1.00
H705   H     0.76486   0.70755   0.52924   0.00000  Uiso   1.00
H706   H     0.88214   0.80904   0.96822   0.00000  Uiso   1.00
N707   N     0.83333   0.75001   0.62934   0.00000  Uiso   1.00
N708   N     0.83333   0.74999   0.87065   0.00000  Uiso   1.00
O709   O     0.83334   0.68573   0.79071   0.00000  Uiso   1.00
O710   O     0.83333   0.81428   0.70928   0.00000  Uiso   1.00
O711   O     0.83334   0.68573   0.70928   0.00000  Uiso   1.00
O712   O     0.83333   0.81427   0.79072   0.00000  Uiso   1.00
O713   O     0.75828   0.75000   0.78132   0.00000  Uiso   1.00
O714   O     0.90839   0.75001   0.71868   0.00000  Uiso   1.00
O715   O     0.75828   0.75000   0.69988   0.00000  Uiso   1.00
O716   O     0.90839   0.75000   0.80011   0.00000  Uiso   1.00
C717   C     0.90478   0.80367   0.63708   0.00000  Uiso   1.00
N718   N     0.93406   0.82687   0.65969   0.00000  Uiso   1.00
C719   C     0.77134   0.68831   0.86400   0.00000  Uiso   1.00
N720   N     0.74458   0.66308   0.84157   0.00000  Uiso   1.00
loop_
_geom_bond_atom_site_label_1
_geom_bond_atom_site_label_2
_geom_bond_distance
_geom_bond_site_symmetry_2
_ccdc_geom_bond_type
C1     C21     1.460   .     S
C1     O51     1.295   .     A
C1     O49     1.297   .     A
C2     C22     1.461   .     S
C2     O52     1.296   .     A
C2     O50     1.297   .     A
C3     C5      1.405   .     A
C3     C11     1.408   .     A
C3     H41     1.080   .     S
C4     C12     1.408   .     A
C4     H42     1.080   .     S
C4     C6      1.406   .     A
C5     C57     1.439   .     S
C5     N47     1.371   .     A
C6     N48     1.371   .     A
C6     C59     1.439   .     S
C7     H43     1.082   .     S
C7     N47     1.362   .     A
C7     C9      1.408   .     A
C8     N48     1.362   .     A
C8     C10     1.408   .     A
C8     H44     1.082   .     S
C9     H45     1.079   .     S
C9     C11     1.417   .     A
C10    H46     1.079   .     S
C10    C12     1.417   .     A
C11    C372    1.525   1_554 S
C12    C371    1.525   .     S
C13    O53     1.290   .     A
C13    C15     1.433   .     S
C13    O55     1.289   .     A
C14    O56     1.289   .     A
C14    O54     1.290   .     A
C14    C16     1.434   .     S
C15    C136    1.333   1_455 S
C15    H151    1.087   1_455 S
C16    C75     1.333   .     S
C16    H92     1.087   .     S
C17    H33     1.083   .     S
C17    C27     1.404   .     A
C17    C19     1.390   .     A
C18    C28     1.404   .     A
C18    H34     1.083   .     S
C18    C20     1.390   .     A
C19    H35     1.083   .     S
C19    C21     1.401   .     A
C20    C22     1.401   .     A
C20    H36     1.083   .     S
C21    C23     1.402   .     A
C22    C24     1.402   .     A
C23    H37     1.083   .     S
C23    C25     1.389   .     A
C24    C26     1.390   .     A
C24    H38     1.083   .     S
C25    H39     1.083   .     S
C25    C27     1.403   .     A
C26    H40     1.083   .     S
C26    C28     1.403   .     A
C27    C208    1.471   1_545 S
C28    C207    1.471   .     S
Cu29   Cu30    2.686   .     S
Cu29   O56     1.959   .     S
Cu29   O49     1.958   .     S
Cu29   O53     1.960   .     S
Cu29   N48     2.018   .     S
Cu29   O52     1.955   .     S
Cu30   O51     1.955   .     S
Cu30   O55     1.959   .     S
Cu30   O50     1.958   .     S
Cu30   O54     1.960   .     S
Cu30   N47     2.018   .     S
H31    C75     1.087   .     S
H32    C136    1.087   1_455 S
C57    N58     1.158   .     T
C59    N60     1.158   .     T
C61    C81     1.460   .     S
C61    O111    1.295   .     A
C61    O109    1.297   .     A
C62    C82     1.461   .     S
C62    O112    1.296   .     A
C62    O110    1.297   .     A
C63    C65     1.405   .     A
C63    C71     1.408   .     A
C63    H101    1.080   .     S
C64    C72     1.408   .     A
C64    H102    1.080   .     S
C64    C66     1.406   .     A
C65    C117    1.439   .     S
C65    N107    1.371   .     A
C66    N108    1.371   .     A
C66    C119    1.439   .     S
C67    H103    1.082   .     S
C67    N107    1.362   .     A
C67    C69     1.408   .     A
C68    N108    1.362   .     A
C68    C70     1.408   .     A
C68    H104    1.082   .     S
C69    H105    1.079   .     S
C69    C71     1.417   .     A
C70    H106    1.079   .     S
C70    C72     1.417   .     A
C71    C432    1.525   1_554 S
C72    C431    1.525   .     S
C73    O113    1.290   .     A
C73    C75     1.433   .     S
C73    O115    1.289   .     A
C74    O116    1.289   .     A
C74    O114    1.290   .     A
C74    C76     1.434   .     S
C76    C135    1.333   .     S
C76    H152    1.087   .     S
C77    H93     1.083   .     S
C77    C87     1.404   .     A
C77    C79     1.390   .     A
C78    C88     1.404   .     A
C78    H94     1.083   .     S
C78    C80     1.390   .     A
C79    H95     1.083   .     S
C79    C81     1.401   .     A
C80    C82     1.401   .     A
C80    H96     1.083   .     S
C81    C83     1.402   .     A
C82    C84     1.402   .     A
C83    H97     1.083   .     S
C83    C85     1.389   .     A
C84    C86     1.390   .     A
C84    H98     1.083   .     S
C85    H99     1.083   .     S
C85    C87     1.403   .     A
C86    H100    1.083   .     S
C86    C88     1.403   .     A
C87    C268    1.471   1_545 S
C88    C267    1.471   .     S
Cu89   Cu90    2.686   .     S
Cu89   O116    1.959   .     S
Cu89   O109    1.958   .     S
Cu89   O113    1.960   .     S
Cu89   N108    2.018   .     S
Cu89   O112    1.955   .     S
Cu90   O111    1.955   .     S
Cu90   O115    1.959   .     S
Cu90   O110    1.958   .     S
Cu90   O114    1.960   .     S
Cu90   N107    2.018   .     S
H91    C135    1.087   .     S
C117   N118    1.158   .     T
C119   N120    1.158   .     T
C121   C141    1.460   .     S
C121   O171    1.295   .     A
C121   O169    1.297   .     A
C122   C142    1.461   .     S
C122   O172    1.296   .     A
C122   O170    1.297   .     A
C123   C125    1.405   .     A
C123   C131    1.408   .     A
C123   H161    1.080   .     S
C124   C132    1.408   .     A
C124   H162    1.080   .     S
C124   C126    1.406   .     A
C125   C177    1.439   .     S
C125   N167    1.371   .     A
C126   N168    1.371   .     A
C126   C179    1.439   .     S
C127   H163    1.082   .     S
C127   N167    1.362   .     A
C127   C129    1.408   .     A
C128   N168    1.362   .     A
C128   C130    1.408   .     A
C128   H164    1.082   .     S
C129   H165    1.079   .     S
C129   C131    1.417   .     A
C130   H166    1.079   .     S
C130   C132    1.417   .     A
C131   C492    1.525   1_554 S
C132   C491    1.525   .     S
C133   O173    1.290   .     A
C133   C135    1.433   .     S
C133   O175    1.289   .     A
C134   O176    1.289   .     A
C134   O174    1.290   .     A
C134   C136    1.434   .     S
C136   C15     1.333   1_655 S
C136   H32     1.087   1_655 S
C137   H153    1.083   .     S
C137   C147    1.404   .     A
C137   C139    1.390   .     A
C138   C148    1.404   .     A
C138   H154    1.083   .     S
C138   C140    1.390   .     A
C139   H155    1.083   .     S
C139   C141    1.401   .     A
C140   C142    1.401   .     A
C140   H156    1.083   .     S
C141   C143    1.402   .     A
C142   C144    1.402   .     A
C143   H157    1.083   .     S
C143   C145    1.389   .     A
C144   C146    1.390   .     A
C144   H158    1.083   .     S
C145   H159    1.083   .     S
C145   C147    1.403   .     A
C146   H160    1.083   .     S
C146   C148    1.403   .     A
C147   C328    1.471   1_545 S
C148   C327    1.471   .     S
Cu149  Cu150   2.686   .     S
Cu149  O176    1.959   .     S
Cu149  O169    1.958   .     S
Cu149  O173    1.960   .     S
Cu149  N168    2.018   .     S
Cu149  O172    1.955   .     S
Cu150  O171    1.955   .     S
Cu150  O175    1.959   .     S
Cu150  O170    1.958   .     S
Cu150  O174    1.960   .     S
Cu150  N167    2.018   .     S
H151   C15     1.087   1_655 S
C177   N178    1.158   .     T
C179   N180    1.158   .     T
C181   C201    1.460   .     S
C181   O231    1.295   .     A
C181   O229    1.297   .     A
C182   C202    1.461   .     S
C182   O232    1.296   .     A
C182   O230    1.297   .     A
C183   C185    1.405   .     A
C183   C191    1.408   .     A
C183   H221    1.080   .     S
C184   C192    1.408   .     A
C184   H222    1.080   .     S
C184   C186    1.406   .     A
C185   C237    1.439   .     S
C185   N227    1.371   .     A
C186   N228    1.371   .     A
C186   C239    1.439   .     S
C187   H223    1.082   .     S
C187   N227    1.362   .     A
C187   C189    1.408   .     A
C188   N228    1.362   .     A
C188   C190    1.408   .     A
C188   H224    1.082   .     S
C189   H225    1.079   .     S
C189   C191    1.417   .     A
C190   H226    1.079   .     S
C190   C192    1.417   .     A
C191   C552    1.525   1_554 S
C192   C551    1.525   .     S
C193   O233    1.290   .     A
C193   C195    1.433   .     S
C193   O235    1.289   .     A
C194   O236    1.289   .     A
C194   O234    1.290   .     A
C194   C196    1.434   .     S
C195   C316    1.333   1_455 S
C195   H331    1.087   1_455 S
C196   C255    1.333   .     S
C196   H272    1.087   .     S
C197   H213    1.083   .     S
C197   C207    1.404   .     A
C197   C199    1.390   .     A
C198   C208    1.404   .     A
C198   H214    1.083   .     S
C198   C200    1.390   .     A
C199   H215    1.083   .     S
C199   C201    1.401   .     A
C200   C202    1.401   .     A
C200   H216    1.083   .     S
C201   C203    1.402   .     A
C202   C204    1.402   .     A
C203   H217    1.083   .     S
C203   C205    1.389   .     A
C204   C206    1.390   .     A
C204   H218    1.083   .     S
C205   H219    1.083   .     S
C205   C207    1.403   .     A
C206   H220    1.083   .     S
C206   C208    1.403   .     A
C208   C27     1.471   1_565 S
Cu209  Cu210   2.686   .     S
Cu209  O236    1.959   .     S
Cu209  O229    1.958   .     S
Cu209  O233    1.960   .     S
Cu209  N228    2.018   .     S
Cu209  O232    1.955   .     S
Cu210  O231    1.955   .     S
Cu210  O235    1.959   .     S
Cu210  O230    1.958   .     S
Cu210  O234    1.960   .     S
Cu210  N227    2.018   .     S
H211   C255    1.087   .     S
H212   C316    1.087   1_455 S
C237   N238    1.158   .     T
C239   N240    1.158   .     T
C241   C261    1.460   .     S
C241   O291    1.295   .     A
C241   O289    1.297   .     A
C242   C262    1.461   .     S
C242   O292    1.296   .     A
C242   O290    1.297   .     A
C243   C245    1.405   .     A
C243   C251    1.408   .     A
C243   H281    1.080   .     S
C244   C252    1.408   .     A
C244   H282    1.080   .     S
C244   C246    1.406   .     A
C245   C297    1.439   .     S
C245   N287    1.371   .     A
C246   N288    1.371   .     A
C246   C299    1.439   .     S
C247   H283    1.082   .     S
C247   N287    1.362   .     A
C247   C249    1.408   .     A
C248   N288    1.362   .     A
C248   C250    1.408   .     A
C248   H284    1.082   .     S
C249   H285    1.079   .     S
C249   C251    1.417   .     A
C250   H286    1.079   .     S
C250   C252    1.417   .     A
C251   C612    1.525   1_554 S
C252   C611    1.525   .     S
C253   O293    1.290   .     A
C253   C255    1.433   .     S
C253   O295    1.289   .     A
C254   O296    1.289   .     A
C254   O294    1.290   .     A
C254   C256    1.434   .     S
C256   C315    1.333   .     S
C256   H332    1.087   .     S
C257   H273    1.083   .     S
C257   C267    1.404   .     A
C257   C259    1.390   .     A
C258   C268    1.404   .     A
C258   H274    1.083   .     S
C258   C260    1.390   .     A
C259   H275    1.083   .     S
C259   C261    1.401   .     A
C260   C262    1.401   .     A
C260   H276    1.083   .     S
C261   C263    1.402   .     A
C262   C264    1.402   .     A
C263   H277    1.083   .     S
C263   C265    1.389   .     A
C264   C266    1.390   .     A
C264   H278    1.083   .     S
C265   H279    1.083   .     S
C265   C267    1.403   .     A
C266   H280    1.083   .     S
C266   C268    1.403   .     A
C268   C87     1.471   1_565 S
Cu269  Cu270   2.686   .     S
Cu269  O296    1.959   .     S
Cu269  O289    1.958   .     S
Cu269  O293    1.960   .     S
Cu269  N288    2.018   .     S
Cu269  O292    1.955   .     S
Cu270  O291    1.955   .     S
Cu270  O295    1.959   .     S
Cu270  O290    1.958   .     S
Cu270  O294    1.960   .     S
Cu270  N287    2.018   .     S
H271   C315    1.087   .     S
C297   N298    1.158   .     T
C299   N300    1.158   .     T
C301   C321    1.460   .     S
C301   O351    1.295   .     A
C301   O349    1.297   .     A
C302   C322    1.461   .     S
C302   O352    1.296   .     A
C302   O350    1.297   .     A
C303   C305    1.405   .     A
C303   C311    1.408   .     A
C303   H341    1.080   .     S
C304   C312    1.408   .     A
C304   H342    1.080   .     S
C304   C306    1.406   .     A
C305   C357    1.439   .     S
C305   N347    1.371   .     A
C306   N348    1.371   .     A
C306   C359    1.439   .     S
C307   H343    1.082   .     S
C307   N347    1.362   .     A
C307   C309    1.408   .     A
C308   N348    1.362   .     A
C308   C310    1.408   .     A
C308   H344    1.082   .     S
C309   H345    1.079   .     S
C309   C311    1.417   .     A
C310   H346    1.079   .     S
C310   C312    1.417   .     A
C311   C672    1.525   1_554 S
C312   C671    1.525   .     S
C313   O353    1.290   .     A
C313   C315    1.433   .     S
C313   O355    1.289   .     A
C314   O356    1.289   .     A
C314   O354    1.290   .     A
C314   C316    1.434   .     S
C316   C195    1.333   1_655 S
C316   H212    1.087   1_655 S
C317   H333    1.083   .     S
C317   C327    1.404   .     A
C317   C319    1.390   .     A
C318   C328    1.404   .     A
C318   H334    1.083   .     S
C318   C320    1.390   .     A
C319   H335    1.083   .     S
C319   C321    1.401   .     A
C320   C322    1.401   .     A
C320   H336    1.083   .     S
C321   C323    1.402   .     A
C322   C324    1.402   .     A
C323   H337    1.083   .     S
C323   C325    1.389   .     A
C324   C326    1.390   .     A
C324   H338    1.083   .     S
C325   H339    1.083   .     S
C325   C327    1.403   .     A
C326   H340    1.083   .     S
C326   C328    1.403   .     A
C328   C147    1.471   1_565 S
Cu329  Cu330   2.686   .     S
Cu329  O356    1.959   .     S
Cu329  O349    1.958   .     S
Cu329  O353    1.960   .     S
Cu329  N348    2.018   .     S
Cu329  O352    1.955   .     S
Cu330  O351    1.955   .     S
Cu330  O355    1.959   .     S
Cu330  O350    1.958   .     S
Cu330  O354    1.960   .     S
Cu330  N347    2.018   .     S
H331   C195    1.087   1_655 S
C357   N358    1.158   .     T
C359   N360    1.158   .     T
C361   C381    1.460   .     S
C361   O411    1.295   .     A
C361   O409    1.297   .     A
C362   C382    1.461   .     S
C362   O412    1.296   .     A
C362   O410    1.297   .     A
C363   C365    1.405   .     A
C363   C371    1.408   .     A
C363   H401    1.080   .     S
C364   C372    1.408   .     A
C364   H402    1.080   .     S
C364   C366    1.406   .     A
C365   C417    1.439   .     S
C365   N407    1.371   .     A
C366   N408    1.371   .     A
C366   C419    1.439   .     S
C367   H403    1.082   .     S
C367   N407    1.362   .     A
C367   C369    1.408   .     A
C368   N408    1.362   .     A
C368   C370    1.408   .     A
C368   H404    1.082   .     S
C369   H405    1.079   .     S
C369   C371    1.417   .     A
C370   H406    1.079   .     S
C370   C372    1.417   .     A
C372   C11     1.525   1_556 S
C373   O413    1.290   .     A
C373   C375    1.433   .     S
C373   O415    1.289   .     A
C374   O416    1.289   .     A
C374   O414    1.290   .     A
C374   C376    1.434   .     S
C375   C496    1.333   1_455 S
C375   H511    1.087   1_455 S
C376   C435    1.333   .     S
C376   H452    1.087   .     S
C377   H393    1.083   .     S
C377   C387    1.404   .     A
C377   C379    1.390   .     A
C378   C388    1.404   .     A
C378   H394    1.083   .     S
C378   C380    1.390   .     A
C379   H395    1.083   .     S
C379   C381    1.401   .     A
C380   C382    1.401   .     A
C380   H396    1.083   .     S
C381   C383    1.402   .     A
C382   C384    1.402   .     A
C383   H397    1.083   .     S
C383   C385    1.389   .     A
C384   C386    1.390   .     A
C384   H398    1.083   .     S
C385   H399    1.083   .     S
C385   C387    1.403   .     A
C386   H400    1.083   .     S
C386   C388    1.403   .     A
C387   C568    1.471   1_545 S
C388   C567    1.471   .     S
Cu389  Cu390   2.686   .     S
Cu389  O416    1.959   .     S
Cu389  O409    1.958   .     S
Cu389  O413    1.960   .     S
Cu389  N408    2.018   .     S
Cu389  O412    1.955   .     S
Cu390  O411    1.955   .     S
Cu390  O415    1.959   .     S
Cu390  O410    1.958   .     S
Cu390  O414    1.960   .     S
Cu390  N407    2.018   .     S
H391   C435    1.087   .     S
H392   C496    1.087   1_455 S
C417   N418    1.158   .     T
C419   N420    1.158   .     T
C421   C441    1.460   .     S
C421   O471    1.295   .     A
C421   O469    1.297   .     A
C422   C442    1.461   .     S
C422   O472    1.296   .     A
C422   O470    1.297   .     A
C423   C425    1.405   .     A
C423   C431    1.408   .     A
C423   H461    1.080   .     S
C424   C432    1.408   .     A
C424   H462    1.080   .     S
C424   C426    1.406   .     A
C425   C477    1.439   .     S
C425   N467    1.371   .     A
C426   N468    1.371   .     A
C426   C479    1.439   .     S
C427   H463    1.082   .     S
C427   N467    1.362   .     A
C427   C429    1.408   .     A
C428   N468    1.362   .     A
C428   C430    1.408   .     A
C428   H464    1.082   .     S
C429   H465    1.079   .     S
C429   C431    1.417   .     A
C430   H466    1.079   .     S
C430   C432    1.417   .     A
C432   C71     1.525   1_556 S
C433   O473    1.290   .     A
C433   C435    1.433   .     S
C433   O475    1.289   .     A
C434   O476    1.289   .     A
C434   O474    1.290   .     A
C434   C436    1.434   .     S
C436   C495    1.333   .     S
C436   H512    1.087   .     S
C437   H453    1.083   .     S
C437   C447    1.404   .     A
C437   C439    1.390   .     A
C438   C448    1.404   .     A
C438   H454    1.083   .     S
C438   C440    1.390   .     A
C439   H455    1.083   .     S
C439   C441    1.401   .     A
C440   C442    1.401   .     A
C440   H456    1.083   .     S
C441   C443    1.402   .     A
C442   C444    1.402   .     A
C443   H457    1.083   .     S
C443   C445    1.389   .     A
C444   C446    1.390   .     A
C444   H458    1.083   .     S
C445   H459    1.083   .     S
C445   C447    1.403   .     A
C446   H460    1.083   .     S
C446   C448    1.403   .     A
C447   C628    1.471   1_545 S
C448   C627    1.471   .     S
Cu449  Cu450   2.686   .     S
Cu449  O476    1.959   .     S
Cu449  O469    1.958   .     S
Cu449  O473    1.960   .     S
Cu449  N468    2.018   .     S
Cu449  O472    1.955   .     S
Cu450  O471    1.955   .     S
Cu450  O475    1.959   .     S
Cu450  O470    1.958   .     S
Cu450  O474    1.960   .     S
Cu450  N467    2.018   .     S
H451   C495    1.087   .     S
C477   N478    1.158   .     T
C479   N480    1.158   .     T
C481   C501    1.460   .     S
C481   O531    1.295   .     A
C481   O529    1.297   .     A
C482   C502    1.461   .     S
C482   O532    1.296   .     A
C482   O530    1.297   .     A
C483   C485    1.405   .     A
C483   C491    1.408   .     A
C483   H521    1.080   .     S
C484   C492    1.408   .     A
C484   H522    1.080   .     S
C484   C486    1.406   .     A
C485   C537    1.439   .     S
C485   N527    1.371   .     A
C486   N528    1.371   .     A
C486   C539    1.439   .     S
C487   H523    1.082   .     S
C487   N527    1.362   .     A
C487   C489    1.408   .     A
C488   N528    1.362   .     A
C488   C490    1.408   .     A
C488   H524    1.082   .     S
C489   H525    1.079   .     S
C489   C491    1.417   .     A
C490   H526    1.079   .     S
C490   C492    1.417   .     A
C492   C131    1.525   1_556 S
C493   O533    1.290   .     A
C493   C495    1.433   .     S
C493   O535    1.289   .     A
C494   O536    1.289   .     A
C494   O534    1.290   .     A
C494   C496    1.434   .     S
C496   C375    1.333   1_655 S
C496   H392    1.087   1_655 S
C497   H513    1.083   .     S
C497   C507    1.404   .     A
C497   C499    1.390   .     A
C498   C508    1.404   .     A
C498   H514    1.083   .     S
C498   C500    1.390   .     A
C499   H515    1.083   .     S
C499   C501    1.401   .     A
C500   C502    1.401   .     A
C500   H516    1.083   .     S
C501   C503    1.402   .     A
C502   C504    1.402   .     A
C503   H517    1.083   .     S
C503   C505    1.389   .     A
C504   C506    1.390   .     A
C504   H518    1.083   .     S
C505   H519    1.083   .     S
C505   C507    1.403   .     A
C506   H520    1.083   .     S
C506   C508    1.403   .     A
C507   C688    1.471   1_545 S
C508   C687    1.471   .     S
Cu509  Cu510   2.686   .     S
Cu509  O536    1.959   .     S
Cu509  O529    1.958   .     S
Cu509  O533    1.960   .     S
Cu509  N528    2.018   .     S
Cu509  O532    1.955   .     S
Cu510  O531    1.955   .     S
Cu510  O535    1.959   .     S
Cu510  O530    1.958   .     S
Cu510  O534    1.960   .     S
Cu510  N527    2.018   .     S
H511   C375    1.087   1_655 S
C537   N538    1.158   .     T
C539   N540    1.158   .     T
C541   C561    1.460   .     S
C541   O591    1.295   .     A
C541   O589    1.297   .     A
C542   C562    1.461   .     S
C542   O592    1.296   .     A
C542   O590    1.297   .     A
C543   C545    1.405   .     A
C543   C551    1.408   .     A
C543   H581    1.080   .     S
C544   C552    1.408   .     A
C544   H582    1.080   .     S
C544   C546    1.406   .     A
C545   C597    1.439   .     S
C545   N587    1.371   .     A
C546   N588    1.371   .     A
C546   C599    1.439   .     S
C547   H583    1.082   .     S
C547   N587    1.362   .     A
C547   C549    1.408   .     A
C548   N588    1.362   .     A
C548   C550    1.408   .     A
C548   H584    1.082   .     S
C549   H585    1.079   .     S
C549   C551    1.417   .     A
C550   H586    1.079   .     S
C550   C552    1.417   .     A
C552   C191    1.525   1_556 S
C553   O593    1.290   .     A
C553   C555    1.433   .     S
C553   O595    1.289   .     A
C554   O596    1.289   .     A
C554   O594    1.290   .     A
C554   C556    1.434   .     S
C555   C676    1.333   1_455 S
C555   H691    1.087   1_455 S
C556   C615    1.333   .     S
C556   H632    1.087   .     S
C557   H573    1.083   .     S
C557   C567    1.404   .     A
C557   C559    1.390   .     A
C558   C568    1.404   .     A
C558   H574    1.083   .     S
C558   C560    1.390   .     A
C559   H575    1.083   .     S
C559   C561    1.401   .     A
C560   C562    1.401   .     A
C560   H576    1.083   .     S
C561   C563    1.402   .     A
C562   C564    1.402   .     A
C563   H577    1.083   .     S
C563   C565    1.389   .     A
C564   C566    1.390   .     A
C564   H578    1.083   .     S
C565   H579    1.083   .     S
C565   C567    1.403   .     A
C566   H580    1.083   .     S
C566   C568    1.403   .     A
C568   C387    1.471   1_565 S
Cu569  Cu570   2.686   .     S
Cu569  O596    1.959   .     S
Cu569  O589    1.958   .     S
Cu569  O593    1.960   .     S
Cu569  N588    2.018   .     S
Cu569  O592    1.955   .     S
Cu570  O591    1.955   .     S
Cu570  O595    1.959   .     S
Cu570  O590    1.958   .     S
Cu570  O594    1.960   .     S
Cu570  N587    2.018   .     S
H571   C615    1.087   .     S
H572   C676    1.087   1_455 S
C597   N598    1.158   .     T
C599   N600    1.158   .     T
C601   C621    1.460   .     S
C601   O651    1.295   .     A
C601   O649    1.297   .     A
C602   C622    1.461   .     S
C602   O652    1.296   .     A
C602   O650    1.297   .     A
C603   C605    1.405   .     A
C603   C611    1.408   .     A
C603   H641    1.080   .     S
C604   C612    1.408   .     A
C604   H642    1.080   .     S
C604   C606    1.406   .     A
C605   C657    1.439   .     S
C605   N647    1.371   .     A
C606   N648    1.371   .     A
C606   C659    1.439   .     S
C607   H643    1.082   .     S
C607   N647    1.362   .     A
C607   C609    1.408   .     A
C608   N648    1.362   .     A
C608   C610    1.408   .     A
C608   H644    1.082   .     S
C609   H645    1.079   .     S
C609   C611    1.417   .     A
C610   H646    1.079   .     S
C610   C612    1.417   .     A
C612   C251    1.525   1_556 S
C613   O653    1.290   .     A
C613   C615    1.433   .     S
C613   O655    1.289   .     A
C614   O656    1.289   .     A
C614   O654    1.290   .     A
C614   C616    1.434   .     S
C616   C675    1.333   .     S
C616   H692    1.087   .     S
C617   H633    1.083   .     S
C617   C627    1.404   .     A
C617   C619    1.390   .     A
C618   C628    1.404   .     A
C618   H634    1.083   .     S
C618   C620    1.390   .     A
C619   H635    1.083   .     S
C619   C621    1.401   .     A
C620   C622    1.401   .     A
C620   H636    1.083   .     S
C621   C623    1.402   .     A
C622   C624    1.402   .     A
C623   H637    1.083   .     S
C623   C625    1.389   .     A
C624   C626    1.390   .     A
C624   H638    1.083   .     S
C625   H639    1.083   .     S
C625   C627    1.403   .     A
C626   H640    1.083   .     S
C626   C628    1.403   .     A
C628   C447    1.471   1_565 S
Cu629  Cu630   2.686   .     S
Cu629  O656    1.959   .     S
Cu629  O649    1.958   .     S
Cu629  O653    1.960   .     S
Cu629  N648    2.018   .     S
Cu629  O652    1.955   .     S
Cu630  O651    1.955   .     S
Cu630  O655    1.959   .     S
Cu630  O650    1.958   .     S
Cu630  O654    1.960   .     S
Cu630  N647    2.018   .     S
H631   C675    1.087   .     S
C657   N658    1.158   .     T
C659   N660    1.158   .     T
C661   C681    1.460   .     S
C661   O711    1.295   .     A
C661   O709    1.297   .     A
C662   C682    1.461   .     S
C662   O712    1.296   .     A
C662   O710    1.297   .     A
C663   C665    1.405   .     A
C663   C671    1.408   .     A
C663   H701    1.080   .     S
C664   C672    1.408   .     A
C664   H702    1.080   .     S
C664   C666    1.406   .     A
C665   C717    1.439   .     S
C665   N707    1.371   .     A
C666   N708    1.371   .     A
C666   C719    1.439   .     S
C667   H703    1.082   .     S
C667   N707    1.362   .     A
C667   C669    1.408   .     A
C668   N708    1.362   .     A
C668   C670    1.408   .     A
C668   H704    1.082   .     S
C669   H705    1.079   .     S
C669   C671    1.417   .     A
C670   H706    1.079   .     S
C670   C672    1.417   .     A
C672   C311    1.525   1_556 S
C673   O713    1.290   .     A
C673   C675    1.433   .     S
C673   O715    1.289   .     A
C674   O716    1.289   .     A
C674   O714    1.290   .     A
C674   C676    1.434   .     S
C676   C555    1.333   1_655 S
C676   H572    1.087   1_655 S
C677   H693    1.083   .     S
C677   C687    1.404   .     A
C677   C679    1.390   .     A
C678   C688    1.404   .     A
C678   H694    1.083   .     S
C678   C680    1.390   .     A
C679   H695    1.083   .     S
C679   C681    1.401   .     A
C680   C682    1.401   .     A
C680   H696    1.083   .     S
C681   C683    1.402   .     A
C682   C684    1.402   .     A
C683   H697    1.083   .     S
C683   C685    1.389   .     A
C684   C686    1.390   .     A
C684   H698    1.083   .     S
C685   H699    1.083   .     S
C685   C687    1.403   .     A
C686   H700    1.083   .     S
C686   C688    1.403   .     A
C688   C507    1.471   1_565 S
Cu689  Cu690   2.686   .     S
Cu689  O716    1.959   .     S
Cu689  O709    1.958   .     S
Cu689  O713    1.960   .     S
Cu689  N708    2.018   .     S
Cu689  O712    1.955   .     S
Cu690  O711    1.955   .     S
Cu690  O715    1.959   .     S
Cu690  O710    1.958   .     S
Cu690  O714    1.960   .     S
Cu690  N707    2.018   .     S
H691   C555    1.087   1_655 S
C717   N718    1.158   .     T
C719   N720    1.158   .     T
