data_str_m2_o2_o10_pcu_sym.7
_audit_creation_date              2020-01-03
_audit_creation_method            'Materials Studio'
_symmetry_space_group_name_H-M    'P1'
_symmetry_Int_Tables_number       1
_symmetry_cell_setting            triclinic
loop_
_symmetry_equiv_pos_as_xyz
  x,y,z
_cell_length_a                    26.2013
_cell_length_b                    30.3037
_cell_length_c                    27.7166
_cell_angle_alpha                 89.1593
_cell_angle_beta                  97.9358
_cell_angle_gamma                 90.2695
loop_
_atom_site_label
_atom_site_type_symbol
_atom_site_fract_x
_atom_site_fract_y
_atom_site_fract_z
_atom_site_U_iso_or_equiv
_atom_site_adp_type
_atom_site_occupancy
C1     C     0.16554   0.16487   0.25032   0.00000  Uiso   1.00
C2     C     0.20668   0.27014   0.45093   0.00000  Uiso   1.00
C3     C     0.16667   0.25006   0.02735   0.00000  Uiso   1.00
C4     C     0.16666   0.25004   0.47266   0.00000  Uiso   1.00
C5     C     0.06789   0.24999   0.23755   0.00000  Uiso   1.00
C6     C     0.26545   0.25000   0.26245   0.00000  Uiso   1.00
C7     C     0.01263   0.25001   0.23068   0.00000  Uiso   1.00
C8     C     0.32071   0.24995   0.26934   0.00000  Uiso   1.00
C9     C     0.14609   0.04572   0.28772   0.00000  Uiso   1.00
C10    C     0.14412   0.45404   0.20750   0.00000  Uiso   1.00
C11    C     0.14461   0.09180   0.28865   0.00000  Uiso   1.00
C12    C     0.16555   0.33511   0.24940   0.00000  Uiso   1.00
C13    C     0.14263   0.40795   0.20631   0.00000  Uiso   1.00
C14    C     0.16454   0.11640   0.25130   0.00000  Uiso   1.00
C15    C     0.16456   0.38352   0.24819   0.00000  Uiso   1.00
C16    C     0.18397   0.09411   0.21370   0.00000  Uiso   1.00
C17    C     0.18598   0.40591   0.29021   0.00000  Uiso   1.00
C18    C     0.18459   0.04833   0.21314   0.00000  Uiso   1.00
C19    C     0.18662   0.45169   0.29087   0.00000  Uiso   1.00
C20    C     0.16600   0.02405   0.25029   0.00000  Uiso   1.00
C21    C     0.16602   0.47585   0.24946   0.00000  Uiso   1.00
C22    C     0.12020   0.11322   0.32864   0.00000  Uiso   1.00
C23    C     0.19155   0.28360   0.05671   0.00000  Uiso   1.00
C24    C     0.11600   0.38627   0.16092   0.00000  Uiso   1.00
C25    C     0.12665   0.22990   0.44115   0.00000  Uiso   1.00
C26    C     0.19145   0.28274   0.10745   0.00000  Uiso   1.00
C27    C     0.12762   0.22993   0.39054   0.00000  Uiso   1.00
C28    C     0.14191   0.21729   0.10197   0.00000  Uiso   1.00
C29    C     0.20572   0.27005   0.40007   0.00000  Uiso   1.00
C30    C     0.14181   0.21649   0.05124   0.00000  Uiso   1.00
Cu31   Cu    0.16667   0.24999   0.29821   0.00000  Uiso   1.00
Cu32   Cu    0.16667   0.25000   0.20178   0.00000  Uiso   1.00
H33    H     0.32599   0.25011   0.19359   0.00000  Uiso   1.00
H34    H     0.09421   0.21460   0.45512   0.00000  Uiso   1.00
H35    H     0.21119   0.30854   0.12931   0.00000  Uiso   1.00
H36    H     0.09677   0.21394   0.36717   0.00000  Uiso   1.00
H37    H     0.12222   0.19141   0.11943   0.00000  Uiso   1.00
H38    H     0.23658   0.28600   0.38420   0.00000  Uiso   1.00
H39    H     0.12284   0.18925   0.03123   0.00000  Uiso   1.00
H40    H     0.23912   0.28545   0.47288   0.00000  Uiso   1.00
H41    H     0.14993   0.13075   0.35377   0.00000  Uiso   1.00
H42    H     0.08978   0.13664   0.31267   0.00000  Uiso   1.00
H43    H     0.10172   0.08853   0.35074   0.00000  Uiso   1.00
H44    H     0.00735   0.24985   0.30643   0.00000  Uiso   1.00
H45    H     0.08660   0.36241   0.17055   0.00000  Uiso   1.00
H46    H     0.09590   0.41076   0.13482   0.00000  Uiso   1.00
H47    H     0.14466   0.36917   0.14194   0.00000  Uiso   1.00
H48    H     0.13082   0.02644   0.31577   0.00000  Uiso   1.00
H49    H     0.12733   0.47319   0.17597   0.00000  Uiso   1.00
H50    H     0.19929   0.11214   0.18482   0.00000  Uiso   1.00
H51    H     0.20285   0.38795   0.32255   0.00000  Uiso   1.00
H52    H     0.20010   0.03181   0.18397   0.00000  Uiso   1.00
H53    H     0.20367   0.46833   0.32355   0.00000  Uiso   1.00
H54    H     0.21054   0.31084   0.04080   0.00000  Uiso   1.00
N55    N     0.16667   0.25001   0.12934   0.00000  Uiso   1.00
N56    N     0.16667   0.24999   0.37065   0.00000  Uiso   1.00
O57    O     0.16667   0.18572   0.29071   0.00000  Uiso   1.00
O58    O     0.16666   0.31427   0.20928   0.00000  Uiso   1.00
O59    O     0.16667   0.18573   0.20928   0.00000  Uiso   1.00
O60    O     0.16666   0.31427   0.29072   0.00000  Uiso   1.00
O61    O     0.09161   0.24999   0.28132   0.00000  Uiso   1.00
O62    O     0.24172   0.25000   0.21868   0.00000  Uiso   1.00
O63    O     0.09161   0.25000   0.19988   0.00000  Uiso   1.00
O64    O     0.24172   0.25000   0.30011   0.00000  Uiso   1.00
C65    C     0.49887   0.16487   0.25032   0.00000  Uiso   1.00
C66    C     0.54002   0.27014   0.45093   0.00000  Uiso   1.00
C67    C     0.50000   0.25006   0.02735   0.00000  Uiso   1.00
C68    C     0.50000   0.25004   0.47266   0.00000  Uiso   1.00
C69    C     0.40122   0.24999   0.23755   0.00000  Uiso   1.00
C70    C     0.59878   0.25000   0.26245   0.00000  Uiso   1.00
C71    C     0.34597   0.25001   0.23068   0.00000  Uiso   1.00
C72    C     0.65404   0.24995   0.26934   0.00000  Uiso   1.00
C73    C     0.47942   0.04572   0.28772   0.00000  Uiso   1.00
C74    C     0.47746   0.45404   0.20750   0.00000  Uiso   1.00
C75    C     0.47795   0.09180   0.28865   0.00000  Uiso   1.00
C76    C     0.49889   0.33511   0.24940   0.00000  Uiso   1.00
C77    C     0.47597   0.40795   0.20631   0.00000  Uiso   1.00
C78    C     0.49787   0.11640   0.25130   0.00000  Uiso   1.00
C79    C     0.49789   0.38352   0.24819   0.00000  Uiso   1.00
C80    C     0.51730   0.09411   0.21370   0.00000  Uiso   1.00
C81    C     0.51932   0.40591   0.29021   0.00000  Uiso   1.00
C82    C     0.51792   0.04833   0.21314   0.00000  Uiso   1.00
C83    C     0.51995   0.45169   0.29087   0.00000  Uiso   1.00
C84    C     0.49933   0.02405   0.25029   0.00000  Uiso   1.00
C85    C     0.49935   0.47585   0.24946   0.00000  Uiso   1.00
C86    C     0.45353   0.11322   0.32864   0.00000  Uiso   1.00
C87    C     0.52488   0.28360   0.05671   0.00000  Uiso   1.00
C88    C     0.44934   0.38627   0.16092   0.00000  Uiso   1.00
C89    C     0.45999   0.22990   0.44115   0.00000  Uiso   1.00
C90    C     0.52479   0.28274   0.10745   0.00000  Uiso   1.00
C91    C     0.46096   0.22993   0.39054   0.00000  Uiso   1.00
C92    C     0.47524   0.21729   0.10197   0.00000  Uiso   1.00
C93    C     0.53906   0.27005   0.40007   0.00000  Uiso   1.00
C94    C     0.47514   0.21649   0.05124   0.00000  Uiso   1.00
Cu95   Cu    0.50000   0.24999   0.29821   0.00000  Uiso   1.00
Cu96   Cu    0.50000   0.25000   0.20178   0.00000  Uiso   1.00
H97    H     0.65932   0.25011   0.19359   0.00000  Uiso   1.00
H98    H     0.42754   0.21460   0.45512   0.00000  Uiso   1.00
H99    H     0.54452   0.30854   0.12931   0.00000  Uiso   1.00
H100   H     0.43010   0.21394   0.36717   0.00000  Uiso   1.00
H101   H     0.45555   0.19141   0.11943   0.00000  Uiso   1.00
H102   H     0.56992   0.28600   0.38420   0.00000  Uiso   1.00
H103   H     0.45618   0.18925   0.03123   0.00000  Uiso   1.00
H104   H     0.57245   0.28545   0.47288   0.00000  Uiso   1.00
H105   H     0.48326   0.13075   0.35377   0.00000  Uiso   1.00
H106   H     0.42312   0.13664   0.31267   0.00000  Uiso   1.00
H107   H     0.43506   0.08853   0.35074   0.00000  Uiso   1.00
H108   H     0.34069   0.24985   0.30643   0.00000  Uiso   1.00
H109   H     0.41993   0.36241   0.17055   0.00000  Uiso   1.00
H110   H     0.42924   0.41076   0.13482   0.00000  Uiso   1.00
H111   H     0.47799   0.36917   0.14194   0.00000  Uiso   1.00
H112   H     0.46416   0.02644   0.31577   0.00000  Uiso   1.00
H113   H     0.46066   0.47319   0.17597   0.00000  Uiso   1.00
H114   H     0.53262   0.11214   0.18482   0.00000  Uiso   1.00
H115   H     0.53619   0.38795   0.32255   0.00000  Uiso   1.00
H116   H     0.53343   0.03181   0.18397   0.00000  Uiso   1.00
H117   H     0.53700   0.46833   0.32355   0.00000  Uiso   1.00
H118   H     0.54387   0.31084   0.04080   0.00000  Uiso   1.00
N119   N     0.50000   0.25001   0.12934   0.00000  Uiso   1.00
N120   N     0.50000   0.24999   0.37065   0.00000  Uiso   1.00
O121   O     0.50000   0.18572   0.29071   0.00000  Uiso   1.00
O122   O     0.50000   0.31427   0.20928   0.00000  Uiso   1.00
O123   O     0.50000   0.18573   0.20928   0.00000  Uiso   1.00
O124   O     0.50000   0.31427   0.29072   0.00000  Uiso   1.00
O125   O     0.42495   0.24999   0.28132   0.00000  Uiso   1.00
O126   O     0.57505   0.25000   0.21868   0.00000  Uiso   1.00
O127   O     0.42495   0.25000   0.19988   0.00000  Uiso   1.00
O128   O     0.57505   0.25000   0.30011   0.00000  Uiso   1.00
C129   C     0.83221   0.16487   0.25032   0.00000  Uiso   1.00
C130   C     0.87335   0.27014   0.45093   0.00000  Uiso   1.00
C131   C     0.83333   0.25006   0.02735   0.00000  Uiso   1.00
C132   C     0.83333   0.25004   0.47266   0.00000  Uiso   1.00
C133   C     0.73456   0.24999   0.23755   0.00000  Uiso   1.00
C134   C     0.93211   0.25000   0.26245   0.00000  Uiso   1.00
C135   C     0.67930   0.25001   0.23068   0.00000  Uiso   1.00
C136   C     0.98737   0.24995   0.26934   0.00000  Uiso   1.00
C137   C     0.81275   0.04572   0.28772   0.00000  Uiso   1.00
C138   C     0.81079   0.45404   0.20750   0.00000  Uiso   1.00
C139   C     0.81128   0.09180   0.28865   0.00000  Uiso   1.00
C140   C     0.83222   0.33511   0.24940   0.00000  Uiso   1.00
C141   C     0.80930   0.40795   0.20631   0.00000  Uiso   1.00
C142   C     0.83120   0.11640   0.25130   0.00000  Uiso   1.00
C143   C     0.83122   0.38352   0.24819   0.00000  Uiso   1.00
C144   C     0.85063   0.09411   0.21370   0.00000  Uiso   1.00
C145   C     0.85265   0.40591   0.29021   0.00000  Uiso   1.00
C146   C     0.85126   0.04833   0.21314   0.00000  Uiso   1.00
C147   C     0.85328   0.45169   0.29087   0.00000  Uiso   1.00
C148   C     0.83267   0.02405   0.25029   0.00000  Uiso   1.00
C149   C     0.83269   0.47585   0.24946   0.00000  Uiso   1.00
C150   C     0.78686   0.11322   0.32864   0.00000  Uiso   1.00
C151   C     0.85821   0.28360   0.05671   0.00000  Uiso   1.00
C152   C     0.78267   0.38627   0.16092   0.00000  Uiso   1.00
C153   C     0.79332   0.22990   0.44115   0.00000  Uiso   1.00
C154   C     0.85812   0.28274   0.10745   0.00000  Uiso   1.00
C155   C     0.79429   0.22993   0.39054   0.00000  Uiso   1.00
C156   C     0.80858   0.21729   0.10197   0.00000  Uiso   1.00
C157   C     0.87239   0.27005   0.40007   0.00000  Uiso   1.00
C158   C     0.80847   0.21649   0.05124   0.00000  Uiso   1.00
Cu159  Cu    0.83333   0.24999   0.29821   0.00000  Uiso   1.00
Cu160  Cu    0.83333   0.25000   0.20178   0.00000  Uiso   1.00
H161   H     0.99265   0.25011   0.19359   0.00000  Uiso   1.00
H162   H     0.76088   0.21460   0.45512   0.00000  Uiso   1.00
H163   H     0.87786   0.30854   0.12931   0.00000  Uiso   1.00
H164   H     0.76343   0.21394   0.36717   0.00000  Uiso   1.00
H165   H     0.78888   0.19141   0.11943   0.00000  Uiso   1.00
H166   H     0.90325   0.28600   0.38420   0.00000  Uiso   1.00
H167   H     0.78951   0.18925   0.03123   0.00000  Uiso   1.00
H168   H     0.90579   0.28545   0.47288   0.00000  Uiso   1.00
H169   H     0.81659   0.13075   0.35377   0.00000  Uiso   1.00
H170   H     0.75645   0.13664   0.31267   0.00000  Uiso   1.00
H171   H     0.76839   0.08853   0.35074   0.00000  Uiso   1.00
H172   H     0.67402   0.24985   0.30643   0.00000  Uiso   1.00
H173   H     0.75326   0.36241   0.17055   0.00000  Uiso   1.00
H174   H     0.76257   0.41076   0.13482   0.00000  Uiso   1.00
H175   H     0.81133   0.36917   0.14194   0.00000  Uiso   1.00
H176   H     0.79749   0.02644   0.31577   0.00000  Uiso   1.00
H177   H     0.79400   0.47319   0.17597   0.00000  Uiso   1.00
H178   H     0.86595   0.11214   0.18482   0.00000  Uiso   1.00
H179   H     0.86952   0.38795   0.32255   0.00000  Uiso   1.00
H180   H     0.86676   0.03181   0.18397   0.00000  Uiso   1.00
H181   H     0.87034   0.46833   0.32355   0.00000  Uiso   1.00
H182   H     0.87721   0.31084   0.04080   0.00000  Uiso   1.00
N183   N     0.83333   0.25001   0.12934   0.00000  Uiso   1.00
N184   N     0.83333   0.24999   0.37065   0.00000  Uiso   1.00
O185   O     0.83334   0.18572   0.29071   0.00000  Uiso   1.00
O186   O     0.83333   0.31427   0.20928   0.00000  Uiso   1.00
O187   O     0.83334   0.18573   0.20928   0.00000  Uiso   1.00
O188   O     0.83333   0.31427   0.29072   0.00000  Uiso   1.00
O189   O     0.75828   0.24999   0.28132   0.00000  Uiso   1.00
O190   O     0.90839   0.25000   0.21868   0.00000  Uiso   1.00
O191   O     0.75828   0.25000   0.19988   0.00000  Uiso   1.00
O192   O     0.90839   0.25000   0.30011   0.00000  Uiso   1.00
C193   C     0.16554   0.66487   0.25032   0.00000  Uiso   1.00
C194   C     0.20668   0.77014   0.45093   0.00000  Uiso   1.00
C195   C     0.16667   0.75006   0.02735   0.00000  Uiso   1.00
C196   C     0.16666   0.75004   0.47266   0.00000  Uiso   1.00
C197   C     0.06789   0.74999   0.23755   0.00000  Uiso   1.00
C198   C     0.26545   0.75000   0.26245   0.00000  Uiso   1.00
C199   C     0.01263   0.75001   0.23068   0.00000  Uiso   1.00
C200   C     0.32071   0.74995   0.26934   0.00000  Uiso   1.00
C201   C     0.14609   0.54572   0.28772   0.00000  Uiso   1.00
C202   C     0.14412   0.95404   0.20750   0.00000  Uiso   1.00
C203   C     0.14461   0.59180   0.28865   0.00000  Uiso   1.00
C204   C     0.16555   0.83511   0.24940   0.00000  Uiso   1.00
C205   C     0.14263   0.90795   0.20631   0.00000  Uiso   1.00
C206   C     0.16454   0.61640   0.25130   0.00000  Uiso   1.00
C207   C     0.16456   0.88352   0.24819   0.00000  Uiso   1.00
C208   C     0.18397   0.59411   0.21370   0.00000  Uiso   1.00
C209   C     0.18598   0.90591   0.29021   0.00000  Uiso   1.00
C210   C     0.18459   0.54833   0.21314   0.00000  Uiso   1.00
C211   C     0.18662   0.95169   0.29087   0.00000  Uiso   1.00
C212   C     0.16600   0.52405   0.25029   0.00000  Uiso   1.00
C213   C     0.16602   0.97585   0.24946   0.00000  Uiso   1.00
C214   C     0.12020   0.61322   0.32864   0.00000  Uiso   1.00
C215   C     0.19155   0.78360   0.05671   0.00000  Uiso   1.00
C216   C     0.11600   0.88627   0.16092   0.00000  Uiso   1.00
C217   C     0.12665   0.72990   0.44115   0.00000  Uiso   1.00
C218   C     0.19145   0.78274   0.10745   0.00000  Uiso   1.00
C219   C     0.12762   0.72993   0.39054   0.00000  Uiso   1.00
C220   C     0.14191   0.71729   0.10197   0.00000  Uiso   1.00
C221   C     0.20572   0.77005   0.40007   0.00000  Uiso   1.00
C222   C     0.14181   0.71649   0.05124   0.00000  Uiso   1.00
Cu223  Cu    0.16667   0.74999   0.29821   0.00000  Uiso   1.00
Cu224  Cu    0.16667   0.75000   0.20178   0.00000  Uiso   1.00
H225   H     0.32599   0.75011   0.19359   0.00000  Uiso   1.00
H226   H     0.09421   0.71460   0.45512   0.00000  Uiso   1.00
H227   H     0.21119   0.80854   0.12931   0.00000  Uiso   1.00
H228   H     0.09677   0.71394   0.36717   0.00000  Uiso   1.00
H229   H     0.12222   0.69141   0.11943   0.00000  Uiso   1.00
H230   H     0.23658   0.78600   0.38420   0.00000  Uiso   1.00
H231   H     0.12284   0.68925   0.03123   0.00000  Uiso   1.00
H232   H     0.23912   0.78545   0.47288   0.00000  Uiso   1.00
H233   H     0.14993   0.63075   0.35377   0.00000  Uiso   1.00
H234   H     0.08978   0.63664   0.31267   0.00000  Uiso   1.00
H235   H     0.10172   0.58853   0.35074   0.00000  Uiso   1.00
H236   H     0.00735   0.74985   0.30643   0.00000  Uiso   1.00
H237   H     0.08660   0.86241   0.17055   0.00000  Uiso   1.00
H238   H     0.09590   0.91076   0.13482   0.00000  Uiso   1.00
H239   H     0.14466   0.86917   0.14194   0.00000  Uiso   1.00
H240   H     0.13082   0.52644   0.31577   0.00000  Uiso   1.00
H241   H     0.12733   0.97319   0.17597   0.00000  Uiso   1.00
H242   H     0.19929   0.61214   0.18482   0.00000  Uiso   1.00
H243   H     0.20285   0.88795   0.32255   0.00000  Uiso   1.00
H244   H     0.20010   0.53181   0.18397   0.00000  Uiso   1.00
H245   H     0.20367   0.96833   0.32355   0.00000  Uiso   1.00
H246   H     0.21054   0.81084   0.04080   0.00000  Uiso   1.00
N247   N     0.16667   0.75001   0.12934   0.00000  Uiso   1.00
N248   N     0.16667   0.74999   0.37065   0.00000  Uiso   1.00
O249   O     0.16667   0.68572   0.29071   0.00000  Uiso   1.00
O250   O     0.16666   0.81427   0.20928   0.00000  Uiso   1.00
O251   O     0.16667   0.68573   0.20928   0.00000  Uiso   1.00
O252   O     0.16666   0.81427   0.29072   0.00000  Uiso   1.00
O253   O     0.09161   0.74999   0.28132   0.00000  Uiso   1.00
O254   O     0.24172   0.75000   0.21868   0.00000  Uiso   1.00
O255   O     0.09161   0.75000   0.19988   0.00000  Uiso   1.00
O256   O     0.24172   0.75000   0.30011   0.00000  Uiso   1.00
C257   C     0.49887   0.66487   0.25032   0.00000  Uiso   1.00
C258   C     0.54002   0.77014   0.45093   0.00000  Uiso   1.00
C259   C     0.50000   0.75006   0.02735   0.00000  Uiso   1.00
C260   C     0.50000   0.75004   0.47266   0.00000  Uiso   1.00
C261   C     0.40122   0.74999   0.23755   0.00000  Uiso   1.00
C262   C     0.59878   0.75000   0.26245   0.00000  Uiso   1.00
C263   C     0.34597   0.75001   0.23068   0.00000  Uiso   1.00
C264   C     0.65404   0.74995   0.26934   0.00000  Uiso   1.00
C265   C     0.47942   0.54572   0.28772   0.00000  Uiso   1.00
C266   C     0.47746   0.95404   0.20750   0.00000  Uiso   1.00
C267   C     0.47795   0.59180   0.28865   0.00000  Uiso   1.00
C268   C     0.49889   0.83511   0.24940   0.00000  Uiso   1.00
C269   C     0.47597   0.90795   0.20631   0.00000  Uiso   1.00
C270   C     0.49787   0.61640   0.25130   0.00000  Uiso   1.00
C271   C     0.49789   0.88352   0.24819   0.00000  Uiso   1.00
C272   C     0.51730   0.59411   0.21370   0.00000  Uiso   1.00
C273   C     0.51932   0.90591   0.29021   0.00000  Uiso   1.00
C274   C     0.51792   0.54833   0.21314   0.00000  Uiso   1.00
C275   C     0.51995   0.95169   0.29087   0.00000  Uiso   1.00
C276   C     0.49933   0.52405   0.25029   0.00000  Uiso   1.00
C277   C     0.49935   0.97585   0.24946   0.00000  Uiso   1.00
C278   C     0.45353   0.61322   0.32864   0.00000  Uiso   1.00
C279   C     0.52488   0.78360   0.05671   0.00000  Uiso   1.00
C280   C     0.44934   0.88627   0.16092   0.00000  Uiso   1.00
C281   C     0.45999   0.72990   0.44115   0.00000  Uiso   1.00
C282   C     0.52479   0.78274   0.10745   0.00000  Uiso   1.00
C283   C     0.46096   0.72993   0.39054   0.00000  Uiso   1.00
C284   C     0.47524   0.71729   0.10197   0.00000  Uiso   1.00
C285   C     0.53906   0.77005   0.40007   0.00000  Uiso   1.00
C286   C     0.47514   0.71649   0.05124   0.00000  Uiso   1.00
Cu287  Cu    0.50000   0.74999   0.29821   0.00000  Uiso   1.00
Cu288  Cu    0.50000   0.75000   0.20178   0.00000  Uiso   1.00
H289   H     0.65932   0.75011   0.19359   0.00000  Uiso   1.00
H290   H     0.42754   0.71460   0.45512   0.00000  Uiso   1.00
H291   H     0.54452   0.80854   0.12931   0.00000  Uiso   1.00
H292   H     0.43010   0.71394   0.36717   0.00000  Uiso   1.00
H293   H     0.45555   0.69141   0.11943   0.00000  Uiso   1.00
H294   H     0.56992   0.78600   0.38420   0.00000  Uiso   1.00
H295   H     0.45618   0.68925   0.03123   0.00000  Uiso   1.00
H296   H     0.57245   0.78545   0.47288   0.00000  Uiso   1.00
H297   H     0.48326   0.63075   0.35377   0.00000  Uiso   1.00
H298   H     0.42312   0.63664   0.31267   0.00000  Uiso   1.00
H299   H     0.43506   0.58853   0.35074   0.00000  Uiso   1.00
H300   H     0.34069   0.74985   0.30643   0.00000  Uiso   1.00
H301   H     0.41993   0.86241   0.17055   0.00000  Uiso   1.00
H302   H     0.42924   0.91076   0.13482   0.00000  Uiso   1.00
H303   H     0.47799   0.86917   0.14194   0.00000  Uiso   1.00
H304   H     0.46416   0.52644   0.31577   0.00000  Uiso   1.00
H305   H     0.46066   0.97319   0.17597   0.00000  Uiso   1.00
H306   H     0.53262   0.61214   0.18482   0.00000  Uiso   1.00
H307   H     0.53619   0.88795   0.32255   0.00000  Uiso   1.00
H308   H     0.53343   0.53181   0.18397   0.00000  Uiso   1.00
H309   H     0.53700   0.96833   0.32355   0.00000  Uiso   1.00
H310   H     0.54387   0.81084   0.04080   0.00000  Uiso   1.00
N311   N     0.50000   0.75001   0.12934   0.00000  Uiso   1.00
N312   N     0.50000   0.74999   0.37065   0.00000  Uiso   1.00
O313   O     0.50000   0.68572   0.29071   0.00000  Uiso   1.00
O314   O     0.50000   0.81427   0.20928   0.00000  Uiso   1.00
O315   O     0.50000   0.68573   0.20928   0.00000  Uiso   1.00
O316   O     0.50000   0.81427   0.29072   0.00000  Uiso   1.00
O317   O     0.42495   0.74999   0.28132   0.00000  Uiso   1.00
O318   O     0.57505   0.75000   0.21868   0.00000  Uiso   1.00
O319   O     0.42495   0.75000   0.19988   0.00000  Uiso   1.00
O320   O     0.57505   0.75000   0.30011   0.00000  Uiso   1.00
C321   C     0.83221   0.66487   0.25032   0.00000  Uiso   1.00
C322   C     0.87335   0.77014   0.45093   0.00000  Uiso   1.00
C323   C     0.83333   0.75006   0.02735   0.00000  Uiso   1.00
C324   C     0.83333   0.75004   0.47266   0.00000  Uiso   1.00
C325   C     0.73456   0.74999   0.23755   0.00000  Uiso   1.00
C326   C     0.93211   0.75000   0.26245   0.00000  Uiso   1.00
C327   C     0.67930   0.75001   0.23068   0.00000  Uiso   1.00
C328   C     0.98737   0.74995   0.26934   0.00000  Uiso   1.00
C329   C     0.81275   0.54572   0.28772   0.00000  Uiso   1.00
C330   C     0.81079   0.95404   0.20750   0.00000  Uiso   1.00
C331   C     0.81128   0.59180   0.28865   0.00000  Uiso   1.00
C332   C     0.83222   0.83511   0.24940   0.00000  Uiso   1.00
C333   C     0.80930   0.90795   0.20631   0.00000  Uiso   1.00
C334   C     0.83120   0.61640   0.25130   0.00000  Uiso   1.00
C335   C     0.83122   0.88352   0.24819   0.00000  Uiso   1.00
C336   C     0.85063   0.59411   0.21370   0.00000  Uiso   1.00
C337   C     0.85265   0.90591   0.29021   0.00000  Uiso   1.00
C338   C     0.85126   0.54833   0.21314   0.00000  Uiso   1.00
C339   C     0.85328   0.95169   0.29087   0.00000  Uiso   1.00
C340   C     0.83267   0.52405   0.25029   0.00000  Uiso   1.00
C341   C     0.83269   0.97585   0.24946   0.00000  Uiso   1.00
C342   C     0.78686   0.61322   0.32864   0.00000  Uiso   1.00
C343   C     0.85821   0.78360   0.05671   0.00000  Uiso   1.00
C344   C     0.78267   0.88627   0.16092   0.00000  Uiso   1.00
C345   C     0.79332   0.72990   0.44115   0.00000  Uiso   1.00
C346   C     0.85812   0.78274   0.10745   0.00000  Uiso   1.00
C347   C     0.79429   0.72993   0.39054   0.00000  Uiso   1.00
C348   C     0.80858   0.71729   0.10197   0.00000  Uiso   1.00
C349   C     0.87239   0.77005   0.40007   0.00000  Uiso   1.00
C350   C     0.80847   0.71649   0.05124   0.00000  Uiso   1.00
Cu351  Cu    0.83333   0.74999   0.29821   0.00000  Uiso   1.00
Cu352  Cu    0.83333   0.75000   0.20178   0.00000  Uiso   1.00
H353   H     0.99265   0.75011   0.19359   0.00000  Uiso   1.00
H354   H     0.76088   0.71460   0.45512   0.00000  Uiso   1.00
H355   H     0.87786   0.80854   0.12931   0.00000  Uiso   1.00
H356   H     0.76343   0.71394   0.36717   0.00000  Uiso   1.00
H357   H     0.78888   0.69141   0.11943   0.00000  Uiso   1.00
H358   H     0.90325   0.78600   0.38420   0.00000  Uiso   1.00
H359   H     0.78951   0.68925   0.03123   0.00000  Uiso   1.00
H360   H     0.90579   0.78545   0.47288   0.00000  Uiso   1.00
H361   H     0.81659   0.63075   0.35377   0.00000  Uiso   1.00
H362   H     0.75645   0.63664   0.31267   0.00000  Uiso   1.00
H363   H     0.76839   0.58853   0.35074   0.00000  Uiso   1.00
H364   H     0.67402   0.74985   0.30643   0.00000  Uiso   1.00
H365   H     0.75326   0.86241   0.17055   0.00000  Uiso   1.00
H366   H     0.76257   0.91076   0.13482   0.00000  Uiso   1.00
H367   H     0.81133   0.86917   0.14194   0.00000  Uiso   1.00
H368   H     0.79749   0.52644   0.31577   0.00000  Uiso   1.00
H369   H     0.79400   0.97319   0.17597   0.00000  Uiso   1.00
H370   H     0.86595   0.61214   0.18482   0.00000  Uiso   1.00
H371   H     0.86952   0.88795   0.32255   0.00000  Uiso   1.00
H372   H     0.86676   0.53181   0.18397   0.00000  Uiso   1.00
H373   H     0.87034   0.96833   0.32355   0.00000  Uiso   1.00
H374   H     0.87721   0.81084   0.04080   0.00000  Uiso   1.00
N375   N     0.83333   0.75001   0.12934   0.00000  Uiso   1.00
N376   N     0.83333   0.74999   0.37065   0.00000  Uiso   1.00
O377   O     0.83334   0.68572   0.29071   0.00000  Uiso   1.00
O378   O     0.83333   0.81427   0.20928   0.00000  Uiso   1.00
O379   O     0.83334   0.68573   0.20928   0.00000  Uiso   1.00
O380   O     0.83333   0.81427   0.29072   0.00000  Uiso   1.00
O381   O     0.75828   0.74999   0.28132   0.00000  Uiso   1.00
O382   O     0.90839   0.75000   0.21868   0.00000  Uiso   1.00
O383   O     0.75828   0.75000   0.19988   0.00000  Uiso   1.00
O384   O     0.90839   0.75000   0.30011   0.00000  Uiso   1.00
C385   C     0.16554   0.16487   0.75032   0.00000  Uiso   1.00
C386   C     0.20668   0.27014   0.95093   0.00000  Uiso   1.00
C387   C     0.16667   0.25006   0.52735   0.00000  Uiso   1.00
C388   C     0.16666   0.25004   0.97266   0.00000  Uiso   1.00
C389   C     0.06789   0.24999   0.73755   0.00000  Uiso   1.00
C390   C     0.26545   0.25000   0.76245   0.00000  Uiso   1.00
C391   C     0.01263   0.25001   0.73068   0.00000  Uiso   1.00
C392   C     0.32071   0.24995   0.76934   0.00000  Uiso   1.00
C393   C     0.14609   0.04572   0.78772   0.00000  Uiso   1.00
C394   C     0.14412   0.45404   0.70750   0.00000  Uiso   1.00
C395   C     0.14461   0.09180   0.78865   0.00000  Uiso   1.00
C396   C     0.16555   0.33511   0.74940   0.00000  Uiso   1.00
C397   C     0.14263   0.40795   0.70631   0.00000  Uiso   1.00
C398   C     0.16454   0.11640   0.75130   0.00000  Uiso   1.00
C399   C     0.16456   0.38352   0.74819   0.00000  Uiso   1.00
C400   C     0.18397   0.09411   0.71370   0.00000  Uiso   1.00
C401   C     0.18598   0.40591   0.79021   0.00000  Uiso   1.00
C402   C     0.18459   0.04833   0.71314   0.00000  Uiso   1.00
C403   C     0.18662   0.45169   0.79087   0.00000  Uiso   1.00
C404   C     0.16600   0.02405   0.75029   0.00000  Uiso   1.00
C405   C     0.16602   0.47585   0.74946   0.00000  Uiso   1.00
C406   C     0.12020   0.11322   0.82864   0.00000  Uiso   1.00
C407   C     0.19155   0.28360   0.55671   0.00000  Uiso   1.00
C408   C     0.11600   0.38627   0.66092   0.00000  Uiso   1.00
C409   C     0.12665   0.22990   0.94115   0.00000  Uiso   1.00
C410   C     0.19145   0.28274   0.60745   0.00000  Uiso   1.00
C411   C     0.12762   0.22993   0.89054   0.00000  Uiso   1.00
C412   C     0.14191   0.21729   0.60197   0.00000  Uiso   1.00
C413   C     0.20572   0.27005   0.90007   0.00000  Uiso   1.00
C414   C     0.14181   0.21649   0.55124   0.00000  Uiso   1.00
Cu415  Cu    0.16667   0.24999   0.79821   0.00000  Uiso   1.00
Cu416  Cu    0.16667   0.25000   0.70178   0.00000  Uiso   1.00
H417   H     0.32599   0.25011   0.69359   0.00000  Uiso   1.00
H418   H     0.09421   0.21460   0.95512   0.00000  Uiso   1.00
H419   H     0.21119   0.30854   0.62931   0.00000  Uiso   1.00
H420   H     0.09677   0.21394   0.86717   0.00000  Uiso   1.00
H421   H     0.12222   0.19141   0.61943   0.00000  Uiso   1.00
H422   H     0.23658   0.28600   0.88420   0.00000  Uiso   1.00
H423   H     0.12284   0.18925   0.53123   0.00000  Uiso   1.00
H424   H     0.23912   0.28545   0.97288   0.00000  Uiso   1.00
H425   H     0.14993   0.13075   0.85377   0.00000  Uiso   1.00
H426   H     0.08978   0.13664   0.81267   0.00000  Uiso   1.00
H427   H     0.10172   0.08853   0.85074   0.00000  Uiso   1.00
H428   H     0.00735   0.24985   0.80643   0.00000  Uiso   1.00
H429   H     0.08660   0.36241   0.67055   0.00000  Uiso   1.00
H430   H     0.09590   0.41076   0.63482   0.00000  Uiso   1.00
H431   H     0.14466   0.36917   0.64194   0.00000  Uiso   1.00
H432   H     0.13082   0.02644   0.81577   0.00000  Uiso   1.00
H433   H     0.12733   0.47319   0.67597   0.00000  Uiso   1.00
H434   H     0.19929   0.11214   0.68482   0.00000  Uiso   1.00
H435   H     0.20285   0.38795   0.82255   0.00000  Uiso   1.00
H436   H     0.20010   0.03181   0.68397   0.00000  Uiso   1.00
H437   H     0.20367   0.46833   0.82355   0.00000  Uiso   1.00
H438   H     0.21054   0.31084   0.54080   0.00000  Uiso   1.00
N439   N     0.16667   0.25001   0.62934   0.00000  Uiso   1.00
N440   N     0.16667   0.24999   0.87065   0.00000  Uiso   1.00
O441   O     0.16667   0.18572   0.79071   0.00000  Uiso   1.00
O442   O     0.16666   0.31427   0.70928   0.00000  Uiso   1.00
O443   O     0.16667   0.18573   0.70928   0.00000  Uiso   1.00
O444   O     0.16666   0.31427   0.79072   0.00000  Uiso   1.00
O445   O     0.09161   0.24999   0.78132   0.00000  Uiso   1.00
O446   O     0.24172   0.25000   0.71868   0.00000  Uiso   1.00
O447   O     0.09161   0.25000   0.69988   0.00000  Uiso   1.00
O448   O     0.24172   0.25000   0.80011   0.00000  Uiso   1.00
C449   C     0.49887   0.16487   0.75032   0.00000  Uiso   1.00
C450   C     0.54002   0.27014   0.95093   0.00000  Uiso   1.00
C451   C     0.50000   0.25006   0.52735   0.00000  Uiso   1.00
C452   C     0.50000   0.25004   0.97266   0.00000  Uiso   1.00
C453   C     0.40122   0.24999   0.73755   0.00000  Uiso   1.00
C454   C     0.59878   0.25000   0.76245   0.00000  Uiso   1.00
C455   C     0.34597   0.25001   0.73068   0.00000  Uiso   1.00
C456   C     0.65404   0.24995   0.76934   0.00000  Uiso   1.00
C457   C     0.47942   0.04572   0.78772   0.00000  Uiso   1.00
C458   C     0.47746   0.45404   0.70750   0.00000  Uiso   1.00
C459   C     0.47795   0.09180   0.78865   0.00000  Uiso   1.00
C460   C     0.49889   0.33511   0.74940   0.00000  Uiso   1.00
C461   C     0.47597   0.40795   0.70631   0.00000  Uiso   1.00
C462   C     0.49787   0.11640   0.75130   0.00000  Uiso   1.00
C463   C     0.49789   0.38352   0.74819   0.00000  Uiso   1.00
C464   C     0.51730   0.09411   0.71370   0.00000  Uiso   1.00
C465   C     0.51932   0.40591   0.79021   0.00000  Uiso   1.00
C466   C     0.51792   0.04833   0.71314   0.00000  Uiso   1.00
C467   C     0.51995   0.45169   0.79087   0.00000  Uiso   1.00
C468   C     0.49933   0.02405   0.75029   0.00000  Uiso   1.00
C469   C     0.49935   0.47585   0.74946   0.00000  Uiso   1.00
C470   C     0.45353   0.11322   0.82864   0.00000  Uiso   1.00
C471   C     0.52488   0.28360   0.55671   0.00000  Uiso   1.00
C472   C     0.44934   0.38627   0.66092   0.00000  Uiso   1.00
C473   C     0.45999   0.22990   0.94115   0.00000  Uiso   1.00
C474   C     0.52479   0.28274   0.60745   0.00000  Uiso   1.00
C475   C     0.46096   0.22993   0.89054   0.00000  Uiso   1.00
C476   C     0.47524   0.21729   0.60197   0.00000  Uiso   1.00
C477   C     0.53906   0.27005   0.90007   0.00000  Uiso   1.00
C478   C     0.47514   0.21649   0.55124   0.00000  Uiso   1.00
Cu479  Cu    0.50000   0.24999   0.79821   0.00000  Uiso   1.00
Cu480  Cu    0.50000   0.25000   0.70178   0.00000  Uiso   1.00
H481   H     0.65932   0.25011   0.69359   0.00000  Uiso   1.00
H482   H     0.42754   0.21460   0.95512   0.00000  Uiso   1.00
H483   H     0.54452   0.30854   0.62931   0.00000  Uiso   1.00
H484   H     0.43010   0.21394   0.86717   0.00000  Uiso   1.00
H485   H     0.45555   0.19141   0.61943   0.00000  Uiso   1.00
H486   H     0.56992   0.28600   0.88420   0.00000  Uiso   1.00
H487   H     0.45618   0.18925   0.53123   0.00000  Uiso   1.00
H488   H     0.57245   0.28545   0.97288   0.00000  Uiso   1.00
H489   H     0.48326   0.13075   0.85377   0.00000  Uiso   1.00
H490   H     0.42312   0.13664   0.81267   0.00000  Uiso   1.00
H491   H     0.43506   0.08853   0.85074   0.00000  Uiso   1.00
H492   H     0.34069   0.24985   0.80643   0.00000  Uiso   1.00
H493   H     0.41993   0.36241   0.67055   0.00000  Uiso   1.00
H494   H     0.42924   0.41076   0.63482   0.00000  Uiso   1.00
H495   H     0.47799   0.36917   0.64194   0.00000  Uiso   1.00
H496   H     0.46416   0.02644   0.81577   0.00000  Uiso   1.00
H497   H     0.46066   0.47319   0.67597   0.00000  Uiso   1.00
H498   H     0.53262   0.11214   0.68482   0.00000  Uiso   1.00
H499   H     0.53619   0.38795   0.82255   0.00000  Uiso   1.00
H500   H     0.53343   0.03181   0.68397   0.00000  Uiso   1.00
H501   H     0.53700   0.46833   0.82355   0.00000  Uiso   1.00
H502   H     0.54387   0.31084   0.54080   0.00000  Uiso   1.00
N503   N     0.50000   0.25001   0.62934   0.00000  Uiso   1.00
N504   N     0.50000   0.24999   0.87065   0.00000  Uiso   1.00
O505   O     0.50000   0.18572   0.79071   0.00000  Uiso   1.00
O506   O     0.50000   0.31427   0.70928   0.00000  Uiso   1.00
O507   O     0.50000   0.18573   0.70928   0.00000  Uiso   1.00
O508   O     0.50000   0.31427   0.79072   0.00000  Uiso   1.00
O509   O     0.42495   0.24999   0.78132   0.00000  Uiso   1.00
O510   O     0.57505   0.25000   0.71868   0.00000  Uiso   1.00
O511   O     0.42495   0.25000   0.69988   0.00000  Uiso   1.00
O512   O     0.57505   0.25000   0.80011   0.00000  Uiso   1.00
C513   C     0.83221   0.16487   0.75032   0.00000  Uiso   1.00
C514   C     0.87335   0.27014   0.95093   0.00000  Uiso   1.00
C515   C     0.83333   0.25006   0.52735   0.00000  Uiso   1.00
C516   C     0.83333   0.25004   0.97266   0.00000  Uiso   1.00
C517   C     0.73456   0.24999   0.73755   0.00000  Uiso   1.00
C518   C     0.93211   0.25000   0.76245   0.00000  Uiso   1.00
C519   C     0.67930   0.25001   0.73068   0.00000  Uiso   1.00
C520   C     0.98737   0.24995   0.76934   0.00000  Uiso   1.00
C521   C     0.81275   0.04572   0.78772   0.00000  Uiso   1.00
C522   C     0.81079   0.45404   0.70750   0.00000  Uiso   1.00
C523   C     0.81128   0.09180   0.78865   0.00000  Uiso   1.00
C524   C     0.83222   0.33511   0.74940   0.00000  Uiso   1.00
C525   C     0.80930   0.40795   0.70631   0.00000  Uiso   1.00
C526   C     0.83120   0.11640   0.75130   0.00000  Uiso   1.00
C527   C     0.83122   0.38352   0.74819   0.00000  Uiso   1.00
C528   C     0.85063   0.09411   0.71370   0.00000  Uiso   1.00
C529   C     0.85265   0.40591   0.79021   0.00000  Uiso   1.00
C530   C     0.85126   0.04833   0.71314   0.00000  Uiso   1.00
C531   C     0.85328   0.45169   0.79087   0.00000  Uiso   1.00
C532   C     0.83267   0.02405   0.75029   0.00000  Uiso   1.00
C533   C     0.83269   0.47585   0.74946   0.00000  Uiso   1.00
C534   C     0.78686   0.11322   0.82864   0.00000  Uiso   1.00
C535   C     0.85821   0.28360   0.55671   0.00000  Uiso   1.00
C536   C     0.78267   0.38627   0.66092   0.00000  Uiso   1.00
C537   C     0.79332   0.22990   0.94115   0.00000  Uiso   1.00
C538   C     0.85812   0.28274   0.60745   0.00000  Uiso   1.00
C539   C     0.79429   0.22993   0.89054   0.00000  Uiso   1.00
C540   C     0.80858   0.21729   0.60197   0.00000  Uiso   1.00
C541   C     0.87239   0.27005   0.90007   0.00000  Uiso   1.00
C542   C     0.80847   0.21649   0.55124   0.00000  Uiso   1.00
Cu543  Cu    0.83333   0.24999   0.79821   0.00000  Uiso   1.00
Cu544  Cu    0.83333   0.25000   0.70178   0.00000  Uiso   1.00
H545   H     0.99265   0.25011   0.69359   0.00000  Uiso   1.00
H546   H     0.76088   0.21460   0.95512   0.00000  Uiso   1.00
H547   H     0.87786   0.30854   0.62931   0.00000  Uiso   1.00
H548   H     0.76343   0.21394   0.86717   0.00000  Uiso   1.00
H549   H     0.78888   0.19141   0.61943   0.00000  Uiso   1.00
H550   H     0.90325   0.28600   0.88420   0.00000  Uiso   1.00
H551   H     0.78951   0.18925   0.53123   0.00000  Uiso   1.00
H552   H     0.90579   0.28545   0.97288   0.00000  Uiso   1.00
H553   H     0.81659   0.13075   0.85377   0.00000  Uiso   1.00
H554   H     0.75645   0.13664   0.81267   0.00000  Uiso   1.00
H555   H     0.76839   0.08853   0.85074   0.00000  Uiso   1.00
H556   H     0.67402   0.24985   0.80643   0.00000  Uiso   1.00
H557   H     0.75326   0.36241   0.67055   0.00000  Uiso   1.00
H558   H     0.76257   0.41076   0.63482   0.00000  Uiso   1.00
H559   H     0.81133   0.36917   0.64194   0.00000  Uiso   1.00
H560   H     0.79749   0.02644   0.81577   0.00000  Uiso   1.00
H561   H     0.79400   0.47319   0.67597   0.00000  Uiso   1.00
H562   H     0.86595   0.11214   0.68482   0.00000  Uiso   1.00
H563   H     0.86952   0.38795   0.82255   0.00000  Uiso   1.00
H564   H     0.86676   0.03181   0.68397   0.00000  Uiso   1.00
H565   H     0.87034   0.46833   0.82355   0.00000  Uiso   1.00
H566   H     0.87721   0.31084   0.54080   0.00000  Uiso   1.00
N567   N     0.83333   0.25001   0.62934   0.00000  Uiso   1.00
N568   N     0.83333   0.24999   0.87065   0.00000  Uiso   1.00
O569   O     0.83334   0.18572   0.79071   0.00000  Uiso   1.00
O570   O     0.83333   0.31427   0.70928   0.00000  Uiso   1.00
O571   O     0.83334   0.18573   0.70928   0.00000  Uiso   1.00
O572   O     0.83333   0.31427   0.79072   0.00000  Uiso   1.00
O573   O     0.75828   0.24999   0.78132   0.00000  Uiso   1.00
O574   O     0.90839   0.25000   0.71868   0.00000  Uiso   1.00
O575   O     0.75828   0.25000   0.69988   0.00000  Uiso   1.00
O576   O     0.90839   0.25000   0.80011   0.00000  Uiso   1.00
C577   C     0.16554   0.66487   0.75032   0.00000  Uiso   1.00
C578   C     0.20668   0.77014   0.95093   0.00000  Uiso   1.00
C579   C     0.16667   0.75006   0.52735   0.00000  Uiso   1.00
C580   C     0.16666   0.75004   0.97266   0.00000  Uiso   1.00
C581   C     0.06789   0.74999   0.73755   0.00000  Uiso   1.00
C582   C     0.26545   0.75000   0.76245   0.00000  Uiso   1.00
C583   C     0.01263   0.75001   0.73068   0.00000  Uiso   1.00
C584   C     0.32071   0.74995   0.76934   0.00000  Uiso   1.00
C585   C     0.14609   0.54572   0.78772   0.00000  Uiso   1.00
C586   C     0.14412   0.95404   0.70750   0.00000  Uiso   1.00
C587   C     0.14461   0.59180   0.78865   0.00000  Uiso   1.00
C588   C     0.16555   0.83511   0.74940   0.00000  Uiso   1.00
C589   C     0.14263   0.90795   0.70631   0.00000  Uiso   1.00
C590   C     0.16454   0.61640   0.75130   0.00000  Uiso   1.00
C591   C     0.16456   0.88352   0.74819   0.00000  Uiso   1.00
C592   C     0.18397   0.59411   0.71370   0.00000  Uiso   1.00
C593   C     0.18598   0.90591   0.79021   0.00000  Uiso   1.00
C594   C     0.18459   0.54833   0.71314   0.00000  Uiso   1.00
C595   C     0.18662   0.95169   0.79087   0.00000  Uiso   1.00
C596   C     0.16600   0.52405   0.75029   0.00000  Uiso   1.00
C597   C     0.16602   0.97585   0.74946   0.00000  Uiso   1.00
C598   C     0.12020   0.61322   0.82864   0.00000  Uiso   1.00
C599   C     0.19155   0.78360   0.55671   0.00000  Uiso   1.00
C600   C     0.11600   0.88627   0.66092   0.00000  Uiso   1.00
C601   C     0.12665   0.72990   0.94115   0.00000  Uiso   1.00
C602   C     0.19145   0.78274   0.60745   0.00000  Uiso   1.00
C603   C     0.12762   0.72993   0.89054   0.00000  Uiso   1.00
C604   C     0.14191   0.71729   0.60197   0.00000  Uiso   1.00
C605   C     0.20572   0.77005   0.90007   0.00000  Uiso   1.00
C606   C     0.14181   0.71649   0.55124   0.00000  Uiso   1.00
Cu607  Cu    0.16667   0.74999   0.79821   0.00000  Uiso   1.00
Cu608  Cu    0.16667   0.75000   0.70178   0.00000  Uiso   1.00
H609   H     0.32599   0.75011   0.69359   0.00000  Uiso   1.00
H610   H     0.09421   0.71460   0.95512   0.00000  Uiso   1.00
H611   H     0.21119   0.80854   0.62931   0.00000  Uiso   1.00
H612   H     0.09677   0.71394   0.86717   0.00000  Uiso   1.00
H613   H     0.12222   0.69141   0.61943   0.00000  Uiso   1.00
H614   H     0.23658   0.78600   0.88420   0.00000  Uiso   1.00
H615   H     0.12284   0.68925   0.53123   0.00000  Uiso   1.00
H616   H     0.23912   0.78545   0.97288   0.00000  Uiso   1.00
H617   H     0.14993   0.63075   0.85377   0.00000  Uiso   1.00
H618   H     0.08978   0.63664   0.81267   0.00000  Uiso   1.00
H619   H     0.10172   0.58853   0.85074   0.00000  Uiso   1.00
H620   H     0.00735   0.74985   0.80643   0.00000  Uiso   1.00
H621   H     0.08660   0.86241   0.67055   0.00000  Uiso   1.00
H622   H     0.09590   0.91076   0.63482   0.00000  Uiso   1.00
H623   H     0.14466   0.86917   0.64194   0.00000  Uiso   1.00
H624   H     0.13082   0.52644   0.81577   0.00000  Uiso   1.00
H625   H     0.12733   0.97319   0.67597   0.00000  Uiso   1.00
H626   H     0.19929   0.61214   0.68482   0.00000  Uiso   1.00
H627   H     0.20285   0.88795   0.82255   0.00000  Uiso   1.00
H628   H     0.20010   0.53181   0.68397   0.00000  Uiso   1.00
H629   H     0.20367   0.96833   0.82355   0.00000  Uiso   1.00
H630   H     0.21054   0.81084   0.54080   0.00000  Uiso   1.00
N631   N     0.16667   0.75001   0.62934   0.00000  Uiso   1.00
N632   N     0.16667   0.74999   0.87065   0.00000  Uiso   1.00
O633   O     0.16667   0.68572   0.79071   0.00000  Uiso   1.00
O634   O     0.16666   0.81427   0.70928   0.00000  Uiso   1.00
O635   O     0.16667   0.68573   0.70928   0.00000  Uiso   1.00
O636   O     0.16666   0.81427   0.79072   0.00000  Uiso   1.00
O637   O     0.09161   0.74999   0.78132   0.00000  Uiso   1.00
O638   O     0.24172   0.75000   0.71868   0.00000  Uiso   1.00
O639   O     0.09161   0.75000   0.69988   0.00000  Uiso   1.00
O640   O     0.24172   0.75000   0.80011   0.00000  Uiso   1.00
C641   C     0.49887   0.66487   0.75032   0.00000  Uiso   1.00
C642   C     0.54002   0.77014   0.95093   0.00000  Uiso   1.00
C643   C     0.50000   0.75006   0.52735   0.00000  Uiso   1.00
C644   C     0.50000   0.75004   0.97266   0.00000  Uiso   1.00
C645   C     0.40122   0.74999   0.73755   0.00000  Uiso   1.00
C646   C     0.59878   0.75000   0.76245   0.00000  Uiso   1.00
C647   C     0.34597   0.75001   0.73068   0.00000  Uiso   1.00
C648   C     0.65404   0.74995   0.76934   0.00000  Uiso   1.00
C649   C     0.47942   0.54572   0.78772   0.00000  Uiso   1.00
C650   C     0.47746   0.95404   0.70750   0.00000  Uiso   1.00
C651   C     0.47795   0.59180   0.78865   0.00000  Uiso   1.00
C652   C     0.49889   0.83511   0.74940   0.00000  Uiso   1.00
C653   C     0.47597   0.90795   0.70631   0.00000  Uiso   1.00
C654   C     0.49787   0.61640   0.75130   0.00000  Uiso   1.00
C655   C     0.49789   0.88352   0.74819   0.00000  Uiso   1.00
C656   C     0.51730   0.59411   0.71370   0.00000  Uiso   1.00
C657   C     0.51932   0.90591   0.79021   0.00000  Uiso   1.00
C658   C     0.51792   0.54833   0.71314   0.00000  Uiso   1.00
C659   C     0.51995   0.95169   0.79087   0.00000  Uiso   1.00
C660   C     0.49933   0.52405   0.75029   0.00000  Uiso   1.00
C661   C     0.49935   0.97585   0.74946   0.00000  Uiso   1.00
C662   C     0.45353   0.61322   0.82864   0.00000  Uiso   1.00
C663   C     0.52488   0.78360   0.55671   0.00000  Uiso   1.00
C664   C     0.44934   0.88627   0.66092   0.00000  Uiso   1.00
C665   C     0.45999   0.72990   0.94115   0.00000  Uiso   1.00
C666   C     0.52479   0.78274   0.60745   0.00000  Uiso   1.00
C667   C     0.46096   0.72993   0.89054   0.00000  Uiso   1.00
C668   C     0.47524   0.71729   0.60197   0.00000  Uiso   1.00
C669   C     0.53906   0.77005   0.90007   0.00000  Uiso   1.00
C670   C     0.47514   0.71649   0.55124   0.00000  Uiso   1.00
Cu671  Cu    0.50000   0.74999   0.79821   0.00000  Uiso   1.00
Cu672  Cu    0.50000   0.75000   0.70178   0.00000  Uiso   1.00
H673   H     0.65932   0.75011   0.69359   0.00000  Uiso   1.00
H674   H     0.42754   0.71460   0.95512   0.00000  Uiso   1.00
H675   H     0.54452   0.80854   0.62931   0.00000  Uiso   1.00
H676   H     0.43010   0.71394   0.86717   0.00000  Uiso   1.00
H677   H     0.45555   0.69141   0.61943   0.00000  Uiso   1.00
H678   H     0.56992   0.78600   0.88420   0.00000  Uiso   1.00
H679   H     0.45618   0.68925   0.53123   0.00000  Uiso   1.00
H680   H     0.57245   0.78545   0.97288   0.00000  Uiso   1.00
H681   H     0.48326   0.63075   0.85377   0.00000  Uiso   1.00
H682   H     0.42312   0.63664   0.81267   0.00000  Uiso   1.00
H683   H     0.43506   0.58853   0.85074   0.00000  Uiso   1.00
H684   H     0.34069   0.74985   0.80643   0.00000  Uiso   1.00
H685   H     0.41993   0.86241   0.67055   0.00000  Uiso   1.00
H686   H     0.42924   0.91076   0.63482   0.00000  Uiso   1.00
H687   H     0.47799   0.86917   0.64194   0.00000  Uiso   1.00
H688   H     0.46416   0.52644   0.81577   0.00000  Uiso   1.00
H689   H     0.46066   0.97319   0.67597   0.00000  Uiso   1.00
H690   H     0.53262   0.61214   0.68482   0.00000  Uiso   1.00
H691   H     0.53619   0.88795   0.82255   0.00000  Uiso   1.00
H692   H     0.53343   0.53181   0.68397   0.00000  Uiso   1.00
H693   H     0.53700   0.96833   0.82355   0.00000  Uiso   1.00
H694   H     0.54387   0.81084   0.54080   0.00000  Uiso   1.00
N695   N     0.50000   0.75001   0.62934   0.00000  Uiso   1.00
N696   N     0.50000   0.74999   0.87065   0.00000  Uiso   1.00
O697   O     0.50000   0.68572   0.79071   0.00000  Uiso   1.00
O698   O     0.50000   0.81427   0.70928   0.00000  Uiso   1.00
O699   O     0.50000   0.68573   0.70928   0.00000  Uiso   1.00
O700   O     0.50000   0.81427   0.79072   0.00000  Uiso   1.00
O701   O     0.42495   0.74999   0.78132   0.00000  Uiso   1.00
O702   O     0.57505   0.75000   0.71868   0.00000  Uiso   1.00
O703   O     0.42495   0.75000   0.69988   0.00000  Uiso   1.00
O704   O     0.57505   0.75000   0.80011   0.00000  Uiso   1.00
C705   C     0.83221   0.66487   0.75032   0.00000  Uiso   1.00
C706   C     0.87335   0.77014   0.95093   0.00000  Uiso   1.00
C707   C     0.83333   0.75006   0.52735   0.00000  Uiso   1.00
C708   C     0.83333   0.75004   0.97266   0.00000  Uiso   1.00
C709   C     0.73456   0.74999   0.73755   0.00000  Uiso   1.00
C710   C     0.93211   0.75000   0.76245   0.00000  Uiso   1.00
C711   C     0.67930   0.75001   0.73068   0.00000  Uiso   1.00
C712   C     0.98737   0.74995   0.76934   0.00000  Uiso   1.00
C713   C     0.81275   0.54572   0.78772   0.00000  Uiso   1.00
C714   C     0.81079   0.95404   0.70750   0.00000  Uiso   1.00
C715   C     0.81128   0.59180   0.78865   0.00000  Uiso   1.00
C716   C     0.83222   0.83511   0.74940   0.00000  Uiso   1.00
C717   C     0.80930   0.90795   0.70631   0.00000  Uiso   1.00
C718   C     0.83120   0.61640   0.75130   0.00000  Uiso   1.00
C719   C     0.83122   0.88352   0.74819   0.00000  Uiso   1.00
C720   C     0.85063   0.59411   0.71370   0.00000  Uiso   1.00
C721   C     0.85265   0.90591   0.79021   0.00000  Uiso   1.00
C722   C     0.85126   0.54833   0.71314   0.00000  Uiso   1.00
C723   C     0.85328   0.95169   0.79087   0.00000  Uiso   1.00
C724   C     0.83267   0.52405   0.75029   0.00000  Uiso   1.00
C725   C     0.83269   0.97585   0.74946   0.00000  Uiso   1.00
C726   C     0.78686   0.61322   0.82864   0.00000  Uiso   1.00
C727   C     0.85821   0.78360   0.55671   0.00000  Uiso   1.00
C728   C     0.78267   0.88627   0.66092   0.00000  Uiso   1.00
C729   C     0.79332   0.72990   0.94115   0.00000  Uiso   1.00
C730   C     0.85812   0.78274   0.60745   0.00000  Uiso   1.00
C731   C     0.79429   0.72993   0.89054   0.00000  Uiso   1.00
C732   C     0.80858   0.71729   0.60197   0.00000  Uiso   1.00
C733   C     0.87239   0.77005   0.90007   0.00000  Uiso   1.00
C734   C     0.80847   0.71649   0.55124   0.00000  Uiso   1.00
Cu735  Cu    0.83333   0.74999   0.79821   0.00000  Uiso   1.00
Cu736  Cu    0.83333   0.75000   0.70178   0.00000  Uiso   1.00
H737   H     0.99265   0.75011   0.69359   0.00000  Uiso   1.00
H738   H     0.76088   0.71460   0.95512   0.00000  Uiso   1.00
H739   H     0.87786   0.80854   0.62931   0.00000  Uiso   1.00
H740   H     0.76343   0.71394   0.86717   0.00000  Uiso   1.00
H741   H     0.78888   0.69141   0.61943   0.00000  Uiso   1.00
H742   H     0.90325   0.78600   0.88420   0.00000  Uiso   1.00
H743   H     0.78951   0.68925   0.53123   0.00000  Uiso   1.00
H744   H     0.90579   0.78545   0.97288   0.00000  Uiso   1.00
H745   H     0.81659   0.63075   0.85377   0.00000  Uiso   1.00
H746   H     0.75645   0.63664   0.81267   0.00000  Uiso   1.00
H747   H     0.76839   0.58853   0.85074   0.00000  Uiso   1.00
H748   H     0.67402   0.74985   0.80643   0.00000  Uiso   1.00
H749   H     0.75326   0.86241   0.67055   0.00000  Uiso   1.00
H750   H     0.76257   0.91076   0.63482   0.00000  Uiso   1.00
H751   H     0.81133   0.86917   0.64194   0.00000  Uiso   1.00
H752   H     0.79749   0.52644   0.81577   0.00000  Uiso   1.00
H753   H     0.79400   0.97319   0.67597   0.00000  Uiso   1.00
H754   H     0.86595   0.61214   0.68482   0.00000  Uiso   1.00
H755   H     0.86952   0.88795   0.82255   0.00000  Uiso   1.00
H756   H     0.86676   0.53181   0.68397   0.00000  Uiso   1.00
H757   H     0.87034   0.96833   0.82355   0.00000  Uiso   1.00
H758   H     0.87721   0.81084   0.54080   0.00000  Uiso   1.00
N759   N     0.83333   0.75001   0.62934   0.00000  Uiso   1.00
N760   N     0.83333   0.74999   0.87065   0.00000  Uiso   1.00
O761   O     0.83334   0.68572   0.79071   0.00000  Uiso   1.00
O762   O     0.83333   0.81427   0.70928   0.00000  Uiso   1.00
O763   O     0.83334   0.68573   0.70928   0.00000  Uiso   1.00
O764   O     0.83333   0.81427   0.79072   0.00000  Uiso   1.00
O765   O     0.75828   0.74999   0.78132   0.00000  Uiso   1.00
O766   O     0.90839   0.75000   0.71868   0.00000  Uiso   1.00
O767   O     0.75828   0.75000   0.69988   0.00000  Uiso   1.00
O768   O     0.90839   0.75000   0.80011   0.00000  Uiso   1.00
loop_
_geom_bond_atom_site_label_1
_geom_bond_atom_site_label_2
_geom_bond_distance
_geom_bond_site_symmetry_2
_ccdc_geom_bond_type
C1     C14     1.469   .     S
C1     O57     1.290   .     A
C1     O59     1.297   .     A
C2     C4      1.411   .     A
C2     C29     1.407   .     A
C2     H40     1.081   .     S
C3     C30     1.411   .     A
C3     C23     1.411   .     A
C3     C388    1.516   1_554 S
C4     C25     1.411   .     A
C4     C387    1.516   .     S
C5     C7      1.434   .     S
C5     O63     1.287   .     A
C5     O61     1.284   .     A
C6     O62     1.285   .     A
C6     O64     1.287   .     A
C6     C8      1.434   .     S
C7     C136    1.335   1_455 S
C7     H161    1.087   1_455 S
C8     C71     1.335   .     S
C8     H108    1.087   .     S
C9     C11     1.398   .     A
C9     H48     1.084   .     S
C9     C20     1.397   .     A
C10    C21     1.397   .     A
C10    H49     1.084   .     S
C10    C13     1.398   .     A
C11    C14     1.422   .     A
C11    C22     1.510   .     S
C12    C15     1.467   .     S
C12    O60     1.297   .     A
C12    O58     1.290   .     A
C13    C15     1.421   .     A
C13    C24     1.509   .     S
C14    C16     1.404   .     A
C15    C17     1.404   .     A
C16    H50     1.083   .     S
C16    C18     1.388   .     A
C17    C19     1.388   .     A
C17    H51     1.084   .     S
C18    H52     1.083   .     S
C18    C20     1.397   .     A
C19    H53     1.083   .     S
C19    C21     1.397   .     A
C20    C213    1.461   1_545 S
C21    C212    1.461   .     S
C22    H43     1.111   .     S
C22    H42     1.111   .     S
C22    H41     1.110   .     S
C23    H54     1.081   .     S
C23    C26     1.407   .     A
C24    H46     1.111   .     S
C24    H45     1.111   .     S
C24    H47     1.109   .     S
C25    C27     1.406   .     A
C25    H34     1.081   .     S
C26    N55     1.363   .     A
C26    H35     1.081   .     S
C27    H36     1.081   .     S
C27    N56     1.364   .     A
C28    C30     1.406   .     A
C28    H37     1.081   .     S
C28    N55     1.364   .     A
C29    H38     1.081   .     S
C29    N56     1.364   .     A
C30    H39     1.081   .     S
Cu31   O60     1.956   .     S
Cu31   N56     2.008   .     S
Cu31   O61     1.958   .     S
Cu31   O57     1.962   .     S
Cu31   O64     1.960   .     S
Cu31   Cu32    2.673   .     S
Cu32   N55     2.008   .     S
Cu32   O58     1.962   .     S
Cu32   O62     1.958   .     S
Cu32   O59     1.956   .     S
Cu32   O63     1.960   .     S
H33    C71     1.087   .     S
H44    C136    1.087   1_455 S
C65    C78     1.469   .     S
C65    O121    1.290   .     A
C65    O123    1.297   .     A
C66    C68     1.411   .     A
C66    C93     1.407   .     A
C66    H104    1.081   .     S
C67    C94     1.411   .     A
C67    C87     1.411   .     A
C67    C452    1.516   1_554 S
C68    C89     1.411   .     A
C68    C451    1.516   .     S
C69    C71     1.434   .     S
C69    O127    1.287   .     A
C69    O125    1.284   .     A
C70    O126    1.285   .     A
C70    O128    1.287   .     A
C70    C72     1.434   .     S
C72    C135    1.335   .     S
C72    H172    1.087   .     S
C73    C75     1.398   .     A
C73    H112    1.084   .     S
C73    C84     1.397   .     A
C74    C85     1.397   .     A
C74    H113    1.084   .     S
C74    C77     1.398   .     A
C75    C78     1.422   .     A
C75    C86     1.510   .     S
C76    C79     1.467   .     S
C76    O124    1.297   .     A
C76    O122    1.290   .     A
C77    C79     1.421   .     A
C77    C88     1.509   .     S
C78    C80     1.404   .     A
C79    C81     1.404   .     A
C80    H114    1.083   .     S
C80    C82     1.388   .     A
C81    C83     1.388   .     A
C81    H115    1.084   .     S
C82    H116    1.083   .     S
C82    C84     1.397   .     A
C83    H117    1.083   .     S
C83    C85     1.397   .     A
C84    C277    1.461   1_545 S
C85    C276    1.461   .     S
C86    H107    1.111   .     S
C86    H106    1.111   .     S
C86    H105    1.110   .     S
C87    H118    1.081   .     S
C87    C90     1.407   .     A
C88    H110    1.111   .     S
C88    H109    1.111   .     S
C88    H111    1.109   .     S
C89    C91     1.406   .     A
C89    H98     1.081   .     S
C90    N119    1.363   .     A
C90    H99     1.081   .     S
C91    H100    1.081   .     S
C91    N120    1.364   .     A
C92    C94     1.406   .     A
C92    H101    1.081   .     S
C92    N119    1.364   .     A
C93    H102    1.081   .     S
C93    N120    1.364   .     A
C94    H103    1.081   .     S
Cu95   O124    1.956   .     S
Cu95   N120    2.008   .     S
Cu95   O125    1.958   .     S
Cu95   O121    1.962   .     S
Cu95   O128    1.960   .     S
Cu95   Cu96    2.673   .     S
Cu96   N119    2.008   .     S
Cu96   O122    1.962   .     S
Cu96   O126    1.958   .     S
Cu96   O123    1.956   .     S
Cu96   O127    1.960   .     S
H97    C135    1.087   .     S
C129   C142    1.469   .     S
C129   O185    1.290   .     A
C129   O187    1.297   .     A
C130   C132    1.411   .     A
C130   C157    1.407   .     A
C130   H168    1.081   .     S
C131   C158    1.411   .     A
C131   C151    1.411   .     A
C131   C516    1.516   1_554 S
C132   C153    1.411   .     A
C132   C515    1.516   .     S
C133   C135    1.434   .     S
C133   O191    1.287   .     A
C133   O189    1.284   .     A
C134   O190    1.285   .     A
C134   O192    1.287   .     A
C134   C136    1.434   .     S
C136   C7      1.335   1_655 S
C136   H44     1.087   1_655 S
C137   C139    1.398   .     A
C137   H176    1.084   .     S
C137   C148    1.397   .     A
C138   C149    1.397   .     A
C138   H177    1.084   .     S
C138   C141    1.398   .     A
C139   C142    1.422   .     A
C139   C150    1.510   .     S
C140   C143    1.467   .     S
C140   O188    1.297   .     A
C140   O186    1.290   .     A
C141   C143    1.421   .     A
C141   C152    1.509   .     S
C142   C144    1.404   .     A
C143   C145    1.404   .     A
C144   H178    1.083   .     S
C144   C146    1.388   .     A
C145   C147    1.388   .     A
C145   H179    1.084   .     S
C146   H180    1.083   .     S
C146   C148    1.397   .     A
C147   H181    1.083   .     S
C147   C149    1.397   .     A
C148   C341    1.461   1_545 S
C149   C340    1.461   .     S
C150   H171    1.111   .     S
C150   H170    1.111   .     S
C150   H169    1.110   .     S
C151   H182    1.081   .     S
C151   C154    1.407   .     A
C152   H174    1.111   .     S
C152   H173    1.111   .     S
C152   H175    1.109   .     S
C153   C155    1.406   .     A
C153   H162    1.081   .     S
C154   N183    1.363   .     A
C154   H163    1.081   .     S
C155   H164    1.081   .     S
C155   N184    1.364   .     A
C156   C158    1.406   .     A
C156   H165    1.081   .     S
C156   N183    1.364   .     A
C157   H166    1.081   .     S
C157   N184    1.364   .     A
C158   H167    1.081   .     S
Cu159  O188    1.956   .     S
Cu159  N184    2.008   .     S
Cu159  O189    1.958   .     S
Cu159  O185    1.962   .     S
Cu159  O192    1.960   .     S
Cu159  Cu160   2.673   .     S
Cu160  N183    2.008   .     S
Cu160  O186    1.962   .     S
Cu160  O190    1.958   .     S
Cu160  O187    1.956   .     S
Cu160  O191    1.960   .     S
H161   C7      1.087   1_655 S
C193   C206    1.469   .     S
C193   O249    1.290   .     A
C193   O251    1.297   .     A
C194   C196    1.411   .     A
C194   C221    1.407   .     A
C194   H232    1.081   .     S
C195   C222    1.411   .     A
C195   C215    1.411   .     A
C195   C580    1.516   1_554 S
C196   C217    1.411   .     A
C196   C579    1.516   .     S
C197   C199    1.434   .     S
C197   O255    1.287   .     A
C197   O253    1.284   .     A
C198   O254    1.285   .     A
C198   O256    1.287   .     A
C198   C200    1.434   .     S
C199   C328    1.335   1_455 S
C199   H353    1.087   1_455 S
C200   C263    1.335   .     S
C200   H300    1.087   .     S
C201   C203    1.398   .     A
C201   H240    1.084   .     S
C201   C212    1.397   .     A
C202   C213    1.397   .     A
C202   H241    1.084   .     S
C202   C205    1.398   .     A
C203   C206    1.422   .     A
C203   C214    1.510   .     S
C204   C207    1.467   .     S
C204   O252    1.297   .     A
C204   O250    1.290   .     A
C205   C207    1.421   .     A
C205   C216    1.509   .     S
C206   C208    1.404   .     A
C207   C209    1.404   .     A
C208   H242    1.083   .     S
C208   C210    1.388   .     A
C209   C211    1.388   .     A
C209   H243    1.084   .     S
C210   H244    1.083   .     S
C210   C212    1.397   .     A
C211   H245    1.083   .     S
C211   C213    1.397   .     A
C213   C20     1.461   1_565 S
C214   H235    1.111   .     S
C214   H234    1.111   .     S
C214   H233    1.110   .     S
C215   H246    1.081   .     S
C215   C218    1.407   .     A
C216   H238    1.111   .     S
C216   H237    1.111   .     S
C216   H239    1.109   .     S
C217   C219    1.406   .     A
C217   H226    1.081   .     S
C218   N247    1.363   .     A
C218   H227    1.081   .     S
C219   H228    1.081   .     S
C219   N248    1.364   .     A
C220   C222    1.406   .     A
C220   H229    1.081   .     S
C220   N247    1.364   .     A
C221   H230    1.081   .     S
C221   N248    1.364   .     A
C222   H231    1.081   .     S
Cu223  O252    1.956   .     S
Cu223  N248    2.008   .     S
Cu223  O253    1.958   .     S
Cu223  O249    1.962   .     S
Cu223  O256    1.960   .     S
Cu223  Cu224   2.673   .     S
Cu224  N247    2.008   .     S
Cu224  O250    1.962   .     S
Cu224  O254    1.958   .     S
Cu224  O251    1.956   .     S
Cu224  O255    1.960   .     S
H225   C263    1.087   .     S
H236   C328    1.087   1_455 S
C257   C270    1.469   .     S
C257   O313    1.290   .     A
C257   O315    1.297   .     A
C258   C260    1.411   .     A
C258   C285    1.407   .     A
C258   H296    1.081   .     S
C259   C286    1.411   .     A
C259   C279    1.411   .     A
C259   C644    1.516   1_554 S
C260   C281    1.411   .     A
C260   C643    1.516   .     S
C261   C263    1.434   .     S
C261   O319    1.287   .     A
C261   O317    1.284   .     A
C262   O318    1.285   .     A
C262   O320    1.287   .     A
C262   C264    1.434   .     S
C264   C327    1.335   .     S
C264   H364    1.087   .     S
C265   C267    1.398   .     A
C265   H304    1.084   .     S
C265   C276    1.397   .     A
C266   C277    1.397   .     A
C266   H305    1.084   .     S
C266   C269    1.398   .     A
C267   C270    1.422   .     A
C267   C278    1.510   .     S
C268   C271    1.467   .     S
C268   O316    1.297   .     A
C268   O314    1.290   .     A
C269   C271    1.421   .     A
C269   C280    1.509   .     S
C270   C272    1.404   .     A
C271   C273    1.404   .     A
C272   H306    1.083   .     S
C272   C274    1.388   .     A
C273   C275    1.388   .     A
C273   H307    1.084   .     S
C274   H308    1.083   .     S
C274   C276    1.397   .     A
C275   H309    1.083   .     S
C275   C277    1.397   .     A
C277   C84     1.461   1_565 S
C278   H299    1.111   .     S
C278   H298    1.111   .     S
C278   H297    1.110   .     S
C279   H310    1.081   .     S
C279   C282    1.407   .     A
C280   H302    1.111   .     S
C280   H301    1.111   .     S
C280   H303    1.109   .     S
C281   C283    1.406   .     A
C281   H290    1.081   .     S
C282   N311    1.363   .     A
C282   H291    1.081   .     S
C283   H292    1.081   .     S
C283   N312    1.364   .     A
C284   C286    1.406   .     A
C284   H293    1.081   .     S
C284   N311    1.364   .     A
C285   H294    1.081   .     S
C285   N312    1.364   .     A
C286   H295    1.081   .     S
Cu287  O316    1.956   .     S
Cu287  N312    2.008   .     S
Cu287  O317    1.958   .     S
Cu287  O313    1.962   .     S
Cu287  O320    1.960   .     S
Cu287  Cu288   2.673   .     S
Cu288  N311    2.008   .     S
Cu288  O314    1.962   .     S
Cu288  O318    1.958   .     S
Cu288  O315    1.956   .     S
Cu288  O319    1.960   .     S
H289   C327    1.087   .     S
C321   C334    1.469   .     S
C321   O377    1.290   .     A
C321   O379    1.297   .     A
C322   C324    1.411   .     A
C322   C349    1.407   .     A
C322   H360    1.081   .     S
C323   C350    1.411   .     A
C323   C343    1.411   .     A
C323   C708    1.516   1_554 S
C324   C345    1.411   .     A
C324   C707    1.516   .     S
C325   C327    1.434   .     S
C325   O383    1.287   .     A
C325   O381    1.284   .     A
C326   O382    1.285   .     A
C326   O384    1.287   .     A
C326   C328    1.434   .     S
C328   C199    1.335   1_655 S
C328   H236    1.087   1_655 S
C329   C331    1.398   .     A
C329   H368    1.084   .     S
C329   C340    1.397   .     A
C330   C341    1.397   .     A
C330   H369    1.084   .     S
C330   C333    1.398   .     A
C331   C334    1.422   .     A
C331   C342    1.510   .     S
C332   C335    1.467   .     S
C332   O380    1.297   .     A
C332   O378    1.290   .     A
C333   C335    1.421   .     A
C333   C344    1.509   .     S
C334   C336    1.404   .     A
C335   C337    1.404   .     A
C336   H370    1.083   .     S
C336   C338    1.388   .     A
C337   C339    1.388   .     A
C337   H371    1.084   .     S
C338   H372    1.083   .     S
C338   C340    1.397   .     A
C339   H373    1.083   .     S
C339   C341    1.397   .     A
C341   C148    1.461   1_565 S
C342   H363    1.111   .     S
C342   H362    1.111   .     S
C342   H361    1.110   .     S
C343   H374    1.081   .     S
C343   C346    1.407   .     A
C344   H366    1.111   .     S
C344   H365    1.111   .     S
C344   H367    1.109   .     S
C345   C347    1.406   .     A
C345   H354    1.081   .     S
C346   N375    1.363   .     A
C346   H355    1.081   .     S
C347   H356    1.081   .     S
C347   N376    1.364   .     A
C348   C350    1.406   .     A
C348   H357    1.081   .     S
C348   N375    1.364   .     A
C349   H358    1.081   .     S
C349   N376    1.364   .     A
C350   H359    1.081   .     S
Cu351  O380    1.956   .     S
Cu351  N376    2.008   .     S
Cu351  O381    1.958   .     S
Cu351  O377    1.962   .     S
Cu351  O384    1.960   .     S
Cu351  Cu352   2.673   .     S
Cu352  N375    2.008   .     S
Cu352  O378    1.962   .     S
Cu352  O382    1.958   .     S
Cu352  O379    1.956   .     S
Cu352  O383    1.960   .     S
H353   C199    1.087   1_655 S
C385   C398    1.469   .     S
C385   O441    1.290   .     A
C385   O443    1.297   .     A
C386   C388    1.411   .     A
C386   C413    1.407   .     A
C386   H424    1.081   .     S
C387   C414    1.411   .     A
C387   C407    1.411   .     A
C388   C409    1.411   .     A
C388   C3      1.516   1_556 S
C389   C391    1.434   .     S
C389   O447    1.287   .     A
C389   O445    1.284   .     A
C390   O446    1.285   .     A
C390   O448    1.287   .     A
C390   C392    1.434   .     S
C391   C520    1.335   1_455 S
C391   H545    1.087   1_455 S
C392   C455    1.335   .     S
C392   H492    1.087   .     S
C393   C395    1.398   .     A
C393   H432    1.084   .     S
C393   C404    1.397   .     A
C394   C405    1.397   .     A
C394   H433    1.084   .     S
C394   C397    1.398   .     A
C395   C398    1.422   .     A
C395   C406    1.510   .     S
C396   C399    1.467   .     S
C396   O444    1.297   .     A
C396   O442    1.290   .     A
C397   C399    1.421   .     A
C397   C408    1.509   .     S
C398   C400    1.404   .     A
C399   C401    1.404   .     A
C400   H434    1.083   .     S
C400   C402    1.388   .     A
C401   C403    1.388   .     A
C401   H435    1.084   .     S
C402   H436    1.083   .     S
C402   C404    1.397   .     A
C403   H437    1.083   .     S
C403   C405    1.397   .     A
C404   C597    1.461   1_545 S
C405   C596    1.461   .     S
C406   H427    1.111   .     S
C406   H426    1.111   .     S
C406   H425    1.110   .     S
C407   H438    1.081   .     S
C407   C410    1.407   .     A
C408   H430    1.111   .     S
C408   H429    1.111   .     S
C408   H431    1.109   .     S
C409   C411    1.406   .     A
C409   H418    1.081   .     S
C410   N439    1.363   .     A
C410   H419    1.081   .     S
C411   H420    1.081   .     S
C411   N440    1.364   .     A
C412   C414    1.406   .     A
C412   H421    1.081   .     S
C412   N439    1.364   .     A
C413   H422    1.081   .     S
C413   N440    1.364   .     A
C414   H423    1.081   .     S
Cu415  O444    1.956   .     S
Cu415  N440    2.008   .     S
Cu415  O445    1.958   .     S
Cu415  O441    1.962   .     S
Cu415  O448    1.960   .     S
Cu415  Cu416   2.673   .     S
Cu416  N439    2.008   .     S
Cu416  O442    1.962   .     S
Cu416  O446    1.958   .     S
Cu416  O443    1.956   .     S
Cu416  O447    1.960   .     S
H417   C455    1.087   .     S
H428   C520    1.087   1_455 S
C449   C462    1.469   .     S
C449   O505    1.290   .     A
C449   O507    1.297   .     A
C450   C452    1.411   .     A
C450   C477    1.407   .     A
C450   H488    1.081   .     S
C451   C478    1.411   .     A
C451   C471    1.411   .     A
C452   C473    1.411   .     A
C452   C67     1.516   1_556 S
C453   C455    1.434   .     S
C453   O511    1.287   .     A
C453   O509    1.284   .     A
C454   O510    1.285   .     A
C454   O512    1.287   .     A
C454   C456    1.434   .     S
C456   C519    1.335   .     S
C456   H556    1.087   .     S
C457   C459    1.398   .     A
C457   H496    1.084   .     S
C457   C468    1.397   .     A
C458   C469    1.397   .     A
C458   H497    1.084   .     S
C458   C461    1.398   .     A
C459   C462    1.422   .     A
C459   C470    1.510   .     S
C460   C463    1.467   .     S
C460   O508    1.297   .     A
C460   O506    1.290   .     A
C461   C463    1.421   .     A
C461   C472    1.509   .     S
C462   C464    1.404   .     A
C463   C465    1.404   .     A
C464   H498    1.083   .     S
C464   C466    1.388   .     A
C465   C467    1.388   .     A
C465   H499    1.084   .     S
C466   H500    1.083   .     S
C466   C468    1.397   .     A
C467   H501    1.083   .     S
C467   C469    1.397   .     A
C468   C661    1.461   1_545 S
C469   C660    1.461   .     S
C470   H491    1.111   .     S
C470   H490    1.111   .     S
C470   H489    1.110   .     S
C471   H502    1.081   .     S
C471   C474    1.407   .     A
C472   H494    1.111   .     S
C472   H493    1.111   .     S
C472   H495    1.109   .     S
C473   C475    1.406   .     A
C473   H482    1.081   .     S
C474   N503    1.363   .     A
C474   H483    1.081   .     S
C475   H484    1.081   .     S
C475   N504    1.364   .     A
C476   C478    1.406   .     A
C476   H485    1.081   .     S
C476   N503    1.364   .     A
C477   H486    1.081   .     S
C477   N504    1.364   .     A
C478   H487    1.081   .     S
Cu479  O508    1.956   .     S
Cu479  N504    2.008   .     S
Cu479  O509    1.958   .     S
Cu479  O505    1.962   .     S
Cu479  O512    1.960   .     S
Cu479  Cu480   2.673   .     S
Cu480  N503    2.008   .     S
Cu480  O506    1.962   .     S
Cu480  O510    1.958   .     S
Cu480  O507    1.956   .     S
Cu480  O511    1.960   .     S
H481   C519    1.087   .     S
C513   C526    1.469   .     S
C513   O569    1.290   .     A
C513   O571    1.297   .     A
C514   C516    1.411   .     A
C514   C541    1.407   .     A
C514   H552    1.081   .     S
C515   C542    1.411   .     A
C515   C535    1.411   .     A
C516   C537    1.411   .     A
C516   C131    1.516   1_556 S
C517   C519    1.434   .     S
C517   O575    1.287   .     A
C517   O573    1.284   .     A
C518   O574    1.285   .     A
C518   O576    1.287   .     A
C518   C520    1.434   .     S
C520   C391    1.335   1_655 S
C520   H428    1.087   1_655 S
C521   C523    1.398   .     A
C521   H560    1.084   .     S
C521   C532    1.397   .     A
C522   C533    1.397   .     A
C522   H561    1.084   .     S
C522   C525    1.398   .     A
C523   C526    1.422   .     A
C523   C534    1.510   .     S
C524   C527    1.467   .     S
C524   O572    1.297   .     A
C524   O570    1.290   .     A
C525   C527    1.421   .     A
C525   C536    1.509   .     S
C526   C528    1.404   .     A
C527   C529    1.404   .     A
C528   H562    1.083   .     S
C528   C530    1.388   .     A
C529   C531    1.388   .     A
C529   H563    1.084   .     S
C530   H564    1.083   .     S
C530   C532    1.397   .     A
C531   H565    1.083   .     S
C531   C533    1.397   .     A
C532   C725    1.461   1_545 S
C533   C724    1.461   .     S
C534   H555    1.111   .     S
C534   H554    1.111   .     S
C534   H553    1.110   .     S
C535   H566    1.081   .     S
C535   C538    1.407   .     A
C536   H558    1.111   .     S
C536   H557    1.111   .     S
C536   H559    1.109   .     S
C537   C539    1.406   .     A
C537   H546    1.081   .     S
C538   N567    1.363   .     A
C538   H547    1.081   .     S
C539   H548    1.081   .     S
C539   N568    1.364   .     A
C540   C542    1.406   .     A
C540   H549    1.081   .     S
C540   N567    1.364   .     A
C541   H550    1.081   .     S
C541   N568    1.364   .     A
C542   H551    1.081   .     S
Cu543  O572    1.956   .     S
Cu543  N568    2.008   .     S
Cu543  O573    1.958   .     S
Cu543  O569    1.962   .     S
Cu543  O576    1.960   .     S
Cu543  Cu544   2.673   .     S
Cu544  N567    2.008   .     S
Cu544  O570    1.962   .     S
Cu544  O574    1.958   .     S
Cu544  O571    1.956   .     S
Cu544  O575    1.960   .     S
H545   C391    1.087   1_655 S
C577   C590    1.469   .     S
C577   O633    1.290   .     A
C577   O635    1.297   .     A
C578   C580    1.411   .     A
C578   C605    1.407   .     A
C578   H616    1.081   .     S
C579   C606    1.411   .     A
C579   C599    1.411   .     A
C580   C601    1.411   .     A
C580   C195    1.516   1_556 S
C581   C583    1.434   .     S
C581   O639    1.287   .     A
C581   O637    1.284   .     A
C582   O638    1.285   .     A
C582   O640    1.287   .     A
C582   C584    1.434   .     S
C583   C712    1.335   1_455 S
C583   H737    1.087   1_455 S
C584   C647    1.335   .     S
C584   H684    1.087   .     S
C585   C587    1.398   .     A
C585   H624    1.084   .     S
C585   C596    1.397   .     A
C586   C597    1.397   .     A
C586   H625    1.084   .     S
C586   C589    1.398   .     A
C587   C590    1.422   .     A
C587   C598    1.510   .     S
C588   C591    1.467   .     S
C588   O636    1.297   .     A
C588   O634    1.290   .     A
C589   C591    1.421   .     A
C589   C600    1.509   .     S
C590   C592    1.404   .     A
C591   C593    1.404   .     A
C592   H626    1.083   .     S
C592   C594    1.388   .     A
C593   C595    1.388   .     A
C593   H627    1.084   .     S
C594   H628    1.083   .     S
C594   C596    1.397   .     A
C595   H629    1.083   .     S
C595   C597    1.397   .     A
C597   C404    1.461   1_565 S
C598   H619    1.111   .     S
C598   H618    1.111   .     S
C598   H617    1.110   .     S
C599   H630    1.081   .     S
C599   C602    1.407   .     A
C600   H622    1.111   .     S
C600   H621    1.111   .     S
C600   H623    1.109   .     S
C601   C603    1.406   .     A
C601   H610    1.081   .     S
C602   N631    1.363   .     A
C602   H611    1.081   .     S
C603   H612    1.081   .     S
C603   N632    1.364   .     A
C604   C606    1.406   .     A
C604   H613    1.081   .     S
C604   N631    1.364   .     A
C605   H614    1.081   .     S
C605   N632    1.364   .     A
C606   H615    1.081   .     S
Cu607  O636    1.956   .     S
Cu607  N632    2.008   .     S
Cu607  O637    1.958   .     S
Cu607  O633    1.962   .     S
Cu607  O640    1.960   .     S
Cu607  Cu608   2.673   .     S
Cu608  N631    2.008   .     S
Cu608  O634    1.962   .     S
Cu608  O638    1.958   .     S
Cu608  O635    1.956   .     S
Cu608  O639    1.960   .     S
H609   C647    1.087   .     S
H620   C712    1.087   1_455 S
C641   C654    1.469   .     S
C641   O697    1.290   .     A
C641   O699    1.297   .     A
C642   C644    1.411   .     A
C642   C669    1.407   .     A
C642   H680    1.081   .     S
C643   C670    1.411   .     A
C643   C663    1.411   .     A
C644   C665    1.411   .     A
C644   C259    1.516   1_556 S
C645   C647    1.434   .     S
C645   O703    1.287   .     A
C645   O701    1.284   .     A
C646   O702    1.285   .     A
C646   O704    1.287   .     A
C646   C648    1.434   .     S
C648   C711    1.335   .     S
C648   H748    1.087   .     S
C649   C651    1.398   .     A
C649   H688    1.084   .     S
C649   C660    1.397   .     A
C650   C661    1.397   .     A
C650   H689    1.084   .     S
C650   C653    1.398   .     A
C651   C654    1.422   .     A
C651   C662    1.510   .     S
C652   C655    1.467   .     S
C652   O700    1.297   .     A
C652   O698    1.290   .     A
C653   C655    1.421   .     A
C653   C664    1.509   .     S
C654   C656    1.404   .     A
C655   C657    1.404   .     A
C656   H690    1.083   .     S
C656   C658    1.388   .     A
C657   C659    1.388   .     A
C657   H691    1.084   .     S
C658   H692    1.083   .     S
C658   C660    1.397   .     A
C659   H693    1.083   .     S
C659   C661    1.397   .     A
C661   C468    1.461   1_565 S
C662   H683    1.111   .     S
C662   H682    1.111   .     S
C662   H681    1.110   .     S
C663   H694    1.081   .     S
C663   C666    1.407   .     A
C664   H686    1.111   .     S
C664   H685    1.111   .     S
C664   H687    1.109   .     S
C665   C667    1.406   .     A
C665   H674    1.081   .     S
C666   N695    1.363   .     A
C666   H675    1.081   .     S
C667   H676    1.081   .     S
C667   N696    1.364   .     A
C668   C670    1.406   .     A
C668   H677    1.081   .     S
C668   N695    1.364   .     A
C669   H678    1.081   .     S
C669   N696    1.364   .     A
C670   H679    1.081   .     S
Cu671  O700    1.956   .     S
Cu671  N696    2.008   .     S
Cu671  O701    1.958   .     S
Cu671  O697    1.962   .     S
Cu671  O704    1.960   .     S
Cu671  Cu672   2.673   .     S
Cu672  N695    2.008   .     S
Cu672  O698    1.962   .     S
Cu672  O702    1.958   .     S
Cu672  O699    1.956   .     S
Cu672  O703    1.960   .     S
H673   C711    1.087   .     S
C705   C718    1.469   .     S
C705   O761    1.290   .     A
C705   O763    1.297   .     A
C706   C708    1.411   .     A
C706   C733    1.407   .     A
C706   H744    1.081   .     S
C707   C734    1.411   .     A
C707   C727    1.411   .     A
C708   C729    1.411   .     A
C708   C323    1.516   1_556 S
C709   C711    1.434   .     S
C709   O767    1.287   .     A
C709   O765    1.284   .     A
C710   O766    1.285   .     A
C710   O768    1.287   .     A
C710   C712    1.434   .     S
C712   C583    1.335   1_655 S
C712   H620    1.087   1_655 S
C713   C715    1.398   .     A
C713   H752    1.084   .     S
C713   C724    1.397   .     A
C714   C725    1.397   .     A
C714   H753    1.084   .     S
C714   C717    1.398   .     A
C715   C718    1.422   .     A
C715   C726    1.510   .     S
C716   C719    1.467   .     S
C716   O764    1.297   .     A
C716   O762    1.290   .     A
C717   C719    1.421   .     A
C717   C728    1.509   .     S
C718   C720    1.404   .     A
C719   C721    1.404   .     A
C720   H754    1.083   .     S
C720   C722    1.388   .     A
C721   C723    1.388   .     A
C721   H755    1.084   .     S
C722   H756    1.083   .     S
C722   C724    1.397   .     A
C723   H757    1.083   .     S
C723   C725    1.397   .     A
C725   C532    1.461   1_565 S
C726   H747    1.111   .     S
C726   H746    1.111   .     S
C726   H745    1.110   .     S
C727   H758    1.081   .     S
C727   C730    1.407   .     A
C728   H750    1.111   .     S
C728   H749    1.111   .     S
C728   H751    1.109   .     S
C729   C731    1.406   .     A
C729   H738    1.081   .     S
C730   N759    1.363   .     A
C730   H739    1.081   .     S
C731   H740    1.081   .     S
C731   N760    1.364   .     A
C732   C734    1.406   .     A
C732   H741    1.081   .     S
C732   N759    1.364   .     A
C733   H742    1.081   .     S
C733   N760    1.364   .     A
C734   H743    1.081   .     S
Cu735  O764    1.956   .     S
Cu735  N760    2.008   .     S
Cu735  O765    1.958   .     S
Cu735  O761    1.962   .     S
Cu735  O768    1.960   .     S
Cu735  Cu736   2.673   .     S
Cu736  N759    2.008   .     S
Cu736  O762    1.962   .     S
Cu736  O766    1.958   .     S
Cu736  O763    1.956   .     S
Cu736  O767    1.960   .     S
H737   C583    1.087   1_655 S
