data_str_m2_o10_o16_pcu_sym.164
_audit_creation_date              2020-01-03
_audit_creation_method            'Materials Studio'
_symmetry_space_group_name_H-M    'P1'
_symmetry_Int_Tables_number       1
_symmetry_cell_setting            triclinic
loop_
_symmetry_equiv_pos_as_xyz
  x,y,z
_cell_length_a                    22.4525
_cell_length_b                    26.1796
_cell_length_c                    26.8462
_cell_angle_alpha                 94.7308
_cell_angle_beta                  78.5557
_cell_angle_gamma                 103.3219
loop_
_atom_site_label
_atom_site_type_symbol
_atom_site_fract_x
_atom_site_fract_y
_atom_site_fract_z
_atom_site_U_iso_or_equiv
_atom_site_adp_type
_atom_site_occupancy
O1     O     0.12797   0.23807   0.24633   0.00000  Uiso   1.00
O2     O     0.22858   0.24755   0.25586   0.00000  Uiso   1.00
C3     C     0.18099   0.26660   0.25403   0.00000  Uiso   1.00
O4     O     0.09181   0.15960   0.31839   0.00000  Uiso   1.00
O5     O     0.19242   0.16908   0.32793   0.00000  Uiso   1.00
C6     C     0.13353   0.15581   0.34563   0.00000  Uiso   1.00
Cu7    Cu    0.10710   0.16105   0.24435   0.00000  Uiso   1.00
Cu8    Cu    0.22623   0.17228   0.25564   0.00000  Uiso   1.00
O9     O     0.10476   0.08578   0.24413   0.00000  Uiso   1.00
O10    O     0.20536   0.09526   0.25367   0.00000  Uiso   1.00
O11    O     0.14092   0.16425   0.17207   0.00000  Uiso   1.00
O12    O     0.24152   0.17373   0.18160   0.00000  Uiso   1.00
C13    C     0.15153   0.06666   0.24902   0.00000  Uiso   1.00
C14    C     0.19973   0.17047   0.15329   0.00000  Uiso   1.00
C15    C     0.29409   0.20049   0.02294   0.00000  Uiso   1.00
H16    H     0.31329   0.21484   0.09831   0.00000  Uiso   1.00
H17    H     0.31678   0.18642   0.42329   0.00000  Uiso   1.00
H18    H     0.00837   0.21767   0.00575   0.00000  Uiso   1.00
C19    C     0.21795   0.17378   0.09819   0.00000  Uiso   1.00
C20    C     0.05352   0.11607   0.41835   0.00000  Uiso   1.00
C21    C     0.03450   0.10690   0.47000   0.00000  Uiso   1.00
C22    C     0.07694   0.12123   0.00290   0.00000  Uiso   1.00
C23    C     0.14121   0.13977   0.48373   0.00000  Uiso   1.00
C24    C     0.16115   0.14105   0.43027   0.00000  Uiso   1.00
C25    C     0.18677   0.15732   0.01529   0.00000  Uiso   1.00
C26    C     0.24940   0.17906   0.49277   0.00000  Uiso   1.00
C27    C     0.26811   0.17448   0.44048   0.00000  Uiso   1.00
C28    C     0.22607   0.14731   0.41109   0.00000  Uiso   1.00
C29    C     0.17256   0.15415   0.06824   0.00000  Uiso   1.00
C30    C     0.27835   0.19799   0.07552   0.00000  Uiso   1.00
C31    C     0.11597   0.13708   0.39846   0.00000  Uiso   1.00
H32    H     0.12679   0.13523   0.08702   0.00000  Uiso   1.00
H33    H     0.01920   0.10751   0.39397   0.00000  Uiso   1.00
H34    H     0.05790   0.11727   0.04284   0.00000  Uiso   1.00
H35    H     0.31913   0.09130   0.48510   0.00000  Uiso   1.00
C36    C     0.18773   0.32268   0.26081   0.00000  Uiso   1.00
C37    C     0.14454   0.01074   0.24767   0.00000  Uiso   1.00
H38    H     0.10413   0.32022   0.23395   0.00000  Uiso   1.00
N39    N     0.31574   0.18074   0.26416   0.00000  Uiso   1.00
H40    H     0.00053   0.20044   0.29447   0.00000  Uiso   1.00
N41    N     0.01759   0.15259   0.23584   0.00000  Uiso   1.00
N42    N     0.33250   0.13035   0.19121   0.00000  Uiso   1.00
O43    O     0.31104   0.07988   0.18808   0.00000  Uiso   1.00
O44    O     0.02304   0.15491   0.14927   0.00000  Uiso   1.00
O45    O     0.24983   0.12050   0.36808   0.00000  Uiso   1.00
H46    H     0.21591   0.09133   0.35977   0.00000  Uiso   1.00
O47    O     0.23701   0.01998   0.28129   0.00000  Uiso   1.00
H48    H     0.26069   0.33065   0.29316   0.00000  Uiso   1.00
O49    O     0.46131   0.23807   0.24633   0.00000  Uiso   1.00
O50    O     0.56191   0.24755   0.25586   0.00000  Uiso   1.00
C51    C     0.51433   0.26660   0.25403   0.00000  Uiso   1.00
O52    O     0.42515   0.15960   0.31839   0.00000  Uiso   1.00
O53    O     0.52575   0.16908   0.32793   0.00000  Uiso   1.00
C54    C     0.46687   0.15581   0.34563   0.00000  Uiso   1.00
Cu55   Cu    0.44043   0.16105   0.24435   0.00000  Uiso   1.00
Cu56   Cu    0.55957   0.17228   0.25564   0.00000  Uiso   1.00
O57    O     0.43809   0.08578   0.24413   0.00000  Uiso   1.00
O58    O     0.53869   0.09526   0.25367   0.00000  Uiso   1.00
O59    O     0.47425   0.16425   0.17207   0.00000  Uiso   1.00
O60    O     0.57485   0.17373   0.18160   0.00000  Uiso   1.00
C61    C     0.48486   0.06666   0.24902   0.00000  Uiso   1.00
C62    C     0.53307   0.17047   0.15329   0.00000  Uiso   1.00
C63    C     0.62742   0.20049   0.02294   0.00000  Uiso   1.00
H64    H     0.64662   0.21484   0.09831   0.00000  Uiso   1.00
H65    H     0.65011   0.18642   0.42329   0.00000  Uiso   1.00
H66    H     0.34171   0.21767   0.00575   0.00000  Uiso   1.00
C67    C     0.55128   0.17378   0.09819   0.00000  Uiso   1.00
C68    C     0.38685   0.11607   0.41835   0.00000  Uiso   1.00
C69    C     0.36783   0.10690   0.47000   0.00000  Uiso   1.00
C70    C     0.41028   0.12123   0.00290   0.00000  Uiso   1.00
C71    C     0.47454   0.13977   0.48373   0.00000  Uiso   1.00
C72    C     0.49448   0.14105   0.43027   0.00000  Uiso   1.00
C73    C     0.52010   0.15732   0.01529   0.00000  Uiso   1.00
C74    C     0.58273   0.17906   0.49277   0.00000  Uiso   1.00
C75    C     0.60145   0.17448   0.44048   0.00000  Uiso   1.00
C76    C     0.55941   0.14731   0.41109   0.00000  Uiso   1.00
C77    C     0.50589   0.15415   0.06824   0.00000  Uiso   1.00
C78    C     0.61169   0.19799   0.07552   0.00000  Uiso   1.00
C79    C     0.44930   0.13708   0.39846   0.00000  Uiso   1.00
H80    H     0.46013   0.13523   0.08702   0.00000  Uiso   1.00
H81    H     0.35253   0.10751   0.39397   0.00000  Uiso   1.00
H82    H     0.39123   0.11727   0.04284   0.00000  Uiso   1.00
H83    H     0.65247   0.09130   0.48510   0.00000  Uiso   1.00
C84    C     0.52106   0.32268   0.26081   0.00000  Uiso   1.00
C85    C     0.47787   0.01074   0.24767   0.00000  Uiso   1.00
H86    H     0.43746   0.32022   0.23395   0.00000  Uiso   1.00
N87    N     0.64908   0.18074   0.26416   0.00000  Uiso   1.00
H88    H     0.33386   0.20044   0.29447   0.00000  Uiso   1.00
N89    N     0.35092   0.15259   0.23584   0.00000  Uiso   1.00
N90    N     0.66584   0.13035   0.19121   0.00000  Uiso   1.00
O91    O     0.64437   0.07988   0.18808   0.00000  Uiso   1.00
O92    O     0.35637   0.15491   0.14927   0.00000  Uiso   1.00
O93    O     0.58316   0.12050   0.36808   0.00000  Uiso   1.00
H94    H     0.54924   0.09133   0.35977   0.00000  Uiso   1.00
O95    O     0.57035   0.01998   0.28129   0.00000  Uiso   1.00
H96    H     0.59402   0.33065   0.29316   0.00000  Uiso   1.00
O97    O     0.79464   0.23807   0.24633   0.00000  Uiso   1.00
O98    O     0.89524   0.24755   0.25586   0.00000  Uiso   1.00
C99    C     0.84766   0.26660   0.25403   0.00000  Uiso   1.00
O100   O     0.75848   0.15960   0.31839   0.00000  Uiso   1.00
O101   O     0.85908   0.16908   0.32793   0.00000  Uiso   1.00
C102   C     0.80020   0.15581   0.34563   0.00000  Uiso   1.00
Cu103  Cu    0.77377   0.16105   0.24435   0.00000  Uiso   1.00
Cu104  Cu    0.89290   0.17228   0.25564   0.00000  Uiso   1.00
O105   O     0.77142   0.08578   0.24413   0.00000  Uiso   1.00
O106   O     0.87203   0.09526   0.25367   0.00000  Uiso   1.00
O107   O     0.80758   0.16425   0.17207   0.00000  Uiso   1.00
O108   O     0.90819   0.17373   0.18160   0.00000  Uiso   1.00
C109   C     0.81819   0.06666   0.24902   0.00000  Uiso   1.00
C110   C     0.86640   0.17047   0.15329   0.00000  Uiso   1.00
C111   C     0.96075   0.20049   0.02294   0.00000  Uiso   1.00
H112   H     0.97995   0.21484   0.09831   0.00000  Uiso   1.00
H113   H     0.98345   0.18642   0.42329   0.00000  Uiso   1.00
H114   H     0.67504   0.21767   0.00575   0.00000  Uiso   1.00
C115   C     0.88462   0.17378   0.09819   0.00000  Uiso   1.00
C116   C     0.72018   0.11607   0.41835   0.00000  Uiso   1.00
C117   C     0.70116   0.10690   0.47000   0.00000  Uiso   1.00
C118   C     0.74361   0.12123   0.00290   0.00000  Uiso   1.00
C119   C     0.80787   0.13977   0.48373   0.00000  Uiso   1.00
C120   C     0.82781   0.14105   0.43027   0.00000  Uiso   1.00
C121   C     0.85343   0.15732   0.01529   0.00000  Uiso   1.00
C122   C     0.91606   0.17906   0.49277   0.00000  Uiso   1.00
C123   C     0.93478   0.17448   0.44048   0.00000  Uiso   1.00
C124   C     0.89274   0.14731   0.41109   0.00000  Uiso   1.00
C125   C     0.83923   0.15415   0.06824   0.00000  Uiso   1.00
C126   C     0.94502   0.19799   0.07552   0.00000  Uiso   1.00
C127   C     0.78264   0.13708   0.39846   0.00000  Uiso   1.00
H128   H     0.79346   0.13523   0.08702   0.00000  Uiso   1.00
H129   H     0.68586   0.10751   0.39397   0.00000  Uiso   1.00
H130   H     0.72457   0.11727   0.04284   0.00000  Uiso   1.00
H131   H     0.98580   0.09130   0.48510   0.00000  Uiso   1.00
C132   C     0.85440   0.32268   0.26081   0.00000  Uiso   1.00
C133   C     0.81120   0.01074   0.24767   0.00000  Uiso   1.00
H134   H     0.77079   0.32022   0.23395   0.00000  Uiso   1.00
N135   N     0.98241   0.18074   0.26416   0.00000  Uiso   1.00
H136   H     0.66720   0.20044   0.29447   0.00000  Uiso   1.00
N137   N     0.68426   0.15259   0.23584   0.00000  Uiso   1.00
N138   N     0.99917   0.13035   0.19121   0.00000  Uiso   1.00
O139   O     0.97771   0.07988   0.18808   0.00000  Uiso   1.00
O140   O     0.68970   0.15491   0.14927   0.00000  Uiso   1.00
O141   O     0.91649   0.12050   0.36808   0.00000  Uiso   1.00
H142   H     0.88257   0.09133   0.35977   0.00000  Uiso   1.00
O143   O     0.90368   0.01998   0.28129   0.00000  Uiso   1.00
H144   H     0.92735   0.33065   0.29316   0.00000  Uiso   1.00
O145   O     0.12797   0.57141   0.24633   0.00000  Uiso   1.00
O146   O     0.22858   0.58089   0.25586   0.00000  Uiso   1.00
C147   C     0.18099   0.59993   0.25403   0.00000  Uiso   1.00
O148   O     0.09181   0.49293   0.31839   0.00000  Uiso   1.00
O149   O     0.19242   0.50241   0.32793   0.00000  Uiso   1.00
C150   C     0.13353   0.48914   0.34563   0.00000  Uiso   1.00
Cu151  Cu    0.10710   0.49439   0.24435   0.00000  Uiso   1.00
Cu152  Cu    0.22623   0.50561   0.25564   0.00000  Uiso   1.00
O153   O     0.10476   0.41911   0.24413   0.00000  Uiso   1.00
O154   O     0.20536   0.42859   0.25367   0.00000  Uiso   1.00
O155   O     0.14092   0.49759   0.17207   0.00000  Uiso   1.00
O156   O     0.24152   0.50707   0.18160   0.00000  Uiso   1.00
C157   C     0.15153   0.39999   0.24902   0.00000  Uiso   1.00
C158   C     0.19973   0.50380   0.15329   0.00000  Uiso   1.00
C159   C     0.29409   0.53383   0.02294   0.00000  Uiso   1.00
H160   H     0.31329   0.54817   0.09831   0.00000  Uiso   1.00
H161   H     0.31678   0.51975   0.42329   0.00000  Uiso   1.00
H162   H     0.00837   0.55100   0.00575   0.00000  Uiso   1.00
C163   C     0.21795   0.50712   0.09819   0.00000  Uiso   1.00
C164   C     0.05352   0.44940   0.41835   0.00000  Uiso   1.00
C165   C     0.03450   0.44024   0.47000   0.00000  Uiso   1.00
C166   C     0.07694   0.45457   0.00290   0.00000  Uiso   1.00
C167   C     0.14121   0.47310   0.48373   0.00000  Uiso   1.00
C168   C     0.16115   0.47438   0.43027   0.00000  Uiso   1.00
C169   C     0.18677   0.49065   0.01529   0.00000  Uiso   1.00
C170   C     0.24940   0.51240   0.49277   0.00000  Uiso   1.00
C171   C     0.26811   0.50781   0.44048   0.00000  Uiso   1.00
C172   C     0.22607   0.48064   0.41109   0.00000  Uiso   1.00
C173   C     0.17256   0.48748   0.06824   0.00000  Uiso   1.00
C174   C     0.27835   0.53132   0.07552   0.00000  Uiso   1.00
C175   C     0.11597   0.47041   0.39846   0.00000  Uiso   1.00
H176   H     0.12679   0.46856   0.08702   0.00000  Uiso   1.00
H177   H     0.01920   0.44085   0.39397   0.00000  Uiso   1.00
H178   H     0.05790   0.45061   0.04284   0.00000  Uiso   1.00
H179   H     0.31913   0.42463   0.48510   0.00000  Uiso   1.00
C180   C     0.18773   0.65601   0.26081   0.00000  Uiso   1.00
C181   C     0.14454   0.34407   0.24767   0.00000  Uiso   1.00
H182   H     0.10413   0.65355   0.23395   0.00000  Uiso   1.00
N183   N     0.31574   0.51407   0.26416   0.00000  Uiso   1.00
H184   H     0.00053   0.53378   0.29447   0.00000  Uiso   1.00
N185   N     0.01759   0.48593   0.23584   0.00000  Uiso   1.00
N186   N     0.33250   0.46369   0.19121   0.00000  Uiso   1.00
O187   O     0.31104   0.41321   0.18808   0.00000  Uiso   1.00
O188   O     0.02304   0.48824   0.14927   0.00000  Uiso   1.00
O189   O     0.24983   0.45383   0.36808   0.00000  Uiso   1.00
H190   H     0.21591   0.42466   0.35977   0.00000  Uiso   1.00
O191   O     0.23701   0.35331   0.28129   0.00000  Uiso   1.00
H192   H     0.26069   0.66398   0.29316   0.00000  Uiso   1.00
O193   O     0.46131   0.57141   0.24633   0.00000  Uiso   1.00
O194   O     0.56191   0.58089   0.25586   0.00000  Uiso   1.00
C195   C     0.51433   0.59993   0.25403   0.00000  Uiso   1.00
O196   O     0.42515   0.49293   0.31839   0.00000  Uiso   1.00
O197   O     0.52575   0.50241   0.32793   0.00000  Uiso   1.00
C198   C     0.46687   0.48914   0.34563   0.00000  Uiso   1.00
Cu199  Cu    0.44043   0.49439   0.24435   0.00000  Uiso   1.00
Cu200  Cu    0.55957   0.50561   0.25564   0.00000  Uiso   1.00
O201   O     0.43809   0.41911   0.24413   0.00000  Uiso   1.00
O202   O     0.53869   0.42859   0.25367   0.00000  Uiso   1.00
O203   O     0.47425   0.49759   0.17207   0.00000  Uiso   1.00
O204   O     0.57485   0.50707   0.18160   0.00000  Uiso   1.00
C205   C     0.48486   0.39999   0.24902   0.00000  Uiso   1.00
C206   C     0.53307   0.50380   0.15329   0.00000  Uiso   1.00
C207   C     0.62742   0.53383   0.02294   0.00000  Uiso   1.00
H208   H     0.64662   0.54817   0.09831   0.00000  Uiso   1.00
H209   H     0.65011   0.51975   0.42329   0.00000  Uiso   1.00
H210   H     0.34171   0.55100   0.00575   0.00000  Uiso   1.00
C211   C     0.55128   0.50712   0.09819   0.00000  Uiso   1.00
C212   C     0.38685   0.44940   0.41835   0.00000  Uiso   1.00
C213   C     0.36783   0.44024   0.47000   0.00000  Uiso   1.00
C214   C     0.41028   0.45457   0.00290   0.00000  Uiso   1.00
C215   C     0.47454   0.47310   0.48373   0.00000  Uiso   1.00
C216   C     0.49448   0.47438   0.43027   0.00000  Uiso   1.00
C217   C     0.52010   0.49065   0.01529   0.00000  Uiso   1.00
C218   C     0.58273   0.51240   0.49277   0.00000  Uiso   1.00
C219   C     0.60145   0.50781   0.44048   0.00000  Uiso   1.00
C220   C     0.55941   0.48064   0.41109   0.00000  Uiso   1.00
C221   C     0.50589   0.48748   0.06824   0.00000  Uiso   1.00
C222   C     0.61169   0.53132   0.07552   0.00000  Uiso   1.00
C223   C     0.44930   0.47041   0.39846   0.00000  Uiso   1.00
H224   H     0.46013   0.46856   0.08702   0.00000  Uiso   1.00
H225   H     0.35253   0.44085   0.39397   0.00000  Uiso   1.00
H226   H     0.39123   0.45061   0.04284   0.00000  Uiso   1.00
H227   H     0.65247   0.42463   0.48510   0.00000  Uiso   1.00
C228   C     0.52106   0.65601   0.26081   0.00000  Uiso   1.00
C229   C     0.47787   0.34407   0.24767   0.00000  Uiso   1.00
H230   H     0.43746   0.65355   0.23395   0.00000  Uiso   1.00
N231   N     0.64908   0.51407   0.26416   0.00000  Uiso   1.00
H232   H     0.33386   0.53378   0.29447   0.00000  Uiso   1.00
N233   N     0.35092   0.48593   0.23584   0.00000  Uiso   1.00
N234   N     0.66584   0.46369   0.19121   0.00000  Uiso   1.00
O235   O     0.64437   0.41321   0.18808   0.00000  Uiso   1.00
O236   O     0.35637   0.48824   0.14927   0.00000  Uiso   1.00
O237   O     0.58316   0.45383   0.36808   0.00000  Uiso   1.00
H238   H     0.54924   0.42466   0.35977   0.00000  Uiso   1.00
O239   O     0.57035   0.35331   0.28129   0.00000  Uiso   1.00
H240   H     0.59402   0.66398   0.29316   0.00000  Uiso   1.00
O241   O     0.79464   0.57141   0.24633   0.00000  Uiso   1.00
O242   O     0.89524   0.58089   0.25586   0.00000  Uiso   1.00
C243   C     0.84766   0.59993   0.25403   0.00000  Uiso   1.00
O244   O     0.75848   0.49293   0.31839   0.00000  Uiso   1.00
O245   O     0.85908   0.50241   0.32793   0.00000  Uiso   1.00
C246   C     0.80020   0.48914   0.34563   0.00000  Uiso   1.00
Cu247  Cu    0.77377   0.49439   0.24435   0.00000  Uiso   1.00
Cu248  Cu    0.89290   0.50561   0.25564   0.00000  Uiso   1.00
O249   O     0.77142   0.41911   0.24413   0.00000  Uiso   1.00
O250   O     0.87203   0.42859   0.25367   0.00000  Uiso   1.00
O251   O     0.80758   0.49759   0.17207   0.00000  Uiso   1.00
O252   O     0.90819   0.50707   0.18160   0.00000  Uiso   1.00
C253   C     0.81819   0.39999   0.24902   0.00000  Uiso   1.00
C254   C     0.86640   0.50380   0.15329   0.00000  Uiso   1.00
C255   C     0.96075   0.53383   0.02294   0.00000  Uiso   1.00
H256   H     0.97995   0.54817   0.09831   0.00000  Uiso   1.00
H257   H     0.98345   0.51975   0.42329   0.00000  Uiso   1.00
H258   H     0.67504   0.55100   0.00575   0.00000  Uiso   1.00
C259   C     0.88462   0.50712   0.09819   0.00000  Uiso   1.00
C260   C     0.72018   0.44940   0.41835   0.00000  Uiso   1.00
C261   C     0.70116   0.44024   0.47000   0.00000  Uiso   1.00
C262   C     0.74361   0.45457   0.00290   0.00000  Uiso   1.00
C263   C     0.80787   0.47310   0.48373   0.00000  Uiso   1.00
C264   C     0.82781   0.47438   0.43027   0.00000  Uiso   1.00
C265   C     0.85343   0.49065   0.01529   0.00000  Uiso   1.00
C266   C     0.91606   0.51240   0.49277   0.00000  Uiso   1.00
C267   C     0.93478   0.50781   0.44048   0.00000  Uiso   1.00
C268   C     0.89274   0.48064   0.41109   0.00000  Uiso   1.00
C269   C     0.83923   0.48748   0.06824   0.00000  Uiso   1.00
C270   C     0.94502   0.53132   0.07552   0.00000  Uiso   1.00
C271   C     0.78264   0.47041   0.39846   0.00000  Uiso   1.00
H272   H     0.79346   0.46856   0.08702   0.00000  Uiso   1.00
H273   H     0.68586   0.44085   0.39397   0.00000  Uiso   1.00
H274   H     0.72457   0.45061   0.04284   0.00000  Uiso   1.00
H275   H     0.98580   0.42463   0.48510   0.00000  Uiso   1.00
C276   C     0.85440   0.65601   0.26081   0.00000  Uiso   1.00
C277   C     0.81120   0.34407   0.24767   0.00000  Uiso   1.00
H278   H     0.77079   0.65355   0.23395   0.00000  Uiso   1.00
N279   N     0.98241   0.51407   0.26416   0.00000  Uiso   1.00
H280   H     0.66720   0.53378   0.29447   0.00000  Uiso   1.00
N281   N     0.68426   0.48593   0.23584   0.00000  Uiso   1.00
N282   N     0.99917   0.46369   0.19121   0.00000  Uiso   1.00
O283   O     0.97771   0.41321   0.18808   0.00000  Uiso   1.00
O284   O     0.68970   0.48824   0.14927   0.00000  Uiso   1.00
O285   O     0.91649   0.45383   0.36808   0.00000  Uiso   1.00
H286   H     0.88257   0.42466   0.35977   0.00000  Uiso   1.00
O287   O     0.90368   0.35331   0.28129   0.00000  Uiso   1.00
H288   H     0.92735   0.66398   0.29316   0.00000  Uiso   1.00
O289   O     0.12797   0.90474   0.24633   0.00000  Uiso   1.00
O290   O     0.22858   0.91422   0.25586   0.00000  Uiso   1.00
C291   C     0.18099   0.93327   0.25403   0.00000  Uiso   1.00
O292   O     0.09181   0.82627   0.31839   0.00000  Uiso   1.00
O293   O     0.19242   0.83575   0.32793   0.00000  Uiso   1.00
C294   C     0.13353   0.82247   0.34563   0.00000  Uiso   1.00
Cu295  Cu    0.10710   0.82772   0.24435   0.00000  Uiso   1.00
Cu296  Cu    0.22623   0.83895   0.25564   0.00000  Uiso   1.00
O297   O     0.10476   0.75245   0.24413   0.00000  Uiso   1.00
O298   O     0.20536   0.76193   0.25367   0.00000  Uiso   1.00
O299   O     0.14092   0.83092   0.17207   0.00000  Uiso   1.00
O300   O     0.24152   0.84040   0.18160   0.00000  Uiso   1.00
C301   C     0.15153   0.73333   0.24902   0.00000  Uiso   1.00
C302   C     0.19973   0.83713   0.15329   0.00000  Uiso   1.00
C303   C     0.29409   0.86716   0.02294   0.00000  Uiso   1.00
H304   H     0.31329   0.88150   0.09831   0.00000  Uiso   1.00
H305   H     0.31678   0.85309   0.42329   0.00000  Uiso   1.00
H306   H     0.00837   0.88434   0.00575   0.00000  Uiso   1.00
C307   C     0.21795   0.84045   0.09819   0.00000  Uiso   1.00
C308   C     0.05352   0.78273   0.41835   0.00000  Uiso   1.00
C309   C     0.03450   0.77357   0.47000   0.00000  Uiso   1.00
C310   C     0.07694   0.78790   0.00290   0.00000  Uiso   1.00
C311   C     0.14121   0.80643   0.48373   0.00000  Uiso   1.00
C312   C     0.16115   0.80771   0.43027   0.00000  Uiso   1.00
C313   C     0.18677   0.82398   0.01529   0.00000  Uiso   1.00
C314   C     0.24940   0.84573   0.49277   0.00000  Uiso   1.00
C315   C     0.26811   0.84114   0.44048   0.00000  Uiso   1.00
C316   C     0.22607   0.81397   0.41109   0.00000  Uiso   1.00
C317   C     0.17256   0.82082   0.06824   0.00000  Uiso   1.00
C318   C     0.27835   0.86465   0.07552   0.00000  Uiso   1.00
C319   C     0.11597   0.80375   0.39846   0.00000  Uiso   1.00
H320   H     0.12679   0.80190   0.08702   0.00000  Uiso   1.00
H321   H     0.01920   0.77418   0.39397   0.00000  Uiso   1.00
H322   H     0.05790   0.78394   0.04284   0.00000  Uiso   1.00
H323   H     0.31913   0.75797   0.48510   0.00000  Uiso   1.00
C324   C     0.18773   0.98935   0.26081   0.00000  Uiso   1.00
C325   C     0.14454   0.67741   0.24767   0.00000  Uiso   1.00
H326   H     0.10413   0.98688   0.23395   0.00000  Uiso   1.00
N327   N     0.31574   0.84741   0.26416   0.00000  Uiso   1.00
H328   H     0.00053   0.86711   0.29447   0.00000  Uiso   1.00
N329   N     0.01759   0.81926   0.23584   0.00000  Uiso   1.00
N330   N     0.33250   0.79702   0.19121   0.00000  Uiso   1.00
O331   O     0.31104   0.74655   0.18808   0.00000  Uiso   1.00
O332   O     0.02304   0.82158   0.14927   0.00000  Uiso   1.00
O333   O     0.24983   0.78717   0.36808   0.00000  Uiso   1.00
H334   H     0.21591   0.75799   0.35977   0.00000  Uiso   1.00
O335   O     0.23701   0.68664   0.28129   0.00000  Uiso   1.00
H336   H     0.26069   0.99731   0.29316   0.00000  Uiso   1.00
O337   O     0.46131   0.90474   0.24633   0.00000  Uiso   1.00
O338   O     0.56191   0.91422   0.25586   0.00000  Uiso   1.00
C339   C     0.51433   0.93327   0.25403   0.00000  Uiso   1.00
O340   O     0.42515   0.82627   0.31839   0.00000  Uiso   1.00
O341   O     0.52575   0.83575   0.32793   0.00000  Uiso   1.00
C342   C     0.46687   0.82247   0.34563   0.00000  Uiso   1.00
Cu343  Cu    0.44043   0.82772   0.24435   0.00000  Uiso   1.00
Cu344  Cu    0.55957   0.83895   0.25564   0.00000  Uiso   1.00
O345   O     0.43809   0.75245   0.24413   0.00000  Uiso   1.00
O346   O     0.53869   0.76193   0.25367   0.00000  Uiso   1.00
O347   O     0.47425   0.83092   0.17207   0.00000  Uiso   1.00
O348   O     0.57485   0.84040   0.18160   0.00000  Uiso   1.00
C349   C     0.48486   0.73333   0.24902   0.00000  Uiso   1.00
C350   C     0.53307   0.83713   0.15329   0.00000  Uiso   1.00
C351   C     0.62742   0.86716   0.02294   0.00000  Uiso   1.00
H352   H     0.64662   0.88150   0.09831   0.00000  Uiso   1.00
H353   H     0.65011   0.85309   0.42329   0.00000  Uiso   1.00
H354   H     0.34171   0.88434   0.00575   0.00000  Uiso   1.00
C355   C     0.55128   0.84045   0.09819   0.00000  Uiso   1.00
C356   C     0.38685   0.78273   0.41835   0.00000  Uiso   1.00
C357   C     0.36783   0.77357   0.47000   0.00000  Uiso   1.00
C358   C     0.41028   0.78790   0.00290   0.00000  Uiso   1.00
C359   C     0.47454   0.80643   0.48373   0.00000  Uiso   1.00
C360   C     0.49448   0.80771   0.43027   0.00000  Uiso   1.00
C361   C     0.52010   0.82398   0.01529   0.00000  Uiso   1.00
C362   C     0.58273   0.84573   0.49277   0.00000  Uiso   1.00
C363   C     0.60145   0.84114   0.44048   0.00000  Uiso   1.00
C364   C     0.55941   0.81397   0.41109   0.00000  Uiso   1.00
C365   C     0.50589   0.82082   0.06824   0.00000  Uiso   1.00
C366   C     0.61169   0.86465   0.07552   0.00000  Uiso   1.00
C367   C     0.44930   0.80375   0.39846   0.00000  Uiso   1.00
H368   H     0.46013   0.80190   0.08702   0.00000  Uiso   1.00
H369   H     0.35253   0.77418   0.39397   0.00000  Uiso   1.00
H370   H     0.39123   0.78394   0.04284   0.00000  Uiso   1.00
H371   H     0.65247   0.75797   0.48510   0.00000  Uiso   1.00
C372   C     0.52106   0.98935   0.26081   0.00000  Uiso   1.00
C373   C     0.47787   0.67741   0.24767   0.00000  Uiso   1.00
H374   H     0.43746   0.98688   0.23395   0.00000  Uiso   1.00
N375   N     0.64908   0.84741   0.26416   0.00000  Uiso   1.00
H376   H     0.33386   0.86711   0.29447   0.00000  Uiso   1.00
N377   N     0.35092   0.81926   0.23584   0.00000  Uiso   1.00
N378   N     0.66584   0.79702   0.19121   0.00000  Uiso   1.00
O379   O     0.64437   0.74655   0.18808   0.00000  Uiso   1.00
O380   O     0.35637   0.82158   0.14927   0.00000  Uiso   1.00
O381   O     0.58316   0.78717   0.36808   0.00000  Uiso   1.00
H382   H     0.54924   0.75799   0.35977   0.00000  Uiso   1.00
O383   O     0.57035   0.68664   0.28129   0.00000  Uiso   1.00
H384   H     0.59402   0.99731   0.29316   0.00000  Uiso   1.00
O385   O     0.79464   0.90474   0.24633   0.00000  Uiso   1.00
O386   O     0.89524   0.91422   0.25586   0.00000  Uiso   1.00
C387   C     0.84766   0.93327   0.25403   0.00000  Uiso   1.00
O388   O     0.75848   0.82627   0.31839   0.00000  Uiso   1.00
O389   O     0.85908   0.83575   0.32793   0.00000  Uiso   1.00
C390   C     0.80020   0.82247   0.34563   0.00000  Uiso   1.00
Cu391  Cu    0.77377   0.82772   0.24435   0.00000  Uiso   1.00
Cu392  Cu    0.89290   0.83895   0.25564   0.00000  Uiso   1.00
O393   O     0.77142   0.75245   0.24413   0.00000  Uiso   1.00
O394   O     0.87203   0.76193   0.25367   0.00000  Uiso   1.00
O395   O     0.80758   0.83092   0.17207   0.00000  Uiso   1.00
O396   O     0.90819   0.84040   0.18160   0.00000  Uiso   1.00
C397   C     0.81819   0.73333   0.24902   0.00000  Uiso   1.00
C398   C     0.86640   0.83713   0.15329   0.00000  Uiso   1.00
C399   C     0.96075   0.86716   0.02294   0.00000  Uiso   1.00
H400   H     0.97995   0.88150   0.09831   0.00000  Uiso   1.00
H401   H     0.98345   0.85309   0.42329   0.00000  Uiso   1.00
H402   H     0.67504   0.88434   0.00575   0.00000  Uiso   1.00
C403   C     0.88462   0.84045   0.09819   0.00000  Uiso   1.00
C404   C     0.72018   0.78273   0.41835   0.00000  Uiso   1.00
C405   C     0.70116   0.77357   0.47000   0.00000  Uiso   1.00
C406   C     0.74361   0.78790   0.00290   0.00000  Uiso   1.00
C407   C     0.80787   0.80643   0.48373   0.00000  Uiso   1.00
C408   C     0.82781   0.80771   0.43027   0.00000  Uiso   1.00
C409   C     0.85343   0.82398   0.01529   0.00000  Uiso   1.00
C410   C     0.91606   0.84573   0.49277   0.00000  Uiso   1.00
C411   C     0.93478   0.84114   0.44048   0.00000  Uiso   1.00
C412   C     0.89274   0.81397   0.41109   0.00000  Uiso   1.00
C413   C     0.83923   0.82082   0.06824   0.00000  Uiso   1.00
C414   C     0.94502   0.86465   0.07552   0.00000  Uiso   1.00
C415   C     0.78264   0.80375   0.39846   0.00000  Uiso   1.00
H416   H     0.79346   0.80190   0.08702   0.00000  Uiso   1.00
H417   H     0.68586   0.77418   0.39397   0.00000  Uiso   1.00
H418   H     0.72457   0.78394   0.04284   0.00000  Uiso   1.00
H419   H     0.98580   0.75797   0.48510   0.00000  Uiso   1.00
C420   C     0.85440   0.98935   0.26081   0.00000  Uiso   1.00
C421   C     0.81120   0.67741   0.24767   0.00000  Uiso   1.00
H422   H     0.77079   0.98688   0.23395   0.00000  Uiso   1.00
N423   N     0.98241   0.84741   0.26416   0.00000  Uiso   1.00
H424   H     0.66720   0.86711   0.29447   0.00000  Uiso   1.00
N425   N     0.68426   0.81926   0.23584   0.00000  Uiso   1.00
N426   N     0.99917   0.79702   0.19121   0.00000  Uiso   1.00
O427   O     0.97771   0.74655   0.18808   0.00000  Uiso   1.00
O428   O     0.68970   0.82158   0.14927   0.00000  Uiso   1.00
O429   O     0.91649   0.78717   0.36808   0.00000  Uiso   1.00
H430   H     0.88257   0.75799   0.35977   0.00000  Uiso   1.00
O431   O     0.90368   0.68664   0.28129   0.00000  Uiso   1.00
H432   H     0.92735   0.99731   0.29316   0.00000  Uiso   1.00
O433   O     0.12797   0.23807   0.74633   0.00000  Uiso   1.00
O434   O     0.22858   0.24755   0.75586   0.00000  Uiso   1.00
C435   C     0.18099   0.26660   0.75403   0.00000  Uiso   1.00
O436   O     0.09181   0.15960   0.81839   0.00000  Uiso   1.00
O437   O     0.19242   0.16908   0.82793   0.00000  Uiso   1.00
C438   C     0.13353   0.15581   0.84563   0.00000  Uiso   1.00
Cu439  Cu    0.10710   0.16105   0.74435   0.00000  Uiso   1.00
Cu440  Cu    0.22623   0.17228   0.75564   0.00000  Uiso   1.00
O441   O     0.10476   0.08578   0.74413   0.00000  Uiso   1.00
O442   O     0.20536   0.09526   0.75367   0.00000  Uiso   1.00
O443   O     0.14092   0.16425   0.67207   0.00000  Uiso   1.00
O444   O     0.24152   0.17373   0.68160   0.00000  Uiso   1.00
C445   C     0.15153   0.06666   0.74902   0.00000  Uiso   1.00
C446   C     0.19973   0.17047   0.65329   0.00000  Uiso   1.00
C447   C     0.29409   0.20049   0.52294   0.00000  Uiso   1.00
H448   H     0.31329   0.21484   0.59831   0.00000  Uiso   1.00
H449   H     0.31678   0.18642   0.92329   0.00000  Uiso   1.00
H450   H     0.00837   0.21767   0.50575   0.00000  Uiso   1.00
C451   C     0.21795   0.17378   0.59819   0.00000  Uiso   1.00
C452   C     0.05352   0.11607   0.91835   0.00000  Uiso   1.00
C453   C     0.03450   0.10690   0.97000   0.00000  Uiso   1.00
C454   C     0.07694   0.12123   0.50290   0.00000  Uiso   1.00
C455   C     0.14121   0.13977   0.98373   0.00000  Uiso   1.00
C456   C     0.16115   0.14105   0.93027   0.00000  Uiso   1.00
C457   C     0.18677   0.15732   0.51529   0.00000  Uiso   1.00
C458   C     0.24940   0.17906   0.99277   0.00000  Uiso   1.00
C459   C     0.26811   0.17448   0.94048   0.00000  Uiso   1.00
C460   C     0.22607   0.14731   0.91109   0.00000  Uiso   1.00
C461   C     0.17256   0.15415   0.56824   0.00000  Uiso   1.00
C462   C     0.27835   0.19799   0.57552   0.00000  Uiso   1.00
C463   C     0.11597   0.13708   0.89846   0.00000  Uiso   1.00
H464   H     0.12679   0.13523   0.58702   0.00000  Uiso   1.00
H465   H     0.01920   0.10751   0.89397   0.00000  Uiso   1.00
H466   H     0.05790   0.11727   0.54284   0.00000  Uiso   1.00
H467   H     0.31913   0.09130   0.98510   0.00000  Uiso   1.00
C468   C     0.18773   0.32268   0.76081   0.00000  Uiso   1.00
C469   C     0.14454   0.01074   0.74767   0.00000  Uiso   1.00
H470   H     0.10413   0.32022   0.73395   0.00000  Uiso   1.00
N471   N     0.31574   0.18074   0.76416   0.00000  Uiso   1.00
H472   H     0.00053   0.20044   0.79447   0.00000  Uiso   1.00
N473   N     0.01759   0.15259   0.73584   0.00000  Uiso   1.00
N474   N     0.33250   0.13035   0.69121   0.00000  Uiso   1.00
O475   O     0.31104   0.07988   0.68808   0.00000  Uiso   1.00
O476   O     0.02304   0.15491   0.64927   0.00000  Uiso   1.00
O477   O     0.24983   0.12050   0.86808   0.00000  Uiso   1.00
H478   H     0.21591   0.09133   0.85977   0.00000  Uiso   1.00
O479   O     0.23701   0.01998   0.78129   0.00000  Uiso   1.00
H480   H     0.26069   0.33065   0.79316   0.00000  Uiso   1.00
O481   O     0.46131   0.23807   0.74633   0.00000  Uiso   1.00
O482   O     0.56191   0.24755   0.75586   0.00000  Uiso   1.00
C483   C     0.51433   0.26660   0.75403   0.00000  Uiso   1.00
O484   O     0.42515   0.15960   0.81839   0.00000  Uiso   1.00
O485   O     0.52575   0.16908   0.82793   0.00000  Uiso   1.00
C486   C     0.46687   0.15581   0.84563   0.00000  Uiso   1.00
Cu487  Cu    0.44043   0.16105   0.74435   0.00000  Uiso   1.00
Cu488  Cu    0.55957   0.17228   0.75564   0.00000  Uiso   1.00
O489   O     0.43809   0.08578   0.74413   0.00000  Uiso   1.00
O490   O     0.53869   0.09526   0.75367   0.00000  Uiso   1.00
O491   O     0.47425   0.16425   0.67207   0.00000  Uiso   1.00
O492   O     0.57485   0.17373   0.68160   0.00000  Uiso   1.00
C493   C     0.48486   0.06666   0.74902   0.00000  Uiso   1.00
C494   C     0.53307   0.17047   0.65329   0.00000  Uiso   1.00
C495   C     0.62742   0.20049   0.52294   0.00000  Uiso   1.00
H496   H     0.64662   0.21484   0.59831   0.00000  Uiso   1.00
H497   H     0.65011   0.18642   0.92329   0.00000  Uiso   1.00
H498   H     0.34171   0.21767   0.50575   0.00000  Uiso   1.00
C499   C     0.55128   0.17378   0.59819   0.00000  Uiso   1.00
C500   C     0.38685   0.11607   0.91835   0.00000  Uiso   1.00
C501   C     0.36783   0.10690   0.97000   0.00000  Uiso   1.00
C502   C     0.41028   0.12123   0.50290   0.00000  Uiso   1.00
C503   C     0.47454   0.13977   0.98373   0.00000  Uiso   1.00
C504   C     0.49448   0.14105   0.93027   0.00000  Uiso   1.00
C505   C     0.52010   0.15732   0.51529   0.00000  Uiso   1.00
C506   C     0.58273   0.17906   0.99277   0.00000  Uiso   1.00
C507   C     0.60145   0.17448   0.94048   0.00000  Uiso   1.00
C508   C     0.55941   0.14731   0.91109   0.00000  Uiso   1.00
C509   C     0.50589   0.15415   0.56824   0.00000  Uiso   1.00
C510   C     0.61169   0.19799   0.57552   0.00000  Uiso   1.00
C511   C     0.44930   0.13708   0.89846   0.00000  Uiso   1.00
H512   H     0.46013   0.13523   0.58702   0.00000  Uiso   1.00
H513   H     0.35253   0.10751   0.89397   0.00000  Uiso   1.00
H514   H     0.39123   0.11727   0.54284   0.00000  Uiso   1.00
H515   H     0.65247   0.09130   0.98510   0.00000  Uiso   1.00
C516   C     0.52106   0.32268   0.76081   0.00000  Uiso   1.00
C517   C     0.47787   0.01074   0.74767   0.00000  Uiso   1.00
H518   H     0.43746   0.32022   0.73395   0.00000  Uiso   1.00
N519   N     0.64908   0.18074   0.76416   0.00000  Uiso   1.00
H520   H     0.33386   0.20044   0.79447   0.00000  Uiso   1.00
N521   N     0.35092   0.15259   0.73584   0.00000  Uiso   1.00
N522   N     0.66584   0.13035   0.69121   0.00000  Uiso   1.00
O523   O     0.64437   0.07988   0.68808   0.00000  Uiso   1.00
O524   O     0.35637   0.15491   0.64927   0.00000  Uiso   1.00
O525   O     0.58316   0.12050   0.86808   0.00000  Uiso   1.00
H526   H     0.54924   0.09133   0.85977   0.00000  Uiso   1.00
O527   O     0.57035   0.01998   0.78129   0.00000  Uiso   1.00
H528   H     0.59402   0.33065   0.79316   0.00000  Uiso   1.00
O529   O     0.79464   0.23807   0.74633   0.00000  Uiso   1.00
O530   O     0.89524   0.24755   0.75586   0.00000  Uiso   1.00
C531   C     0.84766   0.26660   0.75403   0.00000  Uiso   1.00
O532   O     0.75848   0.15960   0.81839   0.00000  Uiso   1.00
O533   O     0.85908   0.16908   0.82793   0.00000  Uiso   1.00
C534   C     0.80020   0.15581   0.84563   0.00000  Uiso   1.00
Cu535  Cu    0.77377   0.16105   0.74435   0.00000  Uiso   1.00
Cu536  Cu    0.89290   0.17228   0.75564   0.00000  Uiso   1.00
O537   O     0.77142   0.08578   0.74413   0.00000  Uiso   1.00
O538   O     0.87203   0.09526   0.75367   0.00000  Uiso   1.00
O539   O     0.80758   0.16425   0.67207   0.00000  Uiso   1.00
O540   O     0.90819   0.17373   0.68160   0.00000  Uiso   1.00
C541   C     0.81819   0.06666   0.74902   0.00000  Uiso   1.00
C542   C     0.86640   0.17047   0.65329   0.00000  Uiso   1.00
C543   C     0.96075   0.20049   0.52294   0.00000  Uiso   1.00
H544   H     0.97995   0.21484   0.59831   0.00000  Uiso   1.00
H545   H     0.98345   0.18642   0.92329   0.00000  Uiso   1.00
H546   H     0.67504   0.21767   0.50575   0.00000  Uiso   1.00
C547   C     0.88462   0.17378   0.59819   0.00000  Uiso   1.00
C548   C     0.72018   0.11607   0.91835   0.00000  Uiso   1.00
C549   C     0.70116   0.10690   0.97000   0.00000  Uiso   1.00
C550   C     0.74361   0.12123   0.50290   0.00000  Uiso   1.00
C551   C     0.80787   0.13977   0.98373   0.00000  Uiso   1.00
C552   C     0.82781   0.14105   0.93027   0.00000  Uiso   1.00
C553   C     0.85343   0.15732   0.51529   0.00000  Uiso   1.00
C554   C     0.91606   0.17906   0.99277   0.00000  Uiso   1.00
C555   C     0.93478   0.17448   0.94048   0.00000  Uiso   1.00
C556   C     0.89274   0.14731   0.91109   0.00000  Uiso   1.00
C557   C     0.83923   0.15415   0.56824   0.00000  Uiso   1.00
C558   C     0.94502   0.19799   0.57552   0.00000  Uiso   1.00
C559   C     0.78264   0.13708   0.89846   0.00000  Uiso   1.00
H560   H     0.79346   0.13523   0.58702   0.00000  Uiso   1.00
H561   H     0.68586   0.10751   0.89397   0.00000  Uiso   1.00
H562   H     0.72457   0.11727   0.54284   0.00000  Uiso   1.00
H563   H     0.98580   0.09130   0.98510   0.00000  Uiso   1.00
C564   C     0.85440   0.32268   0.76081   0.00000  Uiso   1.00
C565   C     0.81120   0.01074   0.74767   0.00000  Uiso   1.00
H566   H     0.77079   0.32022   0.73395   0.00000  Uiso   1.00
N567   N     0.98241   0.18074   0.76416   0.00000  Uiso   1.00
H568   H     0.66720   0.20044   0.79447   0.00000  Uiso   1.00
N569   N     0.68426   0.15259   0.73584   0.00000  Uiso   1.00
N570   N     0.99917   0.13035   0.69121   0.00000  Uiso   1.00
O571   O     0.97771   0.07988   0.68808   0.00000  Uiso   1.00
O572   O     0.68970   0.15491   0.64927   0.00000  Uiso   1.00
O573   O     0.91649   0.12050   0.86808   0.00000  Uiso   1.00
H574   H     0.88257   0.09133   0.85977   0.00000  Uiso   1.00
O575   O     0.90368   0.01998   0.78129   0.00000  Uiso   1.00
H576   H     0.92735   0.33065   0.79316   0.00000  Uiso   1.00
O577   O     0.12797   0.57141   0.74633   0.00000  Uiso   1.00
O578   O     0.22858   0.58089   0.75586   0.00000  Uiso   1.00
C579   C     0.18099   0.59993   0.75403   0.00000  Uiso   1.00
O580   O     0.09181   0.49293   0.81839   0.00000  Uiso   1.00
O581   O     0.19242   0.50241   0.82793   0.00000  Uiso   1.00
C582   C     0.13353   0.48914   0.84563   0.00000  Uiso   1.00
Cu583  Cu    0.10710   0.49439   0.74435   0.00000  Uiso   1.00
Cu584  Cu    0.22623   0.50561   0.75564   0.00000  Uiso   1.00
O585   O     0.10476   0.41911   0.74413   0.00000  Uiso   1.00
O586   O     0.20536   0.42859   0.75367   0.00000  Uiso   1.00
O587   O     0.14092   0.49759   0.67207   0.00000  Uiso   1.00
O588   O     0.24152   0.50707   0.68160   0.00000  Uiso   1.00
C589   C     0.15153   0.39999   0.74902   0.00000  Uiso   1.00
C590   C     0.19973   0.50380   0.65329   0.00000  Uiso   1.00
C591   C     0.29409   0.53383   0.52294   0.00000  Uiso   1.00
H592   H     0.31329   0.54817   0.59831   0.00000  Uiso   1.00
H593   H     0.31678   0.51975   0.92329   0.00000  Uiso   1.00
H594   H     0.00837   0.55100   0.50575   0.00000  Uiso   1.00
C595   C     0.21795   0.50712   0.59819   0.00000  Uiso   1.00
C596   C     0.05352   0.44940   0.91835   0.00000  Uiso   1.00
C597   C     0.03450   0.44024   0.97000   0.00000  Uiso   1.00
C598   C     0.07694   0.45457   0.50290   0.00000  Uiso   1.00
C599   C     0.14121   0.47310   0.98373   0.00000  Uiso   1.00
C600   C     0.16115   0.47438   0.93027   0.00000  Uiso   1.00
C601   C     0.18677   0.49065   0.51529   0.00000  Uiso   1.00
C602   C     0.24940   0.51240   0.99277   0.00000  Uiso   1.00
C603   C     0.26811   0.50781   0.94048   0.00000  Uiso   1.00
C604   C     0.22607   0.48064   0.91109   0.00000  Uiso   1.00
C605   C     0.17256   0.48748   0.56824   0.00000  Uiso   1.00
C606   C     0.27835   0.53132   0.57552   0.00000  Uiso   1.00
C607   C     0.11597   0.47041   0.89846   0.00000  Uiso   1.00
H608   H     0.12679   0.46856   0.58702   0.00000  Uiso   1.00
H609   H     0.01920   0.44085   0.89397   0.00000  Uiso   1.00
H610   H     0.05790   0.45061   0.54284   0.00000  Uiso   1.00
H611   H     0.31913   0.42463   0.98510   0.00000  Uiso   1.00
C612   C     0.18773   0.65601   0.76081   0.00000  Uiso   1.00
C613   C     0.14454   0.34407   0.74767   0.00000  Uiso   1.00
H614   H     0.10413   0.65355   0.73395   0.00000  Uiso   1.00
N615   N     0.31574   0.51407   0.76416   0.00000  Uiso   1.00
H616   H     0.00053   0.53378   0.79447   0.00000  Uiso   1.00
N617   N     0.01759   0.48593   0.73584   0.00000  Uiso   1.00
N618   N     0.33250   0.46369   0.69121   0.00000  Uiso   1.00
O619   O     0.31104   0.41321   0.68808   0.00000  Uiso   1.00
O620   O     0.02304   0.48824   0.64927   0.00000  Uiso   1.00
O621   O     0.24983   0.45383   0.86808   0.00000  Uiso   1.00
H622   H     0.21591   0.42466   0.85977   0.00000  Uiso   1.00
O623   O     0.23701   0.35331   0.78129   0.00000  Uiso   1.00
H624   H     0.26069   0.66398   0.79316   0.00000  Uiso   1.00
O625   O     0.46131   0.57141   0.74633   0.00000  Uiso   1.00
O626   O     0.56191   0.58089   0.75586   0.00000  Uiso   1.00
C627   C     0.51433   0.59993   0.75403   0.00000  Uiso   1.00
O628   O     0.42515   0.49293   0.81839   0.00000  Uiso   1.00
O629   O     0.52575   0.50241   0.82793   0.00000  Uiso   1.00
C630   C     0.46687   0.48914   0.84563   0.00000  Uiso   1.00
Cu631  Cu    0.44043   0.49439   0.74435   0.00000  Uiso   1.00
Cu632  Cu    0.55957   0.50561   0.75564   0.00000  Uiso   1.00
O633   O     0.43809   0.41911   0.74413   0.00000  Uiso   1.00
O634   O     0.53869   0.42859   0.75367   0.00000  Uiso   1.00
O635   O     0.47425   0.49759   0.67207   0.00000  Uiso   1.00
O636   O     0.57485   0.50707   0.68160   0.00000  Uiso   1.00
C637   C     0.48486   0.39999   0.74902   0.00000  Uiso   1.00
C638   C     0.53307   0.50380   0.65329   0.00000  Uiso   1.00
C639   C     0.62742   0.53383   0.52294   0.00000  Uiso   1.00
H640   H     0.64662   0.54817   0.59831   0.00000  Uiso   1.00
H641   H     0.65011   0.51975   0.92329   0.00000  Uiso   1.00
H642   H     0.34171   0.55100   0.50575   0.00000  Uiso   1.00
C643   C     0.55128   0.50712   0.59819   0.00000  Uiso   1.00
C644   C     0.38685   0.44940   0.91835   0.00000  Uiso   1.00
C645   C     0.36783   0.44024   0.97000   0.00000  Uiso   1.00
C646   C     0.41028   0.45457   0.50290   0.00000  Uiso   1.00
C647   C     0.47454   0.47310   0.98373   0.00000  Uiso   1.00
C648   C     0.49448   0.47438   0.93027   0.00000  Uiso   1.00
C649   C     0.52010   0.49065   0.51529   0.00000  Uiso   1.00
C650   C     0.58273   0.51240   0.99277   0.00000  Uiso   1.00
C651   C     0.60145   0.50781   0.94048   0.00000  Uiso   1.00
C652   C     0.55941   0.48064   0.91109   0.00000  Uiso   1.00
C653   C     0.50589   0.48748   0.56824   0.00000  Uiso   1.00
C654   C     0.61169   0.53132   0.57552   0.00000  Uiso   1.00
C655   C     0.44930   0.47041   0.89846   0.00000  Uiso   1.00
H656   H     0.46013   0.46856   0.58702   0.00000  Uiso   1.00
H657   H     0.35253   0.44085   0.89397   0.00000  Uiso   1.00
H658   H     0.39123   0.45061   0.54284   0.00000  Uiso   1.00
H659   H     0.65247   0.42463   0.98510   0.00000  Uiso   1.00
C660   C     0.52106   0.65601   0.76081   0.00000  Uiso   1.00
C661   C     0.47787   0.34407   0.74767   0.00000  Uiso   1.00
H662   H     0.43746   0.65355   0.73395   0.00000  Uiso   1.00
N663   N     0.64908   0.51407   0.76416   0.00000  Uiso   1.00
H664   H     0.33386   0.53378   0.79447   0.00000  Uiso   1.00
N665   N     0.35092   0.48593   0.73584   0.00000  Uiso   1.00
N666   N     0.66584   0.46369   0.69121   0.00000  Uiso   1.00
O667   O     0.64437   0.41321   0.68808   0.00000  Uiso   1.00
O668   O     0.35637   0.48824   0.64927   0.00000  Uiso   1.00
O669   O     0.58316   0.45383   0.86808   0.00000  Uiso   1.00
H670   H     0.54924   0.42466   0.85977   0.00000  Uiso   1.00
O671   O     0.57035   0.35331   0.78129   0.00000  Uiso   1.00
H672   H     0.59402   0.66398   0.79316   0.00000  Uiso   1.00
O673   O     0.79464   0.57141   0.74633   0.00000  Uiso   1.00
O674   O     0.89524   0.58089   0.75586   0.00000  Uiso   1.00
C675   C     0.84766   0.59993   0.75403   0.00000  Uiso   1.00
O676   O     0.75848   0.49293   0.81839   0.00000  Uiso   1.00
O677   O     0.85908   0.50241   0.82793   0.00000  Uiso   1.00
C678   C     0.80020   0.48914   0.84563   0.00000  Uiso   1.00
Cu679  Cu    0.77377   0.49439   0.74435   0.00000  Uiso   1.00
Cu680  Cu    0.89290   0.50561   0.75564   0.00000  Uiso   1.00
O681   O     0.77142   0.41911   0.74413   0.00000  Uiso   1.00
O682   O     0.87203   0.42859   0.75367   0.00000  Uiso   1.00
O683   O     0.80758   0.49759   0.67207   0.00000  Uiso   1.00
O684   O     0.90819   0.50707   0.68160   0.00000  Uiso   1.00
C685   C     0.81819   0.39999   0.74902   0.00000  Uiso   1.00
C686   C     0.86640   0.50380   0.65329   0.00000  Uiso   1.00
C687   C     0.96075   0.53383   0.52294   0.00000  Uiso   1.00
H688   H     0.97995   0.54817   0.59831   0.00000  Uiso   1.00
H689   H     0.98345   0.51975   0.92329   0.00000  Uiso   1.00
H690   H     0.67504   0.55100   0.50575   0.00000  Uiso   1.00
C691   C     0.88462   0.50712   0.59819   0.00000  Uiso   1.00
C692   C     0.72018   0.44940   0.91835   0.00000  Uiso   1.00
C693   C     0.70116   0.44024   0.97000   0.00000  Uiso   1.00
C694   C     0.74361   0.45457   0.50290   0.00000  Uiso   1.00
C695   C     0.80787   0.47310   0.98373   0.00000  Uiso   1.00
C696   C     0.82781   0.47438   0.93027   0.00000  Uiso   1.00
C697   C     0.85343   0.49065   0.51529   0.00000  Uiso   1.00
C698   C     0.91606   0.51240   0.99277   0.00000  Uiso   1.00
C699   C     0.93478   0.50781   0.94048   0.00000  Uiso   1.00
C700   C     0.89274   0.48064   0.91109   0.00000  Uiso   1.00
C701   C     0.83923   0.48748   0.56824   0.00000  Uiso   1.00
C702   C     0.94502   0.53132   0.57552   0.00000  Uiso   1.00
C703   C     0.78264   0.47041   0.89846   0.00000  Uiso   1.00
H704   H     0.79346   0.46856   0.58702   0.00000  Uiso   1.00
H705   H     0.68586   0.44085   0.89397   0.00000  Uiso   1.00
H706   H     0.72457   0.45061   0.54284   0.00000  Uiso   1.00
H707   H     0.98580   0.42463   0.98510   0.00000  Uiso   1.00
C708   C     0.85440   0.65601   0.76081   0.00000  Uiso   1.00
C709   C     0.81120   0.34407   0.74767   0.00000  Uiso   1.00
H710   H     0.77079   0.65355   0.73395   0.00000  Uiso   1.00
N711   N     0.98241   0.51407   0.76416   0.00000  Uiso   1.00
H712   H     0.66720   0.53378   0.79447   0.00000  Uiso   1.00
N713   N     0.68426   0.48593   0.73584   0.00000  Uiso   1.00
N714   N     0.99917   0.46369   0.69121   0.00000  Uiso   1.00
O715   O     0.97771   0.41321   0.68808   0.00000  Uiso   1.00
O716   O     0.68970   0.48824   0.64927   0.00000  Uiso   1.00
O717   O     0.91649   0.45383   0.86808   0.00000  Uiso   1.00
H718   H     0.88257   0.42466   0.85977   0.00000  Uiso   1.00
O719   O     0.90368   0.35331   0.78129   0.00000  Uiso   1.00
H720   H     0.92735   0.66398   0.79316   0.00000  Uiso   1.00
O721   O     0.12797   0.90474   0.74633   0.00000  Uiso   1.00
O722   O     0.22858   0.91422   0.75586   0.00000  Uiso   1.00
C723   C     0.18099   0.93327   0.75403   0.00000  Uiso   1.00
O724   O     0.09181   0.82627   0.81839   0.00000  Uiso   1.00
O725   O     0.19242   0.83575   0.82793   0.00000  Uiso   1.00
C726   C     0.13353   0.82247   0.84563   0.00000  Uiso   1.00
Cu727  Cu    0.10710   0.82772   0.74435   0.00000  Uiso   1.00
Cu728  Cu    0.22623   0.83895   0.75564   0.00000  Uiso   1.00
O729   O     0.10476   0.75245   0.74413   0.00000  Uiso   1.00
O730   O     0.20536   0.76193   0.75367   0.00000  Uiso   1.00
O731   O     0.14092   0.83092   0.67207   0.00000  Uiso   1.00
O732   O     0.24152   0.84040   0.68160   0.00000  Uiso   1.00
C733   C     0.15153   0.73333   0.74902   0.00000  Uiso   1.00
C734   C     0.19973   0.83713   0.65329   0.00000  Uiso   1.00
C735   C     0.29409   0.86716   0.52294   0.00000  Uiso   1.00
H736   H     0.31329   0.88150   0.59831   0.00000  Uiso   1.00
H737   H     0.31678   0.85309   0.92329   0.00000  Uiso   1.00
H738   H     0.00837   0.88434   0.50575   0.00000  Uiso   1.00
C739   C     0.21795   0.84045   0.59819   0.00000  Uiso   1.00
C740   C     0.05352   0.78273   0.91835   0.00000  Uiso   1.00
C741   C     0.03450   0.77357   0.97000   0.00000  Uiso   1.00
C742   C     0.07694   0.78790   0.50290   0.00000  Uiso   1.00
C743   C     0.14121   0.80643   0.98373   0.00000  Uiso   1.00
C744   C     0.16115   0.80771   0.93027   0.00000  Uiso   1.00
C745   C     0.18677   0.82398   0.51529   0.00000  Uiso   1.00
C746   C     0.24940   0.84573   0.99277   0.00000  Uiso   1.00
C747   C     0.26811   0.84114   0.94048   0.00000  Uiso   1.00
C748   C     0.22607   0.81397   0.91109   0.00000  Uiso   1.00
C749   C     0.17256   0.82082   0.56824   0.00000  Uiso   1.00
C750   C     0.27835   0.86465   0.57552   0.00000  Uiso   1.00
C751   C     0.11597   0.80375   0.89846   0.00000  Uiso   1.00
H752   H     0.12679   0.80190   0.58702   0.00000  Uiso   1.00
H753   H     0.01920   0.77418   0.89397   0.00000  Uiso   1.00
H754   H     0.05790   0.78394   0.54284   0.00000  Uiso   1.00
H755   H     0.31913   0.75797   0.98510   0.00000  Uiso   1.00
C756   C     0.18773   0.98935   0.76081   0.00000  Uiso   1.00
C757   C     0.14454   0.67741   0.74767   0.00000  Uiso   1.00
H758   H     0.10413   0.98688   0.73395   0.00000  Uiso   1.00
N759   N     0.31574   0.84741   0.76416   0.00000  Uiso   1.00
H760   H     0.00053   0.86711   0.79447   0.00000  Uiso   1.00
N761   N     0.01759   0.81926   0.73584   0.00000  Uiso   1.00
N762   N     0.33250   0.79702   0.69121   0.00000  Uiso   1.00
O763   O     0.31104   0.74655   0.68808   0.00000  Uiso   1.00
O764   O     0.02304   0.82158   0.64927   0.00000  Uiso   1.00
O765   O     0.24983   0.78717   0.86808   0.00000  Uiso   1.00
H766   H     0.21591   0.75799   0.85977   0.00000  Uiso   1.00
O767   O     0.23701   0.68664   0.78129   0.00000  Uiso   1.00
H768   H     0.26069   0.99731   0.79316   0.00000  Uiso   1.00
O769   O     0.46131   0.90474   0.74633   0.00000  Uiso   1.00
O770   O     0.56191   0.91422   0.75586   0.00000  Uiso   1.00
C771   C     0.51433   0.93327   0.75403   0.00000  Uiso   1.00
O772   O     0.42515   0.82627   0.81839   0.00000  Uiso   1.00
O773   O     0.52575   0.83575   0.82793   0.00000  Uiso   1.00
C774   C     0.46687   0.82247   0.84563   0.00000  Uiso   1.00
Cu775  Cu    0.44043   0.82772   0.74435   0.00000  Uiso   1.00
Cu776  Cu    0.55957   0.83895   0.75564   0.00000  Uiso   1.00
O777   O     0.43809   0.75245   0.74413   0.00000  Uiso   1.00
O778   O     0.53869   0.76193   0.75367   0.00000  Uiso   1.00
O779   O     0.47425   0.83092   0.67207   0.00000  Uiso   1.00
O780   O     0.57485   0.84040   0.68160   0.00000  Uiso   1.00
C781   C     0.48486   0.73333   0.74902   0.00000  Uiso   1.00
C782   C     0.53307   0.83713   0.65329   0.00000  Uiso   1.00
C783   C     0.62742   0.86716   0.52294   0.00000  Uiso   1.00
H784   H     0.64662   0.88150   0.59831   0.00000  Uiso   1.00
H785   H     0.65011   0.85309   0.92329   0.00000  Uiso   1.00
H786   H     0.34171   0.88434   0.50575   0.00000  Uiso   1.00
C787   C     0.55128   0.84045   0.59819   0.00000  Uiso   1.00
C788   C     0.38685   0.78273   0.91835   0.00000  Uiso   1.00
C789   C     0.36783   0.77357   0.97000   0.00000  Uiso   1.00
C790   C     0.41028   0.78790   0.50290   0.00000  Uiso   1.00
C791   C     0.47454   0.80643   0.98373   0.00000  Uiso   1.00
C792   C     0.49448   0.80771   0.93027   0.00000  Uiso   1.00
C793   C     0.52010   0.82398   0.51529   0.00000  Uiso   1.00
C794   C     0.58273   0.84573   0.99277   0.00000  Uiso   1.00
C795   C     0.60145   0.84114   0.94048   0.00000  Uiso   1.00
C796   C     0.55941   0.81397   0.91109   0.00000  Uiso   1.00
C797   C     0.50589   0.82082   0.56824   0.00000  Uiso   1.00
C798   C     0.61169   0.86465   0.57552   0.00000  Uiso   1.00
C799   C     0.44930   0.80375   0.89846   0.00000  Uiso   1.00
H800   H     0.46013   0.80190   0.58702   0.00000  Uiso   1.00
H801   H     0.35253   0.77418   0.89397   0.00000  Uiso   1.00
H802   H     0.39123   0.78394   0.54284   0.00000  Uiso   1.00
H803   H     0.65247   0.75797   0.98510   0.00000  Uiso   1.00
C804   C     0.52106   0.98935   0.76081   0.00000  Uiso   1.00
C805   C     0.47787   0.67741   0.74767   0.00000  Uiso   1.00
H806   H     0.43746   0.98688   0.73395   0.00000  Uiso   1.00
N807   N     0.64908   0.84741   0.76416   0.00000  Uiso   1.00
H808   H     0.33386   0.86711   0.79447   0.00000  Uiso   1.00
N809   N     0.35092   0.81926   0.73584   0.00000  Uiso   1.00
N810   N     0.66584   0.79702   0.69121   0.00000  Uiso   1.00
O811   O     0.64437   0.74655   0.68808   0.00000  Uiso   1.00
O812   O     0.35637   0.82158   0.64927   0.00000  Uiso   1.00
O813   O     0.58316   0.78717   0.86808   0.00000  Uiso   1.00
H814   H     0.54924   0.75799   0.85977   0.00000  Uiso   1.00
O815   O     0.57035   0.68664   0.78129   0.00000  Uiso   1.00
H816   H     0.59402   0.99731   0.79316   0.00000  Uiso   1.00
O817   O     0.79464   0.90474   0.74633   0.00000  Uiso   1.00
O818   O     0.89524   0.91422   0.75586   0.00000  Uiso   1.00
C819   C     0.84766   0.93327   0.75403   0.00000  Uiso   1.00
O820   O     0.75848   0.82627   0.81839   0.00000  Uiso   1.00
O821   O     0.85908   0.83575   0.82793   0.00000  Uiso   1.00
C822   C     0.80020   0.82247   0.84563   0.00000  Uiso   1.00
Cu823  Cu    0.77377   0.82772   0.74435   0.00000  Uiso   1.00
Cu824  Cu    0.89290   0.83895   0.75564   0.00000  Uiso   1.00
O825   O     0.77142   0.75245   0.74413   0.00000  Uiso   1.00
O826   O     0.87203   0.76193   0.75367   0.00000  Uiso   1.00
O827   O     0.80758   0.83092   0.67207   0.00000  Uiso   1.00
O828   O     0.90819   0.84040   0.68160   0.00000  Uiso   1.00
C829   C     0.81819   0.73333   0.74902   0.00000  Uiso   1.00
C830   C     0.86640   0.83713   0.65329   0.00000  Uiso   1.00
C831   C     0.96075   0.86716   0.52294   0.00000  Uiso   1.00
H832   H     0.97995   0.88150   0.59831   0.00000  Uiso   1.00
H833   H     0.98345   0.85309   0.92329   0.00000  Uiso   1.00
H834   H     0.67504   0.88434   0.50575   0.00000  Uiso   1.00
C835   C     0.88462   0.84045   0.59819   0.00000  Uiso   1.00
C836   C     0.72018   0.78273   0.91835   0.00000  Uiso   1.00
C837   C     0.70116   0.77357   0.97000   0.00000  Uiso   1.00
C838   C     0.74361   0.78790   0.50290   0.00000  Uiso   1.00
C839   C     0.80787   0.80643   0.98373   0.00000  Uiso   1.00
C840   C     0.82781   0.80771   0.93027   0.00000  Uiso   1.00
C841   C     0.85343   0.82398   0.51529   0.00000  Uiso   1.00
C842   C     0.91606   0.84573   0.99277   0.00000  Uiso   1.00
C843   C     0.93478   0.84114   0.94048   0.00000  Uiso   1.00
C844   C     0.89274   0.81397   0.91109   0.00000  Uiso   1.00
C845   C     0.83923   0.82082   0.56824   0.00000  Uiso   1.00
C846   C     0.94502   0.86465   0.57552   0.00000  Uiso   1.00
C847   C     0.78264   0.80375   0.89846   0.00000  Uiso   1.00
H848   H     0.79346   0.80190   0.58702   0.00000  Uiso   1.00
H849   H     0.68586   0.77418   0.89397   0.00000  Uiso   1.00
H850   H     0.72457   0.78394   0.54284   0.00000  Uiso   1.00
H851   H     0.98580   0.75797   0.98510   0.00000  Uiso   1.00
C852   C     0.85440   0.98935   0.76081   0.00000  Uiso   1.00
C853   C     0.81120   0.67741   0.74767   0.00000  Uiso   1.00
H854   H     0.77079   0.98688   0.73395   0.00000  Uiso   1.00
N855   N     0.98241   0.84741   0.76416   0.00000  Uiso   1.00
H856   H     0.66720   0.86711   0.79447   0.00000  Uiso   1.00
N857   N     0.68426   0.81926   0.73584   0.00000  Uiso   1.00
N858   N     0.99917   0.79702   0.69121   0.00000  Uiso   1.00
O859   O     0.97771   0.74655   0.68808   0.00000  Uiso   1.00
O860   O     0.68970   0.82158   0.64927   0.00000  Uiso   1.00
O861   O     0.91649   0.78717   0.86808   0.00000  Uiso   1.00
H862   H     0.88257   0.75799   0.85977   0.00000  Uiso   1.00
O863   O     0.90368   0.68664   0.78129   0.00000  Uiso   1.00
H864   H     0.92735   0.99731   0.79316   0.00000  Uiso   1.00
loop_
_geom_bond_atom_site_label_1
_geom_bond_atom_site_label_2
_geom_bond_distance
_geom_bond_site_symmetry_2
_ccdc_geom_bond_type
O1     Cu7     1.961   .     S
O1     C3      1.296   .     A
O2     C3      1.290   .     A
O2     Cu8     1.959   .     S
C3     C36     1.441   .     S
O4     Cu7     1.951   .     S
O4     C6      1.322   .     A
O5     Cu8     1.940   .     S
O5     C6      1.289   .     A
C6     C31     1.487   .     S
Cu7    Cu8     2.698   .     S
Cu7    O11     1.940   .     S
Cu7    N41     2.027   .     S
Cu7    O9      1.959   .     S
Cu8    N39     2.027   .     S
Cu8    O12     1.951   .     S
Cu8    O10     1.961   .     S
O9     C13     1.295   .     A
O10    C13     1.290   .     A
O11    C14     1.294   .     A
O12    C14     1.304   .     A
C13    C37     1.434   .     S
C14    C19     1.459   .     S
C15    C30     1.388   .     A
C15    H66     1.084   .     S
C15    C458    1.402   1_554 S
H16    C30     1.082   .     S
H17    C27     1.082   .     S
H18    C111    1.084   1_455 S
C19    C30     1.397   .     A
C19    C29     1.402   .     A
C20    H33     1.081   .     S
C20    C21     1.391   .     A
C20    C31     1.396   .     A
C21    C454    1.394   .     S
C21    H131    1.083   1_455 S
C22    H34     1.077   .     S
C22    C453    1.394   1_554 S
C22    C455    1.416   1_554 S
C23    C24     1.417   .     A
C23    C454    1.416   .     S
C23    C457    1.428   .     S
C24    C31     1.432   .     A
C24    C28     1.422   .     A
C25    C29     1.399   .     A
C25    C455    1.428   1_554 S
C25    C458    1.420   1_554 S
C26    C27     1.387   .     A
C26    C457    1.420   .     S
C26    C447    1.402   .     S
C27    C28     1.383   .     A
C28    O45     1.380   .     S
C29    H32     1.075   .     S
H35    C69     1.083   .     S
C36    C181    1.341   .     S
C36    O191    1.389   .     S
C37    C324    1.341   1_545 S
C37    H326    1.087   1_545 S
H38    C181    1.087   .     S
N39    H88     1.029   .     S
N39    N89     1.297   .     S
H40    N135    1.029   1_455 S
N41    N135    1.297   1_455 S
N41    N138    1.384   1_455 S
N42    O43     1.300   .     A
N42    N89     1.384   .     S
N42    O92     1.300   .     S
O44    N138    1.300   1_455 S
O45    H46     0.992   .     S
O47    C324    1.389   1_545 S
O47    H336    0.990   1_545 S
H48    O191    0.990   .     S
O49    Cu55    1.961   .     S
O49    C51     1.296   .     A
O50    C51     1.290   .     A
O50    Cu56    1.959   .     S
C51    C84     1.441   .     S
O52    Cu55    1.951   .     S
O52    C54     1.322   .     A
O53    Cu56    1.940   .     S
O53    C54     1.289   .     A
C54    C79     1.487   .     S
Cu55   Cu56    2.698   .     S
Cu55   O59     1.940   .     S
Cu55   N89     2.027   .     S
Cu55   O57     1.959   .     S
Cu56   N87     2.027   .     S
Cu56   O60     1.951   .     S
Cu56   O58     1.961   .     S
O57    C61     1.295   .     A
O58    C61     1.290   .     A
O59    C62     1.294   .     A
O60    C62     1.304   .     A
C61    C85     1.434   .     S
C62    C67     1.459   .     S
C63    C78     1.388   .     A
C63    H114    1.084   .     S
C63    C506    1.402   1_554 S
H64    C78     1.082   .     S
H65    C75     1.082   .     S
C67    C78     1.397   .     A
C67    C77     1.402   .     A
C68    H81     1.081   .     S
C68    C69     1.391   .     A
C68    C79     1.396   .     A
C69    C502    1.394   .     S
C70    H82     1.077   .     S
C70    C501    1.394   1_554 S
C70    C503    1.416   1_554 S
C71    C72     1.417   .     A
C71    C502    1.416   .     S
C71    C505    1.428   .     S
C72    C79     1.432   .     A
C72    C76     1.422   .     A
C73    C77     1.399   .     A
C73    C503    1.428   1_554 S
C73    C506    1.420   1_554 S
C74    C75     1.387   .     A
C74    C505    1.420   .     S
C74    C495    1.402   .     S
C75    C76     1.383   .     A
C76    O93     1.380   .     S
C77    H80     1.075   .     S
H83    C117    1.083   .     S
C84    C229    1.341   .     S
C84    O239    1.389   .     S
C85    C372    1.341   1_545 S
C85    H374    1.087   1_545 S
H86    C229    1.087   .     S
N87    H136    1.029   .     S
N87    N137    1.297   .     S
N90    O91     1.300   .     A
N90    N137    1.384   .     S
N90    O140    1.300   .     S
O93    H94     0.992   .     S
O95    C372    1.389   1_545 S
O95    H384    0.990   1_545 S
H96    O239    0.990   .     S
O97    Cu103   1.961   .     S
O97    C99     1.296   .     A
O98    C99     1.290   .     A
O98    Cu104   1.959   .     S
C99    C132    1.441   .     S
O100   Cu103   1.951   .     S
O100   C102    1.322   .     A
O101   Cu104   1.940   .     S
O101   C102    1.289   .     A
C102   C127    1.487   .     S
Cu103  Cu104   2.698   .     S
Cu103  O107    1.940   .     S
Cu103  N137    2.027   .     S
Cu103  O105    1.959   .     S
Cu104  N135    2.027   .     S
Cu104  O108    1.951   .     S
Cu104  O106    1.961   .     S
O105   C109    1.295   .     A
O106   C109    1.290   .     A
O107   C110    1.294   .     A
O108   C110    1.304   .     A
C109   C133    1.434   .     S
C110   C115    1.459   .     S
C111   C126    1.388   .     A
C111   H18     1.084   1_655 S
C111   C554    1.402   1_554 S
H112   C126    1.082   .     S
H113   C123    1.082   .     S
C115   C126    1.397   .     A
C115   C125    1.402   .     A
C116   H129    1.081   .     S
C116   C117    1.391   .     A
C116   C127    1.396   .     A
C117   C550    1.394   .     S
C118   H130    1.077   .     S
C118   C549    1.394   1_554 S
C118   C551    1.416   1_554 S
C119   C120    1.417   .     A
C119   C550    1.416   .     S
C119   C553    1.428   .     S
C120   C127    1.432   .     A
C120   C124    1.422   .     A
C121   C125    1.399   .     A
C121   C551    1.428   1_554 S
C121   C554    1.420   1_554 S
C122   C123    1.387   .     A
C122   C553    1.420   .     S
C122   C543    1.402   .     S
C123   C124    1.383   .     A
C124   O141    1.380   .     S
C125   H128    1.075   .     S
H131   C21     1.083   1_655 S
C132   C277    1.341   .     S
C132   O287    1.389   .     S
C133   C420    1.341   1_545 S
C133   H422    1.087   1_545 S
H134   C277    1.087   .     S
N135   H40     1.029   1_655 S
N135   N41     1.297   1_655 S
N138   O139    1.300   .     A
N138   N41     1.384   1_655 S
N138   O44     1.300   1_655 S
O141   H142    0.992   .     S
O143   C420    1.389   1_545 S
O143   H432    0.990   1_545 S
H144   O287    0.990   .     S
O145   Cu151   1.961   .     S
O145   C147    1.296   .     A
O146   C147    1.290   .     A
O146   Cu152   1.959   .     S
C147   C180    1.441   .     S
O148   Cu151   1.951   .     S
O148   C150    1.322   .     A
O149   Cu152   1.940   .     S
O149   C150    1.289   .     A
C150   C175    1.487   .     S
Cu151  Cu152   2.698   .     S
Cu151  O155    1.940   .     S
Cu151  N185    2.027   .     S
Cu151  O153    1.959   .     S
Cu152  N183    2.027   .     S
Cu152  O156    1.951   .     S
Cu152  O154    1.961   .     S
O153   C157    1.295   .     A
O154   C157    1.290   .     A
O155   C158    1.294   .     A
O156   C158    1.304   .     A
C157   C181    1.434   .     S
C158   C163    1.459   .     S
C159   C174    1.388   .     A
C159   H210    1.084   .     S
C159   C602    1.402   1_554 S
H160   C174    1.082   .     S
H161   C171    1.082   .     S
H162   C255    1.084   1_455 S
C163   C174    1.397   .     A
C163   C173    1.402   .     A
C164   H177    1.081   .     S
C164   C165    1.391   .     A
C164   C175    1.396   .     A
C165   C598    1.394   .     S
C165   H275    1.083   1_455 S
C166   H178    1.077   .     S
C166   C597    1.394   1_554 S
C166   C599    1.416   1_554 S
C167   C168    1.417   .     A
C167   C598    1.416   .     S
C167   C601    1.428   .     S
C168   C175    1.432   .     A
C168   C172    1.422   .     A
C169   C173    1.399   .     A
C169   C599    1.428   1_554 S
C169   C602    1.420   1_554 S
C170   C171    1.387   .     A
C170   C601    1.420   .     S
C170   C591    1.402   .     S
C171   C172    1.383   .     A
C172   O189    1.380   .     S
C173   H176    1.075   .     S
H179   C213    1.083   .     S
C180   C325    1.341   .     S
C180   O335    1.389   .     S
H182   C325    1.087   .     S
N183   H232    1.029   .     S
N183   N233    1.297   .     S
H184   N279    1.029   1_455 S
N185   N279    1.297   1_455 S
N185   N282    1.384   1_455 S
N186   O187    1.300   .     A
N186   N233    1.384   .     S
N186   O236    1.300   .     S
O188   N282    1.300   1_455 S
O189   H190    0.992   .     S
H192   O335    0.990   .     S
O193   Cu199   1.961   .     S
O193   C195    1.296   .     A
O194   C195    1.290   .     A
O194   Cu200   1.959   .     S
C195   C228    1.441   .     S
O196   Cu199   1.951   .     S
O196   C198    1.322   .     A
O197   Cu200   1.940   .     S
O197   C198    1.289   .     A
C198   C223    1.487   .     S
Cu199  Cu200   2.698   .     S
Cu199  O203    1.940   .     S
Cu199  N233    2.027   .     S
Cu199  O201    1.959   .     S
Cu200  N231    2.027   .     S
Cu200  O204    1.951   .     S
Cu200  O202    1.961   .     S
O201   C205    1.295   .     A
O202   C205    1.290   .     A
O203   C206    1.294   .     A
O204   C206    1.304   .     A
C205   C229    1.434   .     S
C206   C211    1.459   .     S
C207   C222    1.388   .     A
C207   H258    1.084   .     S
C207   C650    1.402   1_554 S
H208   C222    1.082   .     S
H209   C219    1.082   .     S
C211   C222    1.397   .     A
C211   C221    1.402   .     A
C212   H225    1.081   .     S
C212   C213    1.391   .     A
C212   C223    1.396   .     A
C213   C646    1.394   .     S
C214   H226    1.077   .     S
C214   C645    1.394   1_554 S
C214   C647    1.416   1_554 S
C215   C216    1.417   .     A
C215   C646    1.416   .     S
C215   C649    1.428   .     S
C216   C223    1.432   .     A
C216   C220    1.422   .     A
C217   C221    1.399   .     A
C217   C647    1.428   1_554 S
C217   C650    1.420   1_554 S
C218   C219    1.387   .     A
C218   C649    1.420   .     S
C218   C639    1.402   .     S
C219   C220    1.383   .     A
C220   O237    1.380   .     S
C221   H224    1.075   .     S
H227   C261    1.083   .     S
C228   C373    1.341   .     S
C228   O383    1.389   .     S
H230   C373    1.087   .     S
N231   H280    1.029   .     S
N231   N281    1.297   .     S
N234   O235    1.300   .     A
N234   N281    1.384   .     S
N234   O284    1.300   .     S
O237   H238    0.992   .     S
H240   O383    0.990   .     S
O241   Cu247   1.961   .     S
O241   C243    1.296   .     A
O242   C243    1.290   .     A
O242   Cu248   1.959   .     S
C243   C276    1.441   .     S
O244   Cu247   1.951   .     S
O244   C246    1.322   .     A
O245   Cu248   1.940   .     S
O245   C246    1.289   .     A
C246   C271    1.487   .     S
Cu247  Cu248   2.698   .     S
Cu247  O251    1.940   .     S
Cu247  N281    2.027   .     S
Cu247  O249    1.959   .     S
Cu248  N279    2.027   .     S
Cu248  O252    1.951   .     S
Cu248  O250    1.961   .     S
O249   C253    1.295   .     A
O250   C253    1.290   .     A
O251   C254    1.294   .     A
O252   C254    1.304   .     A
C253   C277    1.434   .     S
C254   C259    1.459   .     S
C255   C270    1.388   .     A
C255   H162    1.084   1_655 S
C255   C698    1.402   1_554 S
H256   C270    1.082   .     S
H257   C267    1.082   .     S
C259   C270    1.397   .     A
C259   C269    1.402   .     A
C260   H273    1.081   .     S
C260   C261    1.391   .     A
C260   C271    1.396   .     A
C261   C694    1.394   .     S
C262   H274    1.077   .     S
C262   C693    1.394   1_554 S
C262   C695    1.416   1_554 S
C263   C264    1.417   .     A
C263   C694    1.416   .     S
C263   C697    1.428   .     S
C264   C271    1.432   .     A
C264   C268    1.422   .     A
C265   C269    1.399   .     A
C265   C695    1.428   1_554 S
C265   C698    1.420   1_554 S
C266   C267    1.387   .     A
C266   C697    1.420   .     S
C266   C687    1.402   .     S
C267   C268    1.383   .     A
C268   O285    1.380   .     S
C269   H272    1.075   .     S
H275   C165    1.083   1_655 S
C276   C421    1.341   .     S
C276   O431    1.389   .     S
H278   C421    1.087   .     S
N279   H184    1.029   1_655 S
N279   N185    1.297   1_655 S
N282   O283    1.300   .     A
N282   N185    1.384   1_655 S
N282   O188    1.300   1_655 S
O285   H286    0.992   .     S
H288   O431    0.990   .     S
O289   Cu295   1.961   .     S
O289   C291    1.296   .     A
O290   C291    1.290   .     A
O290   Cu296   1.959   .     S
C291   C324    1.441   .     S
O292   Cu295   1.951   .     S
O292   C294    1.322   .     A
O293   Cu296   1.940   .     S
O293   C294    1.289   .     A
C294   C319    1.487   .     S
Cu295  Cu296   2.698   .     S
Cu295  O299    1.940   .     S
Cu295  N329    2.027   .     S
Cu295  O297    1.959   .     S
Cu296  N327    2.027   .     S
Cu296  O300    1.951   .     S
Cu296  O298    1.961   .     S
O297   C301    1.295   .     A
O298   C301    1.290   .     A
O299   C302    1.294   .     A
O300   C302    1.304   .     A
C301   C325    1.434   .     S
C302   C307    1.459   .     S
C303   C318    1.388   .     A
C303   H354    1.084   .     S
C303   C746    1.402   1_554 S
H304   C318    1.082   .     S
H305   C315    1.082   .     S
H306   C399    1.084   1_455 S
C307   C318    1.397   .     A
C307   C317    1.402   .     A
C308   H321    1.081   .     S
C308   C309    1.391   .     A
C308   C319    1.396   .     A
C309   C742    1.394   .     S
C309   H419    1.083   1_455 S
C310   H322    1.077   .     S
C310   C741    1.394   1_554 S
C310   C743    1.416   1_554 S
C311   C312    1.417   .     A
C311   C742    1.416   .     S
C311   C745    1.428   .     S
C312   C319    1.432   .     A
C312   C316    1.422   .     A
C313   C317    1.399   .     A
C313   C743    1.428   1_554 S
C313   C746    1.420   1_554 S
C314   C315    1.387   .     A
C314   C745    1.420   .     S
C314   C735    1.402   .     S
C315   C316    1.383   .     A
C316   O333    1.380   .     S
C317   H320    1.075   .     S
H323   C357    1.083   .     S
C324   C37     1.341   1_565 S
C324   O47     1.389   1_565 S
H326   C37     1.087   1_565 S
N327   H376    1.029   .     S
N327   N377    1.297   .     S
H328   N423    1.029   1_455 S
N329   N423    1.297   1_455 S
N329   N426    1.384   1_455 S
N330   O331    1.300   .     A
N330   N377    1.384   .     S
N330   O380    1.300   .     S
O332   N426    1.300   1_455 S
O333   H334    0.992   .     S
H336   O47     0.990   1_565 S
O337   Cu343   1.961   .     S
O337   C339    1.296   .     A
O338   C339    1.290   .     A
O338   Cu344   1.959   .     S
C339   C372    1.441   .     S
O340   Cu343   1.951   .     S
O340   C342    1.322   .     A
O341   Cu344   1.940   .     S
O341   C342    1.289   .     A
C342   C367    1.487   .     S
Cu343  Cu344   2.698   .     S
Cu343  O347    1.940   .     S
Cu343  N377    2.027   .     S
Cu343  O345    1.959   .     S
Cu344  N375    2.027   .     S
Cu344  O348    1.951   .     S
Cu344  O346    1.961   .     S
O345   C349    1.295   .     A
O346   C349    1.290   .     A
O347   C350    1.294   .     A
O348   C350    1.304   .     A
C349   C373    1.434   .     S
C350   C355    1.459   .     S
C351   C366    1.388   .     A
C351   H402    1.084   .     S
C351   C794    1.402   1_554 S
H352   C366    1.082   .     S
H353   C363    1.082   .     S
C355   C366    1.397   .     A
C355   C365    1.402   .     A
C356   H369    1.081   .     S
C356   C357    1.391   .     A
C356   C367    1.396   .     A
C357   C790    1.394   .     S
C358   H370    1.077   .     S
C358   C789    1.394   1_554 S
C358   C791    1.416   1_554 S
C359   C360    1.417   .     A
C359   C790    1.416   .     S
C359   C793    1.428   .     S
C360   C367    1.432   .     A
C360   C364    1.422   .     A
C361   C365    1.399   .     A
C361   C791    1.428   1_554 S
C361   C794    1.420   1_554 S
C362   C363    1.387   .     A
C362   C793    1.420   .     S
C362   C783    1.402   .     S
C363   C364    1.383   .     A
C364   O381    1.380   .     S
C365   H368    1.075   .     S
H371   C405    1.083   .     S
C372   C85     1.341   1_565 S
C372   O95     1.389   1_565 S
H374   C85     1.087   1_565 S
N375   H424    1.029   .     S
N375   N425    1.297   .     S
N378   O379    1.300   .     A
N378   N425    1.384   .     S
N378   O428    1.300   .     S
O381   H382    0.992   .     S
H384   O95     0.990   1_565 S
O385   Cu391   1.961   .     S
O385   C387    1.296   .     A
O386   C387    1.290   .     A
O386   Cu392   1.959   .     S
C387   C420    1.441   .     S
O388   Cu391   1.951   .     S
O388   C390    1.322   .     A
O389   Cu392   1.940   .     S
O389   C390    1.289   .     A
C390   C415    1.487   .     S
Cu391  Cu392   2.698   .     S
Cu391  O395    1.940   .     S
Cu391  N425    2.027   .     S
Cu391  O393    1.959   .     S
Cu392  N423    2.027   .     S
Cu392  O396    1.951   .     S
Cu392  O394    1.961   .     S
O393   C397    1.295   .     A
O394   C397    1.290   .     A
O395   C398    1.294   .     A
O396   C398    1.304   .     A
C397   C421    1.434   .     S
C398   C403    1.459   .     S
C399   C414    1.388   .     A
C399   H306    1.084   1_655 S
C399   C842    1.402   1_554 S
H400   C414    1.082   .     S
H401   C411    1.082   .     S
C403   C414    1.397   .     A
C403   C413    1.402   .     A
C404   H417    1.081   .     S
C404   C405    1.391   .     A
C404   C415    1.396   .     A
C405   C838    1.394   .     S
C406   H418    1.077   .     S
C406   C837    1.394   1_554 S
C406   C839    1.416   1_554 S
C407   C408    1.417   .     A
C407   C838    1.416   .     S
C407   C841    1.428   .     S
C408   C415    1.432   .     A
C408   C412    1.422   .     A
C409   C413    1.399   .     A
C409   C839    1.428   1_554 S
C409   C842    1.420   1_554 S
C410   C411    1.387   .     A
C410   C841    1.420   .     S
C410   C831    1.402   .     S
C411   C412    1.383   .     A
C412   O429    1.380   .     S
C413   H416    1.075   .     S
H419   C309    1.083   1_655 S
C420   C133    1.341   1_565 S
C420   O143    1.389   1_565 S
H422   C133    1.087   1_565 S
N423   H328    1.029   1_655 S
N423   N329    1.297   1_655 S
N426   O427    1.300   .     A
N426   N329    1.384   1_655 S
N426   O332    1.300   1_655 S
O429   H430    0.992   .     S
H432   O143    0.990   1_565 S
O433   Cu439   1.961   .     S
O433   C435    1.296   .     A
O434   C435    1.290   .     A
O434   Cu440   1.959   .     S
C435   C468    1.441   .     S
O436   Cu439   1.951   .     S
O436   C438    1.322   .     A
O437   Cu440   1.940   .     S
O437   C438    1.289   .     A
C438   C463    1.487   .     S
Cu439  Cu440   2.698   .     S
Cu439  O443    1.940   .     S
Cu439  N473    2.027   .     S
Cu439  O441    1.959   .     S
Cu440  N471    2.027   .     S
Cu440  O444    1.951   .     S
Cu440  O442    1.961   .     S
O441   C445    1.295   .     A
O442   C445    1.290   .     A
O443   C446    1.294   .     A
O444   C446    1.304   .     A
C445   C469    1.434   .     S
C446   C451    1.459   .     S
C447   C462    1.388   .     A
C447   H498    1.084   .     S
H448   C462    1.082   .     S
H449   C459    1.082   .     S
H450   C543    1.084   1_455 S
C451   C462    1.397   .     A
C451   C461    1.402   .     A
C452   H465    1.081   .     S
C452   C453    1.391   .     A
C452   C463    1.396   .     A
C453   C22     1.394   1_556 S
C453   H563    1.083   1_455 S
C454   H466    1.077   .     S
C455   C456    1.417   .     A
C455   C22     1.416   1_556 S
C455   C25     1.428   1_556 S
C456   C463    1.432   .     A
C456   C460    1.422   .     A
C457   C461    1.399   .     A
C458   C459    1.387   .     A
C458   C25     1.420   1_556 S
C458   C15     1.402   1_556 S
C459   C460    1.383   .     A
C460   O477    1.380   .     S
C461   H464    1.075   .     S
H467   C501    1.083   .     S
C468   C613    1.341   .     S
C468   O623    1.389   .     S
C469   C756    1.341   1_545 S
C469   H758    1.087   1_545 S
H470   C613    1.087   .     S
N471   H520    1.029   .     S
N471   N521    1.297   .     S
H472   N567    1.029   1_455 S
N473   N567    1.297   1_455 S
N473   N570    1.384   1_455 S
N474   O475    1.300   .     A
N474   N521    1.384   .     S
N474   O524    1.300   .     S
O476   N570    1.300   1_455 S
O477   H478    0.992   .     S
O479   C756    1.389   1_545 S
O479   H768    0.990   1_545 S
H480   O623    0.990   .     S
O481   Cu487   1.961   .     S
O481   C483    1.296   .     A
O482   C483    1.290   .     A
O482   Cu488   1.959   .     S
C483   C516    1.441   .     S
O484   Cu487   1.951   .     S
O484   C486    1.322   .     A
O485   Cu488   1.940   .     S
O485   C486    1.289   .     A
C486   C511    1.487   .     S
Cu487  Cu488   2.698   .     S
Cu487  O491    1.940   .     S
Cu487  N521    2.027   .     S
Cu487  O489    1.959   .     S
Cu488  N519    2.027   .     S
Cu488  O492    1.951   .     S
Cu488  O490    1.961   .     S
O489   C493    1.295   .     A
O490   C493    1.290   .     A
O491   C494    1.294   .     A
O492   C494    1.304   .     A
C493   C517    1.434   .     S
C494   C499    1.459   .     S
C495   C510    1.388   .     A
C495   H546    1.084   .     S
H496   C510    1.082   .     S
H497   C507    1.082   .     S
C499   C510    1.397   .     A
C499   C509    1.402   .     A
C500   H513    1.081   .     S
C500   C501    1.391   .     A
C500   C511    1.396   .     A
C501   C70     1.394   1_556 S
C502   H514    1.077   .     S
C503   C504    1.417   .     A
C503   C70     1.416   1_556 S
C503   C73     1.428   1_556 S
C504   C511    1.432   .     A
C504   C508    1.422   .     A
C505   C509    1.399   .     A
C506   C507    1.387   .     A
C506   C73     1.420   1_556 S
C506   C63     1.402   1_556 S
C507   C508    1.383   .     A
C508   O525    1.380   .     S
C509   H512    1.075   .     S
H515   C549    1.083   .     S
C516   C661    1.341   .     S
C516   O671    1.389   .     S
C517   C804    1.341   1_545 S
C517   H806    1.087   1_545 S
H518   C661    1.087   .     S
N519   H568    1.029   .     S
N519   N569    1.297   .     S
N522   O523    1.300   .     A
N522   N569    1.384   .     S
N522   O572    1.300   .     S
O525   H526    0.992   .     S
O527   C804    1.389   1_545 S
O527   H816    0.990   1_545 S
H528   O671    0.990   .     S
O529   Cu535   1.961   .     S
O529   C531    1.296   .     A
O530   C531    1.290   .     A
O530   Cu536   1.959   .     S
C531   C564    1.441   .     S
O532   Cu535   1.951   .     S
O532   C534    1.322   .     A
O533   Cu536   1.940   .     S
O533   C534    1.289   .     A
C534   C559    1.487   .     S
Cu535  Cu536   2.698   .     S
Cu535  O539    1.940   .     S
Cu535  N569    2.027   .     S
Cu535  O537    1.959   .     S
Cu536  N567    2.027   .     S
Cu536  O540    1.951   .     S
Cu536  O538    1.961   .     S
O537   C541    1.295   .     A
O538   C541    1.290   .     A
O539   C542    1.294   .     A
O540   C542    1.304   .     A
C541   C565    1.434   .     S
C542   C547    1.459   .     S
C543   C558    1.388   .     A
C543   H450    1.084   1_655 S
H544   C558    1.082   .     S
H545   C555    1.082   .     S
C547   C558    1.397   .     A
C547   C557    1.402   .     A
C548   H561    1.081   .     S
C548   C549    1.391   .     A
C548   C559    1.396   .     A
C549   C118    1.394   1_556 S
C550   H562    1.077   .     S
C551   C552    1.417   .     A
C551   C118    1.416   1_556 S
C551   C121    1.428   1_556 S
C552   C559    1.432   .     A
C552   C556    1.422   .     A
C553   C557    1.399   .     A
C554   C555    1.387   .     A
C554   C121    1.420   1_556 S
C554   C111    1.402   1_556 S
C555   C556    1.383   .     A
C556   O573    1.380   .     S
C557   H560    1.075   .     S
H563   C453    1.083   1_655 S
C564   C709    1.341   .     S
C564   O719    1.389   .     S
C565   C852    1.341   1_545 S
C565   H854    1.087   1_545 S
H566   C709    1.087   .     S
N567   H472    1.029   1_655 S
N567   N473    1.297   1_655 S
N570   O571    1.300   .     A
N570   N473    1.384   1_655 S
N570   O476    1.300   1_655 S
O573   H574    0.992   .     S
O575   C852    1.389   1_545 S
O575   H864    0.990   1_545 S
H576   O719    0.990   .     S
O577   Cu583   1.961   .     S
O577   C579    1.296   .     A
O578   C579    1.290   .     A
O578   Cu584   1.959   .     S
C579   C612    1.441   .     S
O580   Cu583   1.951   .     S
O580   C582    1.322   .     A
O581   Cu584   1.940   .     S
O581   C582    1.289   .     A
C582   C607    1.487   .     S
Cu583  Cu584   2.698   .     S
Cu583  O587    1.940   .     S
Cu583  N617    2.027   .     S
Cu583  O585    1.959   .     S
Cu584  N615    2.027   .     S
Cu584  O588    1.951   .     S
Cu584  O586    1.961   .     S
O585   C589    1.295   .     A
O586   C589    1.290   .     A
O587   C590    1.294   .     A
O588   C590    1.304   .     A
C589   C613    1.434   .     S
C590   C595    1.459   .     S
C591   C606    1.388   .     A
C591   H642    1.084   .     S
H592   C606    1.082   .     S
H593   C603    1.082   .     S
H594   C687    1.084   1_455 S
C595   C606    1.397   .     A
C595   C605    1.402   .     A
C596   H609    1.081   .     S
C596   C597    1.391   .     A
C596   C607    1.396   .     A
C597   C166    1.394   1_556 S
C597   H707    1.083   1_455 S
C598   H610    1.077   .     S
C599   C600    1.417   .     A
C599   C166    1.416   1_556 S
C599   C169    1.428   1_556 S
C600   C607    1.432   .     A
C600   C604    1.422   .     A
C601   C605    1.399   .     A
C602   C603    1.387   .     A
C602   C169    1.420   1_556 S
C602   C159    1.402   1_556 S
C603   C604    1.383   .     A
C604   O621    1.380   .     S
C605   H608    1.075   .     S
H611   C645    1.083   .     S
C612   C757    1.341   .     S
C612   O767    1.389   .     S
H614   C757    1.087   .     S
N615   H664    1.029   .     S
N615   N665    1.297   .     S
H616   N711    1.029   1_455 S
N617   N711    1.297   1_455 S
N617   N714    1.384   1_455 S
N618   O619    1.300   .     A
N618   N665    1.384   .     S
N618   O668    1.300   .     S
O620   N714    1.300   1_455 S
O621   H622    0.992   .     S
H624   O767    0.990   .     S
O625   Cu631   1.961   .     S
O625   C627    1.296   .     A
O626   C627    1.290   .     A
O626   Cu632   1.959   .     S
C627   C660    1.441   .     S
O628   Cu631   1.951   .     S
O628   C630    1.322   .     A
O629   Cu632   1.940   .     S
O629   C630    1.289   .     A
C630   C655    1.487   .     S
Cu631  Cu632   2.698   .     S
Cu631  O635    1.940   .     S
Cu631  N665    2.027   .     S
Cu631  O633    1.959   .     S
Cu632  N663    2.027   .     S
Cu632  O636    1.951   .     S
Cu632  O634    1.961   .     S
O633   C637    1.295   .     A
O634   C637    1.290   .     A
O635   C638    1.294   .     A
O636   C638    1.304   .     A
C637   C661    1.434   .     S
C638   C643    1.459   .     S
C639   C654    1.388   .     A
C639   H690    1.084   .     S
H640   C654    1.082   .     S
H641   C651    1.082   .     S
C643   C654    1.397   .     A
C643   C653    1.402   .     A
C644   H657    1.081   .     S
C644   C645    1.391   .     A
C644   C655    1.396   .     A
C645   C214    1.394   1_556 S
C646   H658    1.077   .     S
C647   C648    1.417   .     A
C647   C214    1.416   1_556 S
C647   C217    1.428   1_556 S
C648   C655    1.432   .     A
C648   C652    1.422   .     A
C649   C653    1.399   .     A
C650   C651    1.387   .     A
C650   C217    1.420   1_556 S
C650   C207    1.402   1_556 S
C651   C652    1.383   .     A
C652   O669    1.380   .     S
C653   H656    1.075   .     S
H659   C693    1.083   .     S
C660   C805    1.341   .     S
C660   O815    1.389   .     S
H662   C805    1.087   .     S
N663   H712    1.029   .     S
N663   N713    1.297   .     S
N666   O667    1.300   .     A
N666   N713    1.384   .     S
N666   O716    1.300   .     S
O669   H670    0.992   .     S
H672   O815    0.990   .     S
O673   Cu679   1.961   .     S
O673   C675    1.296   .     A
O674   C675    1.290   .     A
O674   Cu680   1.959   .     S
C675   C708    1.441   .     S
O676   Cu679   1.951   .     S
O676   C678    1.322   .     A
O677   Cu680   1.940   .     S
O677   C678    1.289   .     A
C678   C703    1.487   .     S
Cu679  Cu680   2.698   .     S
Cu679  O683    1.940   .     S
Cu679  N713    2.027   .     S
Cu679  O681    1.959   .     S
Cu680  N711    2.027   .     S
Cu680  O684    1.951   .     S
Cu680  O682    1.961   .     S
O681   C685    1.295   .     A
O682   C685    1.290   .     A
O683   C686    1.294   .     A
O684   C686    1.304   .     A
C685   C709    1.434   .     S
C686   C691    1.459   .     S
C687   C702    1.388   .     A
C687   H594    1.084   1_655 S
H688   C702    1.082   .     S
H689   C699    1.082   .     S
C691   C702    1.397   .     A
C691   C701    1.402   .     A
C692   H705    1.081   .     S
C692   C693    1.391   .     A
C692   C703    1.396   .     A
C693   C262    1.394   1_556 S
C694   H706    1.077   .     S
C695   C696    1.417   .     A
C695   C262    1.416   1_556 S
C695   C265    1.428   1_556 S
C696   C703    1.432   .     A
C696   C700    1.422   .     A
C697   C701    1.399   .     A
C698   C699    1.387   .     A
C698   C265    1.420   1_556 S
C698   C255    1.402   1_556 S
C699   C700    1.383   .     A
C700   O717    1.380   .     S
C701   H704    1.075   .     S
H707   C597    1.083   1_655 S
C708   C853    1.341   .     S
C708   O863    1.389   .     S
H710   C853    1.087   .     S
N711   H616    1.029   1_655 S
N711   N617    1.297   1_655 S
N714   O715    1.300   .     A
N714   N617    1.384   1_655 S
N714   O620    1.300   1_655 S
O717   H718    0.992   .     S
H720   O863    0.990   .     S
O721   Cu727   1.961   .     S
O721   C723    1.296   .     A
O722   C723    1.290   .     A
O722   Cu728   1.959   .     S
C723   C756    1.441   .     S
O724   Cu727   1.951   .     S
O724   C726    1.322   .     A
O725   Cu728   1.940   .     S
O725   C726    1.289   .     A
C726   C751    1.487   .     S
Cu727  Cu728   2.698   .     S
Cu727  O731    1.940   .     S
Cu727  N761    2.027   .     S
Cu727  O729    1.959   .     S
Cu728  N759    2.027   .     S
Cu728  O732    1.951   .     S
Cu728  O730    1.961   .     S
O729   C733    1.295   .     A
O730   C733    1.290   .     A
O731   C734    1.294   .     A
O732   C734    1.304   .     A
C733   C757    1.434   .     S
C734   C739    1.459   .     S
C735   C750    1.388   .     A
C735   H786    1.084   .     S
H736   C750    1.082   .     S
H737   C747    1.082   .     S
H738   C831    1.084   1_455 S
C739   C750    1.397   .     A
C739   C749    1.402   .     A
C740   H753    1.081   .     S
C740   C741    1.391   .     A
C740   C751    1.396   .     A
C741   C310    1.394   1_556 S
C741   H851    1.083   1_455 S
C742   H754    1.077   .     S
C743   C744    1.417   .     A
C743   C310    1.416   1_556 S
C743   C313    1.428   1_556 S
C744   C751    1.432   .     A
C744   C748    1.422   .     A
C745   C749    1.399   .     A
C746   C747    1.387   .     A
C746   C313    1.420   1_556 S
C746   C303    1.402   1_556 S
C747   C748    1.383   .     A
C748   O765    1.380   .     S
C749   H752    1.075   .     S
H755   C789    1.083   .     S
C756   C469    1.341   1_565 S
C756   O479    1.389   1_565 S
H758   C469    1.087   1_565 S
N759   H808    1.029   .     S
N759   N809    1.297   .     S
H760   N855    1.029   1_455 S
N761   N855    1.297   1_455 S
N761   N858    1.384   1_455 S
N762   O763    1.300   .     A
N762   N809    1.384   .     S
N762   O812    1.300   .     S
O764   N858    1.300   1_455 S
O765   H766    0.992   .     S
H768   O479    0.990   1_565 S
O769   Cu775   1.961   .     S
O769   C771    1.296   .     A
O770   C771    1.290   .     A
O770   Cu776   1.959   .     S
C771   C804    1.441   .     S
O772   Cu775   1.951   .     S
O772   C774    1.322   .     A
O773   Cu776   1.940   .     S
O773   C774    1.289   .     A
C774   C799    1.487   .     S
Cu775  Cu776   2.698   .     S
Cu775  O779    1.940   .     S
Cu775  N809    2.027   .     S
Cu775  O777    1.959   .     S
Cu776  N807    2.027   .     S
Cu776  O780    1.951   .     S
Cu776  O778    1.961   .     S
O777   C781    1.295   .     A
O778   C781    1.290   .     A
O779   C782    1.294   .     A
O780   C782    1.304   .     A
C781   C805    1.434   .     S
C782   C787    1.459   .     S
C783   C798    1.388   .     A
C783   H834    1.084   .     S
H784   C798    1.082   .     S
H785   C795    1.082   .     S
C787   C798    1.397   .     A
C787   C797    1.402   .     A
C788   H801    1.081   .     S
C788   C789    1.391   .     A
C788   C799    1.396   .     A
C789   C358    1.394   1_556 S
C790   H802    1.077   .     S
C791   C792    1.417   .     A
C791   C358    1.416   1_556 S
C791   C361    1.428   1_556 S
C792   C799    1.432   .     A
C792   C796    1.422   .     A
C793   C797    1.399   .     A
C794   C795    1.387   .     A
C794   C361    1.420   1_556 S
C794   C351    1.402   1_556 S
C795   C796    1.383   .     A
C796   O813    1.380   .     S
C797   H800    1.075   .     S
H803   C837    1.083   .     S
C804   C517    1.341   1_565 S
C804   O527    1.389   1_565 S
H806   C517    1.087   1_565 S
N807   H856    1.029   .     S
N807   N857    1.297   .     S
N810   O811    1.300   .     A
N810   N857    1.384   .     S
N810   O860    1.300   .     S
O813   H814    0.992   .     S
H816   O527    0.990   1_565 S
O817   Cu823   1.961   .     S
O817   C819    1.296   .     A
O818   C819    1.290   .     A
O818   Cu824   1.959   .     S
C819   C852    1.441   .     S
O820   Cu823   1.951   .     S
O820   C822    1.322   .     A
O821   Cu824   1.940   .     S
O821   C822    1.289   .     A
C822   C847    1.487   .     S
Cu823  Cu824   2.698   .     S
Cu823  O827    1.940   .     S
Cu823  N857    2.027   .     S
Cu823  O825    1.959   .     S
Cu824  N855    2.027   .     S
Cu824  O828    1.951   .     S
Cu824  O826    1.961   .     S
O825   C829    1.295   .     A
O826   C829    1.290   .     A
O827   C830    1.294   .     A
O828   C830    1.304   .     A
C829   C853    1.434   .     S
C830   C835    1.459   .     S
C831   C846    1.388   .     A
C831   H738    1.084   1_655 S
H832   C846    1.082   .     S
H833   C843    1.082   .     S
C835   C846    1.397   .     A
C835   C845    1.402   .     A
C836   H849    1.081   .     S
C836   C837    1.391   .     A
C836   C847    1.396   .     A
C837   C406    1.394   1_556 S
C838   H850    1.077   .     S
C839   C840    1.417   .     A
C839   C406    1.416   1_556 S
C839   C409    1.428   1_556 S
C840   C847    1.432   .     A
C840   C844    1.422   .     A
C841   C845    1.399   .     A
C842   C843    1.387   .     A
C842   C409    1.420   1_556 S
C842   C399    1.402   1_556 S
C843   C844    1.383   .     A
C844   O861    1.380   .     S
C845   H848    1.075   .     S
H851   C741    1.083   1_655 S
C852   C565    1.341   1_565 S
C852   O575    1.389   1_565 S
H854   C565    1.087   1_565 S
N855   H760    1.029   1_655 S
N855   N761    1.297   1_655 S
N858   O859    1.300   .     A
N858   N761    1.384   1_655 S
N858   O764    1.300   1_655 S
O861   H862    0.992   .     S
H864   O575    0.990   1_565 S
