data_str_m2_o1_o10_pcu_sym.163
_audit_creation_date              2020-01-03
_audit_creation_method            'Materials Studio'
_symmetry_space_group_name_H-M    'P1'
_symmetry_Int_Tables_number       1
_symmetry_cell_setting            triclinic
loop_
_symmetry_equiv_pos_as_xyz
  x,y,z
_cell_length_a                    26.1526
_cell_length_b                    32.8796
_cell_length_c                    28.5682
_cell_angle_alpha                 91.0994
_cell_angle_beta                  97.3981
_cell_angle_gamma                 91.0053
loop_
_atom_site_label
_atom_site_type_symbol
_atom_site_fract_x
_atom_site_fract_y
_atom_site_fract_z
_atom_site_U_iso_or_equiv
_atom_site_adp_type
_atom_site_occupancy
C1     C     0.16884   0.08741   0.16646   0.00000  Uiso   1.00
C2     C     0.16379   0.24585   0.16678   0.00000  Uiso   1.00
C3     C     0.06796   0.16664   0.15468   0.00000  Uiso   1.00
C4     C     0.26535   0.16778   0.17862   0.00000  Uiso   1.00
C5     C     0.01275   0.16565   0.14803   0.00000  Uiso   1.00
C6     C     0.32048   0.17061   0.18502   0.00000  Uiso   1.00
C7     C     0.15883   0.01993   0.12307   0.00000  Uiso   1.00
C8     C     0.17110   0.31329   0.20998   0.00000  Uiso   1.00
C9     C     0.15138   0.31115   0.12394   0.00000  Uiso   1.00
C10    C     0.17928   0.02194   0.20919   0.00000  Uiso   1.00
C11    C     0.16090   0.29058   0.16712   0.00000  Uiso   1.00
C12    C     0.17030   0.04260   0.16597   0.00000  Uiso   1.00
C13    C     0.13167   0.14360   0.02033   0.00000  Uiso   1.00
C14    C     0.20195   0.18959   0.31299   0.00000  Uiso   1.00
C15    C     0.13137   0.14316   0.30361   0.00000  Uiso   1.00
C16    C     0.20227   0.19015   0.03001   0.00000  Uiso   1.00
Cu17   Cu    0.16667   0.16667   0.21355   0.00000  Uiso   1.00
Cu18   Cu    0.16667   0.16666   0.11978   0.00000  Uiso   1.00
H19    H     0.32638   0.15995   0.11257   0.00000  Uiso   1.00
H20    H     0.00678   0.17706   0.22032   0.00000  Uiso   1.00
H21    H     0.10496   0.12477   0.03646   0.00000  Uiso   1.00
H22    H     0.22989   0.20672   0.29635   0.00000  Uiso   1.00
N23    N     0.16668   0.16668   0.28403   0.00000  Uiso   1.00
N24    N     0.16665   0.16666   0.04931   0.00000  Uiso   1.00
O25    O     0.16666   0.10655   0.20625   0.00000  Uiso   1.00
O26    O     0.16667   0.22678   0.12709   0.00000  Uiso   1.00
O27    O     0.16666   0.10654   0.12706   0.00000  Uiso   1.00
O28    O     0.16667   0.22679   0.20628   0.00000  Uiso   1.00
O29    O     0.09161   0.16667   0.19712   0.00000  Uiso   1.00
O30    O     0.24172   0.16666   0.13621   0.00000  Uiso   1.00
O31    O     0.09161   0.16666   0.11793   0.00000  Uiso   1.00
O32    O     0.24172   0.16667   0.21540   0.00000  Uiso   1.00
C33    C     0.15772   0.03847   0.07726   0.00000  Uiso   1.00
N34    N     0.15746   0.05261   0.04048   0.00000  Uiso   1.00
C35    C     0.16920   0.29487   0.25546   0.00000  Uiso   1.00
N36    N     0.16684   0.28063   0.29181   0.00000  Uiso   1.00
C37    C     0.13017   0.28988   0.08039   0.00000  Uiso   1.00
N38    N     0.11302   0.27300   0.04585   0.00000  Uiso   1.00
C39    C     0.20023   0.04288   0.25305   0.00000  Uiso   1.00
N40    N     0.21714   0.05944   0.28788   0.00000  Uiso   1.00
O41    O     0.10084   0.11559   0.27425   0.00000  Uiso   1.00
C42    C     0.04947   0.11213   0.28478   0.00000  Uiso   1.00
H43    H     0.02362   0.11366   0.25101   0.00000  Uiso   1.00
H44    H     0.03774   0.13705   0.30794   0.00000  Uiso   1.00
C45    C     0.03954   0.07051   0.30489   0.00000  Uiso   1.00
H46    H     0.06032   0.06776   0.00757   0.00000  Uiso   1.00
H47    H     0.33099   0.06626   0.30684   0.00000  Uiso   1.00
H48    H     0.05213   0.04612   0.28175   0.00000  Uiso   1.00
O49    O     0.23859   0.21172   0.06169   0.00000  Uiso   1.00
C50    C     0.26788   0.24209   0.04216   0.00000  Uiso   1.00
H51    H     0.27825   0.26602   0.06990   0.00000  Uiso   1.00
H52    H     0.24600   0.25819   0.01258   0.00000  Uiso   1.00
C53    C     0.31821   0.22507   0.02892   0.00000  Uiso   1.00
H54    H     0.31098   0.19753   0.00580   0.00000  Uiso   1.00
H55    H     0.00494   0.24847   0.01006   0.00000  Uiso   1.00
H56    H     0.01049   0.21693   0.06127   0.00000  Uiso   1.00
C57    C     0.50218   0.08741   0.16646   0.00000  Uiso   1.00
C58    C     0.49712   0.24585   0.16678   0.00000  Uiso   1.00
C59    C     0.40129   0.16664   0.15468   0.00000  Uiso   1.00
C60    C     0.59868   0.16778   0.17862   0.00000  Uiso   1.00
C61    C     0.34608   0.16565   0.14803   0.00000  Uiso   1.00
C62    C     0.65382   0.17061   0.18502   0.00000  Uiso   1.00
C63    C     0.49216   0.01993   0.12307   0.00000  Uiso   1.00
C64    C     0.50443   0.31329   0.20998   0.00000  Uiso   1.00
C65    C     0.48471   0.31115   0.12394   0.00000  Uiso   1.00
C66    C     0.51261   0.02194   0.20919   0.00000  Uiso   1.00
C67    C     0.49423   0.29058   0.16712   0.00000  Uiso   1.00
C68    C     0.50363   0.04260   0.16597   0.00000  Uiso   1.00
C69    C     0.46501   0.14360   0.02033   0.00000  Uiso   1.00
C70    C     0.53528   0.18959   0.31299   0.00000  Uiso   1.00
C71    C     0.46471   0.14316   0.30361   0.00000  Uiso   1.00
C72    C     0.53560   0.19015   0.03001   0.00000  Uiso   1.00
Cu73   Cu    0.50000   0.16667   0.21355   0.00000  Uiso   1.00
Cu74   Cu    0.50000   0.16666   0.11978   0.00000  Uiso   1.00
H75    H     0.65971   0.15995   0.11257   0.00000  Uiso   1.00
H76    H     0.34011   0.17706   0.22032   0.00000  Uiso   1.00
H77    H     0.43829   0.12477   0.03646   0.00000  Uiso   1.00
H78    H     0.56323   0.20672   0.29635   0.00000  Uiso   1.00
N79    N     0.50001   0.16668   0.28403   0.00000  Uiso   1.00
N80    N     0.49999   0.16666   0.04931   0.00000  Uiso   1.00
O81    O     0.50000   0.10655   0.20625   0.00000  Uiso   1.00
O82    O     0.50000   0.22678   0.12709   0.00000  Uiso   1.00
O83    O     0.50000   0.10654   0.12706   0.00000  Uiso   1.00
O84    O     0.50000   0.22679   0.20628   0.00000  Uiso   1.00
O85    O     0.42495   0.16667   0.19712   0.00000  Uiso   1.00
O86    O     0.57505   0.16666   0.13621   0.00000  Uiso   1.00
O87    O     0.42494   0.16666   0.11793   0.00000  Uiso   1.00
O88    O     0.57506   0.16667   0.21540   0.00000  Uiso   1.00
C89    C     0.49105   0.03847   0.07726   0.00000  Uiso   1.00
N90    N     0.49079   0.05261   0.04048   0.00000  Uiso   1.00
C91    C     0.50253   0.29487   0.25546   0.00000  Uiso   1.00
N92    N     0.50018   0.28063   0.29181   0.00000  Uiso   1.00
C93    C     0.46351   0.28988   0.08039   0.00000  Uiso   1.00
N94    N     0.44635   0.27300   0.04585   0.00000  Uiso   1.00
C95    C     0.53356   0.04288   0.25305   0.00000  Uiso   1.00
N96    N     0.55048   0.05944   0.28788   0.00000  Uiso   1.00
O97    O     0.43418   0.11559   0.27425   0.00000  Uiso   1.00
C98    C     0.38280   0.11213   0.28478   0.00000  Uiso   1.00
H99    H     0.35695   0.11366   0.25101   0.00000  Uiso   1.00
H100   H     0.37107   0.13705   0.30794   0.00000  Uiso   1.00
C101   C     0.37287   0.07051   0.30489   0.00000  Uiso   1.00
H102   H     0.39366   0.06776   0.00757   0.00000  Uiso   1.00
H103   H     0.66433   0.06626   0.30684   0.00000  Uiso   1.00
H104   H     0.38546   0.04612   0.28175   0.00000  Uiso   1.00
O105   O     0.57193   0.21172   0.06169   0.00000  Uiso   1.00
C106   C     0.60121   0.24209   0.04216   0.00000  Uiso   1.00
H107   H     0.61158   0.26602   0.06990   0.00000  Uiso   1.00
H108   H     0.57933   0.25819   0.01258   0.00000  Uiso   1.00
C109   C     0.65154   0.22507   0.02892   0.00000  Uiso   1.00
H110   H     0.64431   0.19753   0.00580   0.00000  Uiso   1.00
H111   H     0.33827   0.24847   0.01006   0.00000  Uiso   1.00
H112   H     0.34382   0.21693   0.06127   0.00000  Uiso   1.00
C113   C     0.83551   0.08741   0.16646   0.00000  Uiso   1.00
C114   C     0.83046   0.24585   0.16678   0.00000  Uiso   1.00
C115   C     0.73462   0.16664   0.15468   0.00000  Uiso   1.00
C116   C     0.93202   0.16778   0.17862   0.00000  Uiso   1.00
C117   C     0.67941   0.16565   0.14803   0.00000  Uiso   1.00
C118   C     0.98715   0.17061   0.18502   0.00000  Uiso   1.00
C119   C     0.82550   0.01993   0.12307   0.00000  Uiso   1.00
C120   C     0.83776   0.31329   0.20998   0.00000  Uiso   1.00
C121   C     0.81804   0.31115   0.12394   0.00000  Uiso   1.00
C122   C     0.84595   0.02194   0.20919   0.00000  Uiso   1.00
C123   C     0.82757   0.29058   0.16712   0.00000  Uiso   1.00
C124   C     0.83697   0.04260   0.16597   0.00000  Uiso   1.00
C125   C     0.79834   0.14360   0.02033   0.00000  Uiso   1.00
C126   C     0.86862   0.18959   0.31299   0.00000  Uiso   1.00
C127   C     0.79804   0.14316   0.30361   0.00000  Uiso   1.00
C128   C     0.86893   0.19015   0.03001   0.00000  Uiso   1.00
Cu129  Cu    0.83333   0.16667   0.21355   0.00000  Uiso   1.00
Cu130  Cu    0.83333   0.16666   0.11978   0.00000  Uiso   1.00
H131   H     0.99305   0.15995   0.11257   0.00000  Uiso   1.00
H132   H     0.67345   0.17706   0.22032   0.00000  Uiso   1.00
H133   H     0.77163   0.12477   0.03646   0.00000  Uiso   1.00
H134   H     0.89656   0.20672   0.29635   0.00000  Uiso   1.00
N135   N     0.83335   0.16668   0.28403   0.00000  Uiso   1.00
N136   N     0.83332   0.16666   0.04931   0.00000  Uiso   1.00
O137   O     0.83333   0.10655   0.20625   0.00000  Uiso   1.00
O138   O     0.83334   0.22678   0.12709   0.00000  Uiso   1.00
O139   O     0.83333   0.10654   0.12706   0.00000  Uiso   1.00
O140   O     0.83334   0.22679   0.20628   0.00000  Uiso   1.00
O141   O     0.75828   0.16667   0.19712   0.00000  Uiso   1.00
O142   O     0.90839   0.16666   0.13621   0.00000  Uiso   1.00
O143   O     0.75828   0.16666   0.11793   0.00000  Uiso   1.00
O144   O     0.90839   0.16667   0.21540   0.00000  Uiso   1.00
C145   C     0.82438   0.03847   0.07726   0.00000  Uiso   1.00
N146   N     0.82413   0.05261   0.04048   0.00000  Uiso   1.00
C147   C     0.83587   0.29487   0.25546   0.00000  Uiso   1.00
N148   N     0.83351   0.28063   0.29181   0.00000  Uiso   1.00
C149   C     0.79684   0.28988   0.08039   0.00000  Uiso   1.00
N150   N     0.77968   0.27300   0.04585   0.00000  Uiso   1.00
C151   C     0.86690   0.04288   0.25305   0.00000  Uiso   1.00
N152   N     0.88381   0.05944   0.28788   0.00000  Uiso   1.00
O153   O     0.76751   0.11559   0.27425   0.00000  Uiso   1.00
C154   C     0.71613   0.11213   0.28478   0.00000  Uiso   1.00
H155   H     0.69028   0.11366   0.25101   0.00000  Uiso   1.00
H156   H     0.70441   0.13705   0.30794   0.00000  Uiso   1.00
C157   C     0.70620   0.07051   0.30489   0.00000  Uiso   1.00
H158   H     0.72699   0.06776   0.00757   0.00000  Uiso   1.00
H159   H     0.99766   0.06626   0.30684   0.00000  Uiso   1.00
H160   H     0.71879   0.04612   0.28175   0.00000  Uiso   1.00
O161   O     0.90526   0.21172   0.06169   0.00000  Uiso   1.00
C162   C     0.93455   0.24209   0.04216   0.00000  Uiso   1.00
H163   H     0.94492   0.26602   0.06990   0.00000  Uiso   1.00
H164   H     0.91267   0.25819   0.01258   0.00000  Uiso   1.00
C165   C     0.98487   0.22507   0.02892   0.00000  Uiso   1.00
H166   H     0.97765   0.19753   0.00580   0.00000  Uiso   1.00
H167   H     0.67161   0.24847   0.01006   0.00000  Uiso   1.00
H168   H     0.67715   0.21693   0.06127   0.00000  Uiso   1.00
C169   C     0.16884   0.42074   0.16646   0.00000  Uiso   1.00
C170   C     0.16379   0.57918   0.16678   0.00000  Uiso   1.00
C171   C     0.06796   0.49997   0.15468   0.00000  Uiso   1.00
C172   C     0.26535   0.50111   0.17862   0.00000  Uiso   1.00
C173   C     0.01275   0.49898   0.14803   0.00000  Uiso   1.00
C174   C     0.32048   0.50394   0.18502   0.00000  Uiso   1.00
C175   C     0.15883   0.35326   0.12307   0.00000  Uiso   1.00
C176   C     0.17110   0.64662   0.20998   0.00000  Uiso   1.00
C177   C     0.15138   0.64449   0.12394   0.00000  Uiso   1.00
C178   C     0.17928   0.35528   0.20919   0.00000  Uiso   1.00
C179   C     0.16090   0.62391   0.16712   0.00000  Uiso   1.00
C180   C     0.17030   0.37594   0.16597   0.00000  Uiso   1.00
C181   C     0.13167   0.47693   0.02033   0.00000  Uiso   1.00
C182   C     0.20195   0.52293   0.31299   0.00000  Uiso   1.00
C183   C     0.13137   0.47649   0.30361   0.00000  Uiso   1.00
C184   C     0.20227   0.52348   0.03001   0.00000  Uiso   1.00
Cu185  Cu    0.16667   0.50001   0.21355   0.00000  Uiso   1.00
Cu186  Cu    0.16667   0.49999   0.11978   0.00000  Uiso   1.00
H187   H     0.32638   0.49328   0.11257   0.00000  Uiso   1.00
H188   H     0.00678   0.51039   0.22032   0.00000  Uiso   1.00
H189   H     0.10496   0.45810   0.03646   0.00000  Uiso   1.00
H190   H     0.22989   0.54005   0.29635   0.00000  Uiso   1.00
N191   N     0.16668   0.50001   0.28403   0.00000  Uiso   1.00
N192   N     0.16665   0.49999   0.04931   0.00000  Uiso   1.00
O193   O     0.16666   0.43989   0.20625   0.00000  Uiso   1.00
O194   O     0.16667   0.56011   0.12709   0.00000  Uiso   1.00
O195   O     0.16666   0.43988   0.12706   0.00000  Uiso   1.00
O196   O     0.16667   0.56012   0.20628   0.00000  Uiso   1.00
O197   O     0.09161   0.50000   0.19712   0.00000  Uiso   1.00
O198   O     0.24172   0.50000   0.13621   0.00000  Uiso   1.00
O199   O     0.09161   0.49999   0.11793   0.00000  Uiso   1.00
O200   O     0.24172   0.50001   0.21540   0.00000  Uiso   1.00
C201   C     0.15772   0.37181   0.07726   0.00000  Uiso   1.00
N202   N     0.15746   0.38594   0.04048   0.00000  Uiso   1.00
C203   C     0.16920   0.62820   0.25546   0.00000  Uiso   1.00
N204   N     0.16684   0.61396   0.29181   0.00000  Uiso   1.00
C205   C     0.13017   0.62321   0.08039   0.00000  Uiso   1.00
N206   N     0.11302   0.60634   0.04585   0.00000  Uiso   1.00
C207   C     0.20023   0.37621   0.25305   0.00000  Uiso   1.00
N208   N     0.21714   0.39278   0.28788   0.00000  Uiso   1.00
O209   O     0.10084   0.44893   0.27425   0.00000  Uiso   1.00
C210   C     0.04947   0.44547   0.28478   0.00000  Uiso   1.00
H211   H     0.02362   0.44700   0.25101   0.00000  Uiso   1.00
H212   H     0.03774   0.47038   0.30794   0.00000  Uiso   1.00
C213   C     0.03954   0.40385   0.30489   0.00000  Uiso   1.00
H214   H     0.06032   0.40109   0.00757   0.00000  Uiso   1.00
H215   H     0.33099   0.39960   0.30684   0.00000  Uiso   1.00
H216   H     0.05213   0.37945   0.28175   0.00000  Uiso   1.00
O217   O     0.23859   0.54505   0.06169   0.00000  Uiso   1.00
C218   C     0.26788   0.57543   0.04216   0.00000  Uiso   1.00
H219   H     0.27825   0.59935   0.06990   0.00000  Uiso   1.00
H220   H     0.24600   0.59153   0.01258   0.00000  Uiso   1.00
C221   C     0.31821   0.55840   0.02892   0.00000  Uiso   1.00
H222   H     0.31098   0.53087   0.00580   0.00000  Uiso   1.00
H223   H     0.00494   0.58180   0.01006   0.00000  Uiso   1.00
H224   H     0.01049   0.55026   0.06127   0.00000  Uiso   1.00
C225   C     0.50218   0.42074   0.16646   0.00000  Uiso   1.00
C226   C     0.49712   0.57918   0.16678   0.00000  Uiso   1.00
C227   C     0.40129   0.49997   0.15468   0.00000  Uiso   1.00
C228   C     0.59868   0.50111   0.17862   0.00000  Uiso   1.00
C229   C     0.34608   0.49898   0.14803   0.00000  Uiso   1.00
C230   C     0.65382   0.50394   0.18502   0.00000  Uiso   1.00
C231   C     0.49216   0.35326   0.12307   0.00000  Uiso   1.00
C232   C     0.50443   0.64662   0.20998   0.00000  Uiso   1.00
C233   C     0.48471   0.64449   0.12394   0.00000  Uiso   1.00
C234   C     0.51261   0.35528   0.20919   0.00000  Uiso   1.00
C235   C     0.49423   0.62391   0.16712   0.00000  Uiso   1.00
C236   C     0.50363   0.37594   0.16597   0.00000  Uiso   1.00
C237   C     0.46501   0.47693   0.02033   0.00000  Uiso   1.00
C238   C     0.53528   0.52293   0.31299   0.00000  Uiso   1.00
C239   C     0.46471   0.47649   0.30361   0.00000  Uiso   1.00
C240   C     0.53560   0.52348   0.03001   0.00000  Uiso   1.00
Cu241  Cu    0.50000   0.50001   0.21355   0.00000  Uiso   1.00
Cu242  Cu    0.50000   0.49999   0.11978   0.00000  Uiso   1.00
H243   H     0.65971   0.49328   0.11257   0.00000  Uiso   1.00
H244   H     0.34011   0.51039   0.22032   0.00000  Uiso   1.00
H245   H     0.43829   0.45810   0.03646   0.00000  Uiso   1.00
H246   H     0.56323   0.54005   0.29635   0.00000  Uiso   1.00
N247   N     0.50001   0.50001   0.28403   0.00000  Uiso   1.00
N248   N     0.49999   0.49999   0.04931   0.00000  Uiso   1.00
O249   O     0.50000   0.43989   0.20625   0.00000  Uiso   1.00
O250   O     0.50000   0.56011   0.12709   0.00000  Uiso   1.00
O251   O     0.50000   0.43988   0.12706   0.00000  Uiso   1.00
O252   O     0.50000   0.56012   0.20628   0.00000  Uiso   1.00
O253   O     0.42495   0.50000   0.19712   0.00000  Uiso   1.00
O254   O     0.57505   0.50000   0.13621   0.00000  Uiso   1.00
O255   O     0.42494   0.49999   0.11793   0.00000  Uiso   1.00
O256   O     0.57506   0.50001   0.21540   0.00000  Uiso   1.00
C257   C     0.49105   0.37181   0.07726   0.00000  Uiso   1.00
N258   N     0.49079   0.38594   0.04048   0.00000  Uiso   1.00
C259   C     0.50253   0.62820   0.25546   0.00000  Uiso   1.00
N260   N     0.50018   0.61396   0.29181   0.00000  Uiso   1.00
C261   C     0.46351   0.62321   0.08039   0.00000  Uiso   1.00
N262   N     0.44635   0.60634   0.04585   0.00000  Uiso   1.00
C263   C     0.53356   0.37621   0.25305   0.00000  Uiso   1.00
N264   N     0.55048   0.39278   0.28788   0.00000  Uiso   1.00
O265   O     0.43418   0.44893   0.27425   0.00000  Uiso   1.00
C266   C     0.38280   0.44547   0.28478   0.00000  Uiso   1.00
H267   H     0.35695   0.44700   0.25101   0.00000  Uiso   1.00
H268   H     0.37107   0.47038   0.30794   0.00000  Uiso   1.00
C269   C     0.37287   0.40385   0.30489   0.00000  Uiso   1.00
H270   H     0.39366   0.40109   0.00757   0.00000  Uiso   1.00
H271   H     0.66433   0.39960   0.30684   0.00000  Uiso   1.00
H272   H     0.38546   0.37945   0.28175   0.00000  Uiso   1.00
O273   O     0.57193   0.54505   0.06169   0.00000  Uiso   1.00
C274   C     0.60121   0.57543   0.04216   0.00000  Uiso   1.00
H275   H     0.61158   0.59935   0.06990   0.00000  Uiso   1.00
H276   H     0.57933   0.59153   0.01258   0.00000  Uiso   1.00
C277   C     0.65154   0.55840   0.02892   0.00000  Uiso   1.00
H278   H     0.64431   0.53087   0.00580   0.00000  Uiso   1.00
H279   H     0.33827   0.58180   0.01006   0.00000  Uiso   1.00
H280   H     0.34382   0.55026   0.06127   0.00000  Uiso   1.00
C281   C     0.83551   0.42074   0.16646   0.00000  Uiso   1.00
C282   C     0.83046   0.57918   0.16678   0.00000  Uiso   1.00
C283   C     0.73462   0.49997   0.15468   0.00000  Uiso   1.00
C284   C     0.93202   0.50111   0.17862   0.00000  Uiso   1.00
C285   C     0.67941   0.49898   0.14803   0.00000  Uiso   1.00
C286   C     0.98715   0.50394   0.18502   0.00000  Uiso   1.00
C287   C     0.82550   0.35326   0.12307   0.00000  Uiso   1.00
C288   C     0.83776   0.64662   0.20998   0.00000  Uiso   1.00
C289   C     0.81804   0.64449   0.12394   0.00000  Uiso   1.00
C290   C     0.84595   0.35528   0.20919   0.00000  Uiso   1.00
C291   C     0.82757   0.62391   0.16712   0.00000  Uiso   1.00
C292   C     0.83697   0.37594   0.16597   0.00000  Uiso   1.00
C293   C     0.79834   0.47693   0.02033   0.00000  Uiso   1.00
C294   C     0.86862   0.52293   0.31299   0.00000  Uiso   1.00
C295   C     0.79804   0.47649   0.30361   0.00000  Uiso   1.00
C296   C     0.86893   0.52348   0.03001   0.00000  Uiso   1.00
Cu297  Cu    0.83333   0.50001   0.21355   0.00000  Uiso   1.00
Cu298  Cu    0.83333   0.49999   0.11978   0.00000  Uiso   1.00
H299   H     0.99305   0.49328   0.11257   0.00000  Uiso   1.00
H300   H     0.67345   0.51039   0.22032   0.00000  Uiso   1.00
H301   H     0.77163   0.45810   0.03646   0.00000  Uiso   1.00
H302   H     0.89656   0.54005   0.29635   0.00000  Uiso   1.00
N303   N     0.83335   0.50001   0.28403   0.00000  Uiso   1.00
N304   N     0.83332   0.49999   0.04931   0.00000  Uiso   1.00
O305   O     0.83333   0.43989   0.20625   0.00000  Uiso   1.00
O306   O     0.83334   0.56011   0.12709   0.00000  Uiso   1.00
O307   O     0.83333   0.43988   0.12706   0.00000  Uiso   1.00
O308   O     0.83334   0.56012   0.20628   0.00000  Uiso   1.00
O309   O     0.75828   0.50000   0.19712   0.00000  Uiso   1.00
O310   O     0.90839   0.50000   0.13621   0.00000  Uiso   1.00
O311   O     0.75828   0.49999   0.11793   0.00000  Uiso   1.00
O312   O     0.90839   0.50001   0.21540   0.00000  Uiso   1.00
C313   C     0.82438   0.37181   0.07726   0.00000  Uiso   1.00
N314   N     0.82413   0.38594   0.04048   0.00000  Uiso   1.00
C315   C     0.83587   0.62820   0.25546   0.00000  Uiso   1.00
N316   N     0.83351   0.61396   0.29181   0.00000  Uiso   1.00
C317   C     0.79684   0.62321   0.08039   0.00000  Uiso   1.00
N318   N     0.77968   0.60634   0.04585   0.00000  Uiso   1.00
C319   C     0.86690   0.37621   0.25305   0.00000  Uiso   1.00
N320   N     0.88381   0.39278   0.28788   0.00000  Uiso   1.00
O321   O     0.76751   0.44893   0.27425   0.00000  Uiso   1.00
C322   C     0.71613   0.44547   0.28478   0.00000  Uiso   1.00
H323   H     0.69028   0.44700   0.25101   0.00000  Uiso   1.00
H324   H     0.70441   0.47038   0.30794   0.00000  Uiso   1.00
C325   C     0.70620   0.40385   0.30489   0.00000  Uiso   1.00
H326   H     0.72699   0.40109   0.00757   0.00000  Uiso   1.00
H327   H     0.99766   0.39960   0.30684   0.00000  Uiso   1.00
H328   H     0.71879   0.37945   0.28175   0.00000  Uiso   1.00
O329   O     0.90526   0.54505   0.06169   0.00000  Uiso   1.00
C330   C     0.93455   0.57543   0.04216   0.00000  Uiso   1.00
H331   H     0.94492   0.59935   0.06990   0.00000  Uiso   1.00
H332   H     0.91267   0.59153   0.01258   0.00000  Uiso   1.00
C333   C     0.98487   0.55840   0.02892   0.00000  Uiso   1.00
H334   H     0.97765   0.53087   0.00580   0.00000  Uiso   1.00
H335   H     0.67161   0.58180   0.01006   0.00000  Uiso   1.00
H336   H     0.67715   0.55026   0.06127   0.00000  Uiso   1.00
C337   C     0.16884   0.75408   0.16646   0.00000  Uiso   1.00
C338   C     0.16379   0.91252   0.16678   0.00000  Uiso   1.00
C339   C     0.06796   0.83331   0.15468   0.00000  Uiso   1.00
C340   C     0.26535   0.83444   0.17862   0.00000  Uiso   1.00
C341   C     0.01275   0.83232   0.14803   0.00000  Uiso   1.00
C342   C     0.32048   0.83728   0.18502   0.00000  Uiso   1.00
C343   C     0.15883   0.68659   0.12307   0.00000  Uiso   1.00
C344   C     0.17110   0.97996   0.20998   0.00000  Uiso   1.00
C345   C     0.15138   0.97782   0.12394   0.00000  Uiso   1.00
C346   C     0.17928   0.68861   0.20919   0.00000  Uiso   1.00
C347   C     0.16090   0.95725   0.16712   0.00000  Uiso   1.00
C348   C     0.17030   0.70927   0.16597   0.00000  Uiso   1.00
C349   C     0.13167   0.81027   0.02033   0.00000  Uiso   1.00
C350   C     0.20195   0.85626   0.31299   0.00000  Uiso   1.00
C351   C     0.13137   0.80983   0.30361   0.00000  Uiso   1.00
C352   C     0.20227   0.85681   0.03001   0.00000  Uiso   1.00
Cu353  Cu    0.16667   0.83334   0.21355   0.00000  Uiso   1.00
Cu354  Cu    0.16667   0.83333   0.11978   0.00000  Uiso   1.00
H355   H     0.32638   0.82662   0.11257   0.00000  Uiso   1.00
H356   H     0.00678   0.84372   0.22032   0.00000  Uiso   1.00
H357   H     0.10496   0.79144   0.03646   0.00000  Uiso   1.00
H358   H     0.22989   0.87338   0.29635   0.00000  Uiso   1.00
N359   N     0.16668   0.83334   0.28403   0.00000  Uiso   1.00
N360   N     0.16665   0.83332   0.04931   0.00000  Uiso   1.00
O361   O     0.16666   0.77322   0.20625   0.00000  Uiso   1.00
O362   O     0.16667   0.89345   0.12709   0.00000  Uiso   1.00
O363   O     0.16666   0.77321   0.12706   0.00000  Uiso   1.00
O364   O     0.16667   0.89346   0.20628   0.00000  Uiso   1.00
O365   O     0.09161   0.83334   0.19712   0.00000  Uiso   1.00
O366   O     0.24172   0.83333   0.13621   0.00000  Uiso   1.00
O367   O     0.09161   0.83333   0.11793   0.00000  Uiso   1.00
O368   O     0.24172   0.83334   0.21540   0.00000  Uiso   1.00
C369   C     0.15772   0.70514   0.07726   0.00000  Uiso   1.00
N370   N     0.15746   0.71927   0.04048   0.00000  Uiso   1.00
C371   C     0.16920   0.96154   0.25546   0.00000  Uiso   1.00
N372   N     0.16684   0.94729   0.29181   0.00000  Uiso   1.00
C373   C     0.13017   0.95655   0.08039   0.00000  Uiso   1.00
N374   N     0.11302   0.93967   0.04585   0.00000  Uiso   1.00
C375   C     0.20023   0.70955   0.25305   0.00000  Uiso   1.00
N376   N     0.21714   0.72611   0.28788   0.00000  Uiso   1.00
O377   O     0.10084   0.78226   0.27425   0.00000  Uiso   1.00
C378   C     0.04947   0.77880   0.28478   0.00000  Uiso   1.00
H379   H     0.02362   0.78033   0.25101   0.00000  Uiso   1.00
H380   H     0.03774   0.80371   0.30794   0.00000  Uiso   1.00
C381   C     0.03954   0.73718   0.30489   0.00000  Uiso   1.00
H382   H     0.06032   0.73442   0.00757   0.00000  Uiso   1.00
H383   H     0.33099   0.73293   0.30684   0.00000  Uiso   1.00
H384   H     0.05213   0.71278   0.28175   0.00000  Uiso   1.00
O385   O     0.23859   0.87838   0.06169   0.00000  Uiso   1.00
C386   C     0.26788   0.90876   0.04216   0.00000  Uiso   1.00
H387   H     0.27825   0.93268   0.06990   0.00000  Uiso   1.00
H388   H     0.24600   0.92486   0.01258   0.00000  Uiso   1.00
C389   C     0.31821   0.89173   0.02892   0.00000  Uiso   1.00
H390   H     0.31098   0.86420   0.00580   0.00000  Uiso   1.00
H391   H     0.00494   0.91513   0.01006   0.00000  Uiso   1.00
H392   H     0.01049   0.88360   0.06127   0.00000  Uiso   1.00
C393   C     0.50218   0.75408   0.16646   0.00000  Uiso   1.00
C394   C     0.49712   0.91252   0.16678   0.00000  Uiso   1.00
C395   C     0.40129   0.83331   0.15468   0.00000  Uiso   1.00
C396   C     0.59868   0.83444   0.17862   0.00000  Uiso   1.00
C397   C     0.34608   0.83232   0.14803   0.00000  Uiso   1.00
C398   C     0.65382   0.83728   0.18502   0.00000  Uiso   1.00
C399   C     0.49216   0.68659   0.12307   0.00000  Uiso   1.00
C400   C     0.50443   0.97996   0.20998   0.00000  Uiso   1.00
C401   C     0.48471   0.97782   0.12394   0.00000  Uiso   1.00
C402   C     0.51261   0.68861   0.20919   0.00000  Uiso   1.00
C403   C     0.49423   0.95725   0.16712   0.00000  Uiso   1.00
C404   C     0.50363   0.70927   0.16597   0.00000  Uiso   1.00
C405   C     0.46501   0.81027   0.02033   0.00000  Uiso   1.00
C406   C     0.53528   0.85626   0.31299   0.00000  Uiso   1.00
C407   C     0.46471   0.80983   0.30361   0.00000  Uiso   1.00
C408   C     0.53560   0.85681   0.03001   0.00000  Uiso   1.00
Cu409  Cu    0.50000   0.83334   0.21355   0.00000  Uiso   1.00
Cu410  Cu    0.50000   0.83333   0.11978   0.00000  Uiso   1.00
H411   H     0.65971   0.82662   0.11257   0.00000  Uiso   1.00
H412   H     0.34011   0.84372   0.22032   0.00000  Uiso   1.00
H413   H     0.43829   0.79144   0.03646   0.00000  Uiso   1.00
H414   H     0.56323   0.87338   0.29635   0.00000  Uiso   1.00
N415   N     0.50001   0.83334   0.28403   0.00000  Uiso   1.00
N416   N     0.49999   0.83332   0.04931   0.00000  Uiso   1.00
O417   O     0.50000   0.77322   0.20625   0.00000  Uiso   1.00
O418   O     0.50000   0.89345   0.12709   0.00000  Uiso   1.00
O419   O     0.50000   0.77321   0.12706   0.00000  Uiso   1.00
O420   O     0.50000   0.89346   0.20628   0.00000  Uiso   1.00
O421   O     0.42495   0.83334   0.19712   0.00000  Uiso   1.00
O422   O     0.57505   0.83333   0.13621   0.00000  Uiso   1.00
O423   O     0.42494   0.83333   0.11793   0.00000  Uiso   1.00
O424   O     0.57506   0.83334   0.21540   0.00000  Uiso   1.00
C425   C     0.49105   0.70514   0.07726   0.00000  Uiso   1.00
N426   N     0.49079   0.71927   0.04048   0.00000  Uiso   1.00
C427   C     0.50253   0.96154   0.25546   0.00000  Uiso   1.00
N428   N     0.50018   0.94729   0.29181   0.00000  Uiso   1.00
C429   C     0.46351   0.95655   0.08039   0.00000  Uiso   1.00
N430   N     0.44635   0.93967   0.04585   0.00000  Uiso   1.00
C431   C     0.53356   0.70955   0.25305   0.00000  Uiso   1.00
N432   N     0.55048   0.72611   0.28788   0.00000  Uiso   1.00
O433   O     0.43418   0.78226   0.27425   0.00000  Uiso   1.00
C434   C     0.38280   0.77880   0.28478   0.00000  Uiso   1.00
H435   H     0.35695   0.78033   0.25101   0.00000  Uiso   1.00
H436   H     0.37107   0.80371   0.30794   0.00000  Uiso   1.00
C437   C     0.37287   0.73718   0.30489   0.00000  Uiso   1.00
H438   H     0.39366   0.73442   0.00757   0.00000  Uiso   1.00
H439   H     0.66433   0.73293   0.30684   0.00000  Uiso   1.00
H440   H     0.38546   0.71278   0.28175   0.00000  Uiso   1.00
O441   O     0.57193   0.87838   0.06169   0.00000  Uiso   1.00
C442   C     0.60121   0.90876   0.04216   0.00000  Uiso   1.00
H443   H     0.61158   0.93268   0.06990   0.00000  Uiso   1.00
H444   H     0.57933   0.92486   0.01258   0.00000  Uiso   1.00
C445   C     0.65154   0.89173   0.02892   0.00000  Uiso   1.00
H446   H     0.64431   0.86420   0.00580   0.00000  Uiso   1.00
H447   H     0.33827   0.91513   0.01006   0.00000  Uiso   1.00
H448   H     0.34382   0.88360   0.06127   0.00000  Uiso   1.00
C449   C     0.83551   0.75408   0.16646   0.00000  Uiso   1.00
C450   C     0.83046   0.91252   0.16678   0.00000  Uiso   1.00
C451   C     0.73462   0.83331   0.15468   0.00000  Uiso   1.00
C452   C     0.93202   0.83444   0.17862   0.00000  Uiso   1.00
C453   C     0.67941   0.83232   0.14803   0.00000  Uiso   1.00
C454   C     0.98715   0.83728   0.18502   0.00000  Uiso   1.00
C455   C     0.82550   0.68659   0.12307   0.00000  Uiso   1.00
C456   C     0.83776   0.97996   0.20998   0.00000  Uiso   1.00
C457   C     0.81804   0.97782   0.12394   0.00000  Uiso   1.00
C458   C     0.84595   0.68861   0.20919   0.00000  Uiso   1.00
C459   C     0.82757   0.95725   0.16712   0.00000  Uiso   1.00
C460   C     0.83697   0.70927   0.16597   0.00000  Uiso   1.00
C461   C     0.79834   0.81027   0.02033   0.00000  Uiso   1.00
C462   C     0.86862   0.85626   0.31299   0.00000  Uiso   1.00
C463   C     0.79804   0.80983   0.30361   0.00000  Uiso   1.00
C464   C     0.86893   0.85681   0.03001   0.00000  Uiso   1.00
Cu465  Cu    0.83333   0.83334   0.21355   0.00000  Uiso   1.00
Cu466  Cu    0.83333   0.83333   0.11978   0.00000  Uiso   1.00
H467   H     0.99305   0.82662   0.11257   0.00000  Uiso   1.00
H468   H     0.67345   0.84372   0.22032   0.00000  Uiso   1.00
H469   H     0.77163   0.79144   0.03646   0.00000  Uiso   1.00
H470   H     0.89656   0.87338   0.29635   0.00000  Uiso   1.00
N471   N     0.83335   0.83334   0.28403   0.00000  Uiso   1.00
N472   N     0.83332   0.83332   0.04931   0.00000  Uiso   1.00
O473   O     0.83333   0.77322   0.20625   0.00000  Uiso   1.00
O474   O     0.83334   0.89345   0.12709   0.00000  Uiso   1.00
O475   O     0.83333   0.77321   0.12706   0.00000  Uiso   1.00
O476   O     0.83334   0.89346   0.20628   0.00000  Uiso   1.00
O477   O     0.75828   0.83334   0.19712   0.00000  Uiso   1.00
O478   O     0.90839   0.83333   0.13621   0.00000  Uiso   1.00
O479   O     0.75828   0.83333   0.11793   0.00000  Uiso   1.00
O480   O     0.90839   0.83334   0.21540   0.00000  Uiso   1.00
C481   C     0.82438   0.70514   0.07726   0.00000  Uiso   1.00
N482   N     0.82413   0.71927   0.04048   0.00000  Uiso   1.00
C483   C     0.83587   0.96154   0.25546   0.00000  Uiso   1.00
N484   N     0.83351   0.94729   0.29181   0.00000  Uiso   1.00
C485   C     0.79684   0.95655   0.08039   0.00000  Uiso   1.00
N486   N     0.77968   0.93967   0.04585   0.00000  Uiso   1.00
C487   C     0.86690   0.70955   0.25305   0.00000  Uiso   1.00
N488   N     0.88381   0.72611   0.28788   0.00000  Uiso   1.00
O489   O     0.76751   0.78226   0.27425   0.00000  Uiso   1.00
C490   C     0.71613   0.77880   0.28478   0.00000  Uiso   1.00
H491   H     0.69028   0.78033   0.25101   0.00000  Uiso   1.00
H492   H     0.70441   0.80371   0.30794   0.00000  Uiso   1.00
C493   C     0.70620   0.73718   0.30489   0.00000  Uiso   1.00
H494   H     0.72699   0.73442   0.00757   0.00000  Uiso   1.00
H495   H     0.99766   0.73293   0.30684   0.00000  Uiso   1.00
H496   H     0.71879   0.71278   0.28175   0.00000  Uiso   1.00
O497   O     0.90526   0.87838   0.06169   0.00000  Uiso   1.00
C498   C     0.93455   0.90876   0.04216   0.00000  Uiso   1.00
H499   H     0.94492   0.93268   0.06990   0.00000  Uiso   1.00
H500   H     0.91267   0.92486   0.01258   0.00000  Uiso   1.00
C501   C     0.98487   0.89173   0.02892   0.00000  Uiso   1.00
H502   H     0.97765   0.86420   0.00580   0.00000  Uiso   1.00
H503   H     0.67161   0.91513   0.01006   0.00000  Uiso   1.00
H504   H     0.67715   0.88360   0.06127   0.00000  Uiso   1.00
C505   C     0.16884   0.08741   0.49980   0.00000  Uiso   1.00
C506   C     0.16379   0.24585   0.50011   0.00000  Uiso   1.00
C507   C     0.06796   0.16664   0.48802   0.00000  Uiso   1.00
C508   C     0.26535   0.16778   0.51195   0.00000  Uiso   1.00
C509   C     0.01275   0.16565   0.48137   0.00000  Uiso   1.00
C510   C     0.32048   0.17061   0.51835   0.00000  Uiso   1.00
C511   C     0.15883   0.01993   0.45640   0.00000  Uiso   1.00
C512   C     0.17110   0.31329   0.54331   0.00000  Uiso   1.00
C513   C     0.15138   0.31115   0.45728   0.00000  Uiso   1.00
C514   C     0.17928   0.02194   0.54253   0.00000  Uiso   1.00
C515   C     0.16090   0.29058   0.50045   0.00000  Uiso   1.00
C516   C     0.17030   0.04260   0.49931   0.00000  Uiso   1.00
C517   C     0.13167   0.14360   0.35367   0.00000  Uiso   1.00
C518   C     0.20195   0.18959   0.64632   0.00000  Uiso   1.00
C519   C     0.13137   0.14316   0.63695   0.00000  Uiso   1.00
C520   C     0.20227   0.19015   0.36335   0.00000  Uiso   1.00
Cu521  Cu    0.16667   0.16667   0.54689   0.00000  Uiso   1.00
Cu522  Cu    0.16667   0.16666   0.45311   0.00000  Uiso   1.00
H523   H     0.32638   0.15995   0.44590   0.00000  Uiso   1.00
H524   H     0.00678   0.17706   0.55366   0.00000  Uiso   1.00
H525   H     0.10496   0.12477   0.36979   0.00000  Uiso   1.00
H526   H     0.22989   0.20672   0.62969   0.00000  Uiso   1.00
N527   N     0.16668   0.16668   0.61736   0.00000  Uiso   1.00
N528   N     0.16665   0.16666   0.38264   0.00000  Uiso   1.00
O529   O     0.16666   0.10655   0.53958   0.00000  Uiso   1.00
O530   O     0.16667   0.22678   0.46042   0.00000  Uiso   1.00
O531   O     0.16666   0.10654   0.46039   0.00000  Uiso   1.00
O532   O     0.16667   0.22679   0.53961   0.00000  Uiso   1.00
O533   O     0.09161   0.16667   0.53046   0.00000  Uiso   1.00
O534   O     0.24172   0.16666   0.46954   0.00000  Uiso   1.00
O535   O     0.09161   0.16666   0.45127   0.00000  Uiso   1.00
O536   O     0.24172   0.16667   0.54873   0.00000  Uiso   1.00
C537   C     0.15772   0.03847   0.41059   0.00000  Uiso   1.00
N538   N     0.15746   0.05261   0.37381   0.00000  Uiso   1.00
C539   C     0.16920   0.29487   0.58880   0.00000  Uiso   1.00
N540   N     0.16684   0.28063   0.62515   0.00000  Uiso   1.00
C541   C     0.13017   0.28988   0.41372   0.00000  Uiso   1.00
N542   N     0.11302   0.27300   0.37918   0.00000  Uiso   1.00
C543   C     0.20023   0.04288   0.58639   0.00000  Uiso   1.00
N544   N     0.21714   0.05944   0.62121   0.00000  Uiso   1.00
O545   O     0.10084   0.11559   0.60758   0.00000  Uiso   1.00
C546   C     0.04947   0.11213   0.61812   0.00000  Uiso   1.00
H547   H     0.02362   0.11366   0.58434   0.00000  Uiso   1.00
H548   H     0.03774   0.13705   0.64127   0.00000  Uiso   1.00
C549   C     0.03954   0.07051   0.63822   0.00000  Uiso   1.00
H550   H     0.06032   0.06776   0.34090   0.00000  Uiso   1.00
H551   H     0.33099   0.06626   0.64018   0.00000  Uiso   1.00
H552   H     0.05213   0.04612   0.61508   0.00000  Uiso   1.00
O553   O     0.23859   0.21172   0.39503   0.00000  Uiso   1.00
C554   C     0.26788   0.24209   0.37550   0.00000  Uiso   1.00
H555   H     0.27825   0.26602   0.40323   0.00000  Uiso   1.00
H556   H     0.24600   0.25819   0.34592   0.00000  Uiso   1.00
C557   C     0.31821   0.22507   0.36225   0.00000  Uiso   1.00
H558   H     0.31098   0.19753   0.33914   0.00000  Uiso   1.00
H559   H     0.00494   0.24847   0.34339   0.00000  Uiso   1.00
H560   H     0.01049   0.21693   0.39461   0.00000  Uiso   1.00
C561   C     0.50218   0.08741   0.49980   0.00000  Uiso   1.00
C562   C     0.49712   0.24585   0.50011   0.00000  Uiso   1.00
C563   C     0.40129   0.16664   0.48802   0.00000  Uiso   1.00
C564   C     0.59868   0.16778   0.51195   0.00000  Uiso   1.00
C565   C     0.34608   0.16565   0.48137   0.00000  Uiso   1.00
C566   C     0.65382   0.17061   0.51835   0.00000  Uiso   1.00
C567   C     0.49216   0.01993   0.45640   0.00000  Uiso   1.00
C568   C     0.50443   0.31329   0.54331   0.00000  Uiso   1.00
C569   C     0.48471   0.31115   0.45728   0.00000  Uiso   1.00
C570   C     0.51261   0.02194   0.54253   0.00000  Uiso   1.00
C571   C     0.49423   0.29058   0.50045   0.00000  Uiso   1.00
C572   C     0.50363   0.04260   0.49931   0.00000  Uiso   1.00
C573   C     0.46501   0.14360   0.35367   0.00000  Uiso   1.00
C574   C     0.53528   0.18959   0.64632   0.00000  Uiso   1.00
C575   C     0.46471   0.14316   0.63695   0.00000  Uiso   1.00
C576   C     0.53560   0.19015   0.36335   0.00000  Uiso   1.00
Cu577  Cu    0.50000   0.16667   0.54689   0.00000  Uiso   1.00
Cu578  Cu    0.50000   0.16666   0.45311   0.00000  Uiso   1.00
H579   H     0.65971   0.15995   0.44590   0.00000  Uiso   1.00
H580   H     0.34011   0.17706   0.55366   0.00000  Uiso   1.00
H581   H     0.43829   0.12477   0.36979   0.00000  Uiso   1.00
H582   H     0.56323   0.20672   0.62969   0.00000  Uiso   1.00
N583   N     0.50001   0.16668   0.61736   0.00000  Uiso   1.00
N584   N     0.49999   0.16666   0.38264   0.00000  Uiso   1.00
O585   O     0.50000   0.10655   0.53958   0.00000  Uiso   1.00
O586   O     0.50000   0.22678   0.46042   0.00000  Uiso   1.00
O587   O     0.50000   0.10654   0.46039   0.00000  Uiso   1.00
O588   O     0.50000   0.22679   0.53961   0.00000  Uiso   1.00
O589   O     0.42495   0.16667   0.53046   0.00000  Uiso   1.00
O590   O     0.57505   0.16666   0.46954   0.00000  Uiso   1.00
O591   O     0.42494   0.16666   0.45127   0.00000  Uiso   1.00
O592   O     0.57506   0.16667   0.54873   0.00000  Uiso   1.00
C593   C     0.49105   0.03847   0.41059   0.00000  Uiso   1.00
N594   N     0.49079   0.05261   0.37381   0.00000  Uiso   1.00
C595   C     0.50253   0.29487   0.58880   0.00000  Uiso   1.00
N596   N     0.50018   0.28063   0.62515   0.00000  Uiso   1.00
C597   C     0.46351   0.28988   0.41372   0.00000  Uiso   1.00
N598   N     0.44635   0.27300   0.37918   0.00000  Uiso   1.00
C599   C     0.53356   0.04288   0.58639   0.00000  Uiso   1.00
N600   N     0.55048   0.05944   0.62121   0.00000  Uiso   1.00
O601   O     0.43418   0.11559   0.60758   0.00000  Uiso   1.00
C602   C     0.38280   0.11213   0.61812   0.00000  Uiso   1.00
H603   H     0.35695   0.11366   0.58434   0.00000  Uiso   1.00
H604   H     0.37107   0.13705   0.64127   0.00000  Uiso   1.00
C605   C     0.37287   0.07051   0.63822   0.00000  Uiso   1.00
H606   H     0.39366   0.06776   0.34090   0.00000  Uiso   1.00
H607   H     0.66433   0.06626   0.64018   0.00000  Uiso   1.00
H608   H     0.38546   0.04612   0.61508   0.00000  Uiso   1.00
O609   O     0.57193   0.21172   0.39503   0.00000  Uiso   1.00
C610   C     0.60121   0.24209   0.37550   0.00000  Uiso   1.00
H611   H     0.61158   0.26602   0.40323   0.00000  Uiso   1.00
H612   H     0.57933   0.25819   0.34592   0.00000  Uiso   1.00
C613   C     0.65154   0.22507   0.36225   0.00000  Uiso   1.00
H614   H     0.64431   0.19753   0.33914   0.00000  Uiso   1.00
H615   H     0.33827   0.24847   0.34339   0.00000  Uiso   1.00
H616   H     0.34382   0.21693   0.39461   0.00000  Uiso   1.00
C617   C     0.83551   0.08741   0.49980   0.00000  Uiso   1.00
C618   C     0.83046   0.24585   0.50011   0.00000  Uiso   1.00
C619   C     0.73462   0.16664   0.48802   0.00000  Uiso   1.00
C620   C     0.93202   0.16778   0.51195   0.00000  Uiso   1.00
C621   C     0.67941   0.16565   0.48137   0.00000  Uiso   1.00
C622   C     0.98715   0.17061   0.51835   0.00000  Uiso   1.00
C623   C     0.82550   0.01993   0.45640   0.00000  Uiso   1.00
C624   C     0.83776   0.31329   0.54331   0.00000  Uiso   1.00
C625   C     0.81804   0.31115   0.45728   0.00000  Uiso   1.00
C626   C     0.84595   0.02194   0.54253   0.00000  Uiso   1.00
C627   C     0.82757   0.29058   0.50045   0.00000  Uiso   1.00
C628   C     0.83697   0.04260   0.49931   0.00000  Uiso   1.00
C629   C     0.79834   0.14360   0.35367   0.00000  Uiso   1.00
C630   C     0.86862   0.18959   0.64632   0.00000  Uiso   1.00
C631   C     0.79804   0.14316   0.63695   0.00000  Uiso   1.00
C632   C     0.86893   0.19015   0.36335   0.00000  Uiso   1.00
Cu633  Cu    0.83333   0.16667   0.54689   0.00000  Uiso   1.00
Cu634  Cu    0.83333   0.16666   0.45311   0.00000  Uiso   1.00
H635   H     0.99305   0.15995   0.44590   0.00000  Uiso   1.00
H636   H     0.67345   0.17706   0.55366   0.00000  Uiso   1.00
H637   H     0.77163   0.12477   0.36979   0.00000  Uiso   1.00
H638   H     0.89656   0.20672   0.62969   0.00000  Uiso   1.00
N639   N     0.83335   0.16668   0.61736   0.00000  Uiso   1.00
N640   N     0.83332   0.16666   0.38264   0.00000  Uiso   1.00
O641   O     0.83333   0.10655   0.53958   0.00000  Uiso   1.00
O642   O     0.83334   0.22678   0.46042   0.00000  Uiso   1.00
O643   O     0.83333   0.10654   0.46039   0.00000  Uiso   1.00
O644   O     0.83334   0.22679   0.53961   0.00000  Uiso   1.00
O645   O     0.75828   0.16667   0.53046   0.00000  Uiso   1.00
O646   O     0.90839   0.16666   0.46954   0.00000  Uiso   1.00
O647   O     0.75828   0.16666   0.45127   0.00000  Uiso   1.00
O648   O     0.90839   0.16667   0.54873   0.00000  Uiso   1.00
C649   C     0.82438   0.03847   0.41059   0.00000  Uiso   1.00
N650   N     0.82413   0.05261   0.37381   0.00000  Uiso   1.00
C651   C     0.83587   0.29487   0.58880   0.00000  Uiso   1.00
N652   N     0.83351   0.28063   0.62515   0.00000  Uiso   1.00
C653   C     0.79684   0.28988   0.41372   0.00000  Uiso   1.00
N654   N     0.77968   0.27300   0.37918   0.00000  Uiso   1.00
C655   C     0.86690   0.04288   0.58639   0.00000  Uiso   1.00
N656   N     0.88381   0.05944   0.62121   0.00000  Uiso   1.00
O657   O     0.76751   0.11559   0.60758   0.00000  Uiso   1.00
C658   C     0.71613   0.11213   0.61812   0.00000  Uiso   1.00
H659   H     0.69028   0.11366   0.58434   0.00000  Uiso   1.00
H660   H     0.70441   0.13705   0.64127   0.00000  Uiso   1.00
C661   C     0.70620   0.07051   0.63822   0.00000  Uiso   1.00
H662   H     0.72699   0.06776   0.34090   0.00000  Uiso   1.00
H663   H     0.99766   0.06626   0.64018   0.00000  Uiso   1.00
H664   H     0.71879   0.04612   0.61508   0.00000  Uiso   1.00
O665   O     0.90526   0.21172   0.39503   0.00000  Uiso   1.00
C666   C     0.93455   0.24209   0.37550   0.00000  Uiso   1.00
H667   H     0.94492   0.26602   0.40323   0.00000  Uiso   1.00
H668   H     0.91267   0.25819   0.34592   0.00000  Uiso   1.00
C669   C     0.98487   0.22507   0.36225   0.00000  Uiso   1.00
H670   H     0.97765   0.19753   0.33914   0.00000  Uiso   1.00
H671   H     0.67161   0.24847   0.34339   0.00000  Uiso   1.00
H672   H     0.67715   0.21693   0.39461   0.00000  Uiso   1.00
C673   C     0.16884   0.42074   0.49980   0.00000  Uiso   1.00
C674   C     0.16379   0.57918   0.50011   0.00000  Uiso   1.00
C675   C     0.06796   0.49997   0.48802   0.00000  Uiso   1.00
C676   C     0.26535   0.50111   0.51195   0.00000  Uiso   1.00
C677   C     0.01275   0.49898   0.48137   0.00000  Uiso   1.00
C678   C     0.32048   0.50394   0.51835   0.00000  Uiso   1.00
C679   C     0.15883   0.35326   0.45640   0.00000  Uiso   1.00
C680   C     0.17110   0.64662   0.54331   0.00000  Uiso   1.00
C681   C     0.15138   0.64449   0.45728   0.00000  Uiso   1.00
C682   C     0.17928   0.35528   0.54253   0.00000  Uiso   1.00
C683   C     0.16090   0.62391   0.50045   0.00000  Uiso   1.00
C684   C     0.17030   0.37594   0.49931   0.00000  Uiso   1.00
C685   C     0.13167   0.47693   0.35367   0.00000  Uiso   1.00
C686   C     0.20195   0.52293   0.64632   0.00000  Uiso   1.00
C687   C     0.13137   0.47649   0.63695   0.00000  Uiso   1.00
C688   C     0.20227   0.52348   0.36335   0.00000  Uiso   1.00
Cu689  Cu    0.16667   0.50001   0.54689   0.00000  Uiso   1.00
Cu690  Cu    0.16667   0.49999   0.45311   0.00000  Uiso   1.00
H691   H     0.32638   0.49328   0.44590   0.00000  Uiso   1.00
H692   H     0.00678   0.51039   0.55366   0.00000  Uiso   1.00
H693   H     0.10496   0.45810   0.36979   0.00000  Uiso   1.00
H694   H     0.22989   0.54005   0.62969   0.00000  Uiso   1.00
N695   N     0.16668   0.50001   0.61736   0.00000  Uiso   1.00
N696   N     0.16665   0.49999   0.38264   0.00000  Uiso   1.00
O697   O     0.16666   0.43989   0.53958   0.00000  Uiso   1.00
O698   O     0.16667   0.56011   0.46042   0.00000  Uiso   1.00
O699   O     0.16666   0.43988   0.46039   0.00000  Uiso   1.00
O700   O     0.16667   0.56012   0.53961   0.00000  Uiso   1.00
O701   O     0.09161   0.50000   0.53046   0.00000  Uiso   1.00
O702   O     0.24172   0.50000   0.46954   0.00000  Uiso   1.00
O703   O     0.09161   0.49999   0.45127   0.00000  Uiso   1.00
O704   O     0.24172   0.50001   0.54873   0.00000  Uiso   1.00
C705   C     0.15772   0.37181   0.41059   0.00000  Uiso   1.00
N706   N     0.15746   0.38594   0.37381   0.00000  Uiso   1.00
C707   C     0.16920   0.62820   0.58880   0.00000  Uiso   1.00
N708   N     0.16684   0.61396   0.62515   0.00000  Uiso   1.00
C709   C     0.13017   0.62321   0.41372   0.00000  Uiso   1.00
N710   N     0.11302   0.60634   0.37918   0.00000  Uiso   1.00
C711   C     0.20023   0.37621   0.58639   0.00000  Uiso   1.00
N712   N     0.21714   0.39278   0.62121   0.00000  Uiso   1.00
O713   O     0.10084   0.44893   0.60758   0.00000  Uiso   1.00
C714   C     0.04947   0.44547   0.61812   0.00000  Uiso   1.00
H715   H     0.02362   0.44700   0.58434   0.00000  Uiso   1.00
H716   H     0.03774   0.47038   0.64127   0.00000  Uiso   1.00
C717   C     0.03954   0.40385   0.63822   0.00000  Uiso   1.00
H718   H     0.06032   0.40109   0.34090   0.00000  Uiso   1.00
H719   H     0.33099   0.39960   0.64018   0.00000  Uiso   1.00
H720   H     0.05213   0.37945   0.61508   0.00000  Uiso   1.00
O721   O     0.23859   0.54505   0.39503   0.00000  Uiso   1.00
C722   C     0.26788   0.57543   0.37550   0.00000  Uiso   1.00
H723   H     0.27825   0.59935   0.40323   0.00000  Uiso   1.00
H724   H     0.24600   0.59153   0.34592   0.00000  Uiso   1.00
C725   C     0.31821   0.55840   0.36225   0.00000  Uiso   1.00
H726   H     0.31098   0.53087   0.33914   0.00000  Uiso   1.00
H727   H     0.00494   0.58180   0.34339   0.00000  Uiso   1.00
H728   H     0.01049   0.55026   0.39461   0.00000  Uiso   1.00
C729   C     0.50218   0.42074   0.49980   0.00000  Uiso   1.00
C730   C     0.49712   0.57918   0.50011   0.00000  Uiso   1.00
C731   C     0.40129   0.49997   0.48802   0.00000  Uiso   1.00
C732   C     0.59868   0.50111   0.51195   0.00000  Uiso   1.00
C733   C     0.34608   0.49898   0.48137   0.00000  Uiso   1.00
C734   C     0.65382   0.50394   0.51835   0.00000  Uiso   1.00
C735   C     0.49216   0.35326   0.45640   0.00000  Uiso   1.00
C736   C     0.50443   0.64662   0.54331   0.00000  Uiso   1.00
C737   C     0.48471   0.64449   0.45728   0.00000  Uiso   1.00
C738   C     0.51261   0.35528   0.54253   0.00000  Uiso   1.00
C739   C     0.49423   0.62391   0.50045   0.00000  Uiso   1.00
C740   C     0.50363   0.37594   0.49931   0.00000  Uiso   1.00
C741   C     0.46501   0.47693   0.35367   0.00000  Uiso   1.00
C742   C     0.53528   0.52293   0.64632   0.00000  Uiso   1.00
C743   C     0.46471   0.47649   0.63695   0.00000  Uiso   1.00
C744   C     0.53560   0.52348   0.36335   0.00000  Uiso   1.00
Cu745  Cu    0.50000   0.50001   0.54689   0.00000  Uiso   1.00
Cu746  Cu    0.50000   0.49999   0.45311   0.00000  Uiso   1.00
H747   H     0.65971   0.49328   0.44590   0.00000  Uiso   1.00
H748   H     0.34011   0.51039   0.55366   0.00000  Uiso   1.00
H749   H     0.43829   0.45810   0.36979   0.00000  Uiso   1.00
H750   H     0.56323   0.54005   0.62969   0.00000  Uiso   1.00
N751   N     0.50001   0.50001   0.61736   0.00000  Uiso   1.00
N752   N     0.49999   0.49999   0.38264   0.00000  Uiso   1.00
O753   O     0.50000   0.43989   0.53958   0.00000  Uiso   1.00
O754   O     0.50000   0.56011   0.46042   0.00000  Uiso   1.00
O755   O     0.50000   0.43988   0.46039   0.00000  Uiso   1.00
O756   O     0.50000   0.56012   0.53961   0.00000  Uiso   1.00
O757   O     0.42495   0.50000   0.53046   0.00000  Uiso   1.00
O758   O     0.57505   0.50000   0.46954   0.00000  Uiso   1.00
O759   O     0.42494   0.49999   0.45127   0.00000  Uiso   1.00
O760   O     0.57506   0.50001   0.54873   0.00000  Uiso   1.00
C761   C     0.49105   0.37181   0.41059   0.00000  Uiso   1.00
N762   N     0.49079   0.38594   0.37381   0.00000  Uiso   1.00
C763   C     0.50253   0.62820   0.58880   0.00000  Uiso   1.00
N764   N     0.50018   0.61396   0.62515   0.00000  Uiso   1.00
C765   C     0.46351   0.62321   0.41372   0.00000  Uiso   1.00
N766   N     0.44635   0.60634   0.37918   0.00000  Uiso   1.00
C767   C     0.53356   0.37621   0.58639   0.00000  Uiso   1.00
N768   N     0.55048   0.39278   0.62121   0.00000  Uiso   1.00
O769   O     0.43418   0.44893   0.60758   0.00000  Uiso   1.00
C770   C     0.38280   0.44547   0.61812   0.00000  Uiso   1.00
H771   H     0.35695   0.44700   0.58434   0.00000  Uiso   1.00
H772   H     0.37107   0.47038   0.64127   0.00000  Uiso   1.00
C773   C     0.37287   0.40385   0.63822   0.00000  Uiso   1.00
H774   H     0.39366   0.40109   0.34090   0.00000  Uiso   1.00
H775   H     0.66433   0.39960   0.64018   0.00000  Uiso   1.00
H776   H     0.38546   0.37945   0.61508   0.00000  Uiso   1.00
O777   O     0.57193   0.54505   0.39503   0.00000  Uiso   1.00
C778   C     0.60121   0.57543   0.37550   0.00000  Uiso   1.00
H779   H     0.61158   0.59935   0.40323   0.00000  Uiso   1.00
H780   H     0.57933   0.59153   0.34592   0.00000  Uiso   1.00
C781   C     0.65154   0.55840   0.36225   0.00000  Uiso   1.00
H782   H     0.64431   0.53087   0.33914   0.00000  Uiso   1.00
H783   H     0.33827   0.58180   0.34339   0.00000  Uiso   1.00
H784   H     0.34382   0.55026   0.39461   0.00000  Uiso   1.00
C785   C     0.83551   0.42074   0.49980   0.00000  Uiso   1.00
C786   C     0.83046   0.57918   0.50011   0.00000  Uiso   1.00
C787   C     0.73462   0.49997   0.48802   0.00000  Uiso   1.00
C788   C     0.93202   0.50111   0.51195   0.00000  Uiso   1.00
C789   C     0.67941   0.49898   0.48137   0.00000  Uiso   1.00
C790   C     0.98715   0.50394   0.51835   0.00000  Uiso   1.00
C791   C     0.82550   0.35326   0.45640   0.00000  Uiso   1.00
C792   C     0.83776   0.64662   0.54331   0.00000  Uiso   1.00
C793   C     0.81804   0.64449   0.45728   0.00000  Uiso   1.00
C794   C     0.84595   0.35528   0.54253   0.00000  Uiso   1.00
C795   C     0.82757   0.62391   0.50045   0.00000  Uiso   1.00
C796   C     0.83697   0.37594   0.49931   0.00000  Uiso   1.00
C797   C     0.79834   0.47693   0.35367   0.00000  Uiso   1.00
C798   C     0.86862   0.52293   0.64632   0.00000  Uiso   1.00
C799   C     0.79804   0.47649   0.63695   0.00000  Uiso   1.00
C800   C     0.86893   0.52348   0.36335   0.00000  Uiso   1.00
Cu801  Cu    0.83333   0.50001   0.54689   0.00000  Uiso   1.00
Cu802  Cu    0.83333   0.49999   0.45311   0.00000  Uiso   1.00
H803   H     0.99305   0.49328   0.44590   0.00000  Uiso   1.00
H804   H     0.67345   0.51039   0.55366   0.00000  Uiso   1.00
H805   H     0.77163   0.45810   0.36979   0.00000  Uiso   1.00
H806   H     0.89656   0.54005   0.62969   0.00000  Uiso   1.00
N807   N     0.83335   0.50001   0.61736   0.00000  Uiso   1.00
N808   N     0.83332   0.49999   0.38264   0.00000  Uiso   1.00
O809   O     0.83333   0.43989   0.53958   0.00000  Uiso   1.00
O810   O     0.83334   0.56011   0.46042   0.00000  Uiso   1.00
O811   O     0.83333   0.43988   0.46039   0.00000  Uiso   1.00
O812   O     0.83334   0.56012   0.53961   0.00000  Uiso   1.00
O813   O     0.75828   0.50000   0.53046   0.00000  Uiso   1.00
O814   O     0.90839   0.50000   0.46954   0.00000  Uiso   1.00
O815   O     0.75828   0.49999   0.45127   0.00000  Uiso   1.00
O816   O     0.90839   0.50001   0.54873   0.00000  Uiso   1.00
C817   C     0.82438   0.37181   0.41059   0.00000  Uiso   1.00
N818   N     0.82413   0.38594   0.37381   0.00000  Uiso   1.00
C819   C     0.83587   0.62820   0.58880   0.00000  Uiso   1.00
N820   N     0.83351   0.61396   0.62515   0.00000  Uiso   1.00
C821   C     0.79684   0.62321   0.41372   0.00000  Uiso   1.00
N822   N     0.77968   0.60634   0.37918   0.00000  Uiso   1.00
C823   C     0.86690   0.37621   0.58639   0.00000  Uiso   1.00
N824   N     0.88381   0.39278   0.62121   0.00000  Uiso   1.00
O825   O     0.76751   0.44893   0.60758   0.00000  Uiso   1.00
C826   C     0.71613   0.44547   0.61812   0.00000  Uiso   1.00
H827   H     0.69028   0.44700   0.58434   0.00000  Uiso   1.00
H828   H     0.70441   0.47038   0.64127   0.00000  Uiso   1.00
C829   C     0.70620   0.40385   0.63822   0.00000  Uiso   1.00
H830   H     0.72699   0.40109   0.34090   0.00000  Uiso   1.00
H831   H     0.99766   0.39960   0.64018   0.00000  Uiso   1.00
H832   H     0.71879   0.37945   0.61508   0.00000  Uiso   1.00
O833   O     0.90526   0.54505   0.39503   0.00000  Uiso   1.00
C834   C     0.93455   0.57543   0.37550   0.00000  Uiso   1.00
H835   H     0.94492   0.59935   0.40323   0.00000  Uiso   1.00
H836   H     0.91267   0.59153   0.34592   0.00000  Uiso   1.00
C837   C     0.98487   0.55840   0.36225   0.00000  Uiso   1.00
H838   H     0.97765   0.53087   0.33914   0.00000  Uiso   1.00
H839   H     0.67161   0.58180   0.34339   0.00000  Uiso   1.00
H840   H     0.67715   0.55026   0.39461   0.00000  Uiso   1.00
C841   C     0.16884   0.75408   0.49980   0.00000  Uiso   1.00
C842   C     0.16379   0.91252   0.50011   0.00000  Uiso   1.00
C843   C     0.06796   0.83331   0.48802   0.00000  Uiso   1.00
C844   C     0.26535   0.83444   0.51195   0.00000  Uiso   1.00
C845   C     0.01275   0.83232   0.48137   0.00000  Uiso   1.00
C846   C     0.32048   0.83728   0.51835   0.00000  Uiso   1.00
C847   C     0.15883   0.68659   0.45640   0.00000  Uiso   1.00
C848   C     0.17110   0.97996   0.54331   0.00000  Uiso   1.00
C849   C     0.15138   0.97782   0.45728   0.00000  Uiso   1.00
C850   C     0.17928   0.68861   0.54253   0.00000  Uiso   1.00
C851   C     0.16090   0.95725   0.50045   0.00000  Uiso   1.00
C852   C     0.17030   0.70927   0.49931   0.00000  Uiso   1.00
C853   C     0.13167   0.81027   0.35367   0.00000  Uiso   1.00
C854   C     0.20195   0.85626   0.64632   0.00000  Uiso   1.00
C855   C     0.13137   0.80983   0.63695   0.00000  Uiso   1.00
C856   C     0.20227   0.85681   0.36335   0.00000  Uiso   1.00
Cu857  Cu    0.16667   0.83334   0.54689   0.00000  Uiso   1.00
Cu858  Cu    0.16667   0.83333   0.45311   0.00000  Uiso   1.00
H859   H     0.32638   0.82662   0.44590   0.00000  Uiso   1.00
H860   H     0.00678   0.84372   0.55366   0.00000  Uiso   1.00
H861   H     0.10496   0.79144   0.36979   0.00000  Uiso   1.00
H862   H     0.22989   0.87338   0.62969   0.00000  Uiso   1.00
N863   N     0.16668   0.83334   0.61736   0.00000  Uiso   1.00
N864   N     0.16665   0.83332   0.38264   0.00000  Uiso   1.00
O865   O     0.16666   0.77322   0.53958   0.00000  Uiso   1.00
O866   O     0.16667   0.89345   0.46042   0.00000  Uiso   1.00
O867   O     0.16666   0.77321   0.46039   0.00000  Uiso   1.00
O868   O     0.16667   0.89346   0.53961   0.00000  Uiso   1.00
O869   O     0.09161   0.83334   0.53046   0.00000  Uiso   1.00
O870   O     0.24172   0.83333   0.46954   0.00000  Uiso   1.00
O871   O     0.09161   0.83333   0.45127   0.00000  Uiso   1.00
O872   O     0.24172   0.83334   0.54873   0.00000  Uiso   1.00
C873   C     0.15772   0.70514   0.41059   0.00000  Uiso   1.00
N874   N     0.15746   0.71927   0.37381   0.00000  Uiso   1.00
C875   C     0.16920   0.96154   0.58880   0.00000  Uiso   1.00
N876   N     0.16684   0.94729   0.62515   0.00000  Uiso   1.00
C877   C     0.13017   0.95655   0.41372   0.00000  Uiso   1.00
N878   N     0.11302   0.93967   0.37918   0.00000  Uiso   1.00
C879   C     0.20023   0.70955   0.58639   0.00000  Uiso   1.00
N880   N     0.21714   0.72611   0.62121   0.00000  Uiso   1.00
O881   O     0.10084   0.78226   0.60758   0.00000  Uiso   1.00
C882   C     0.04947   0.77880   0.61812   0.00000  Uiso   1.00
H883   H     0.02362   0.78033   0.58434   0.00000  Uiso   1.00
H884   H     0.03774   0.80371   0.64127   0.00000  Uiso   1.00
C885   C     0.03954   0.73718   0.63822   0.00000  Uiso   1.00
H886   H     0.06032   0.73442   0.34090   0.00000  Uiso   1.00
H887   H     0.33099   0.73293   0.64018   0.00000  Uiso   1.00
H888   H     0.05213   0.71278   0.61508   0.00000  Uiso   1.00
O889   O     0.23859   0.87838   0.39503   0.00000  Uiso   1.00
C890   C     0.26788   0.90876   0.37550   0.00000  Uiso   1.00
H891   H     0.27825   0.93268   0.40323   0.00000  Uiso   1.00
H892   H     0.24600   0.92486   0.34592   0.00000  Uiso   1.00
C893   C     0.31821   0.89173   0.36225   0.00000  Uiso   1.00
H894   H     0.31098   0.86420   0.33914   0.00000  Uiso   1.00
H895   H     0.00494   0.91513   0.34339   0.00000  Uiso   1.00
H896   H     0.01049   0.88360   0.39461   0.00000  Uiso   1.00
C897   C     0.50218   0.75408   0.49980   0.00000  Uiso   1.00
C898   C     0.49712   0.91252   0.50011   0.00000  Uiso   1.00
C899   C     0.40129   0.83331   0.48802   0.00000  Uiso   1.00
C900   C     0.59868   0.83444   0.51195   0.00000  Uiso   1.00
C901   C     0.34608   0.83232   0.48137   0.00000  Uiso   1.00
C902   C     0.65382   0.83728   0.51835   0.00000  Uiso   1.00
C903   C     0.49216   0.68659   0.45640   0.00000  Uiso   1.00
C904   C     0.50443   0.97996   0.54331   0.00000  Uiso   1.00
C905   C     0.48471   0.97782   0.45728   0.00000  Uiso   1.00
C906   C     0.51261   0.68861   0.54253   0.00000  Uiso   1.00
C907   C     0.49423   0.95725   0.50045   0.00000  Uiso   1.00
C908   C     0.50363   0.70927   0.49931   0.00000  Uiso   1.00
C909   C     0.46501   0.81027   0.35367   0.00000  Uiso   1.00
C910   C     0.53528   0.85626   0.64632   0.00000  Uiso   1.00
C911   C     0.46471   0.80983   0.63695   0.00000  Uiso   1.00
C912   C     0.53560   0.85681   0.36335   0.00000  Uiso   1.00
Cu913  Cu    0.50000   0.83334   0.54689   0.00000  Uiso   1.00
Cu914  Cu    0.50000   0.83333   0.45311   0.00000  Uiso   1.00
H915   H     0.65971   0.82662   0.44590   0.00000  Uiso   1.00
H916   H     0.34011   0.84372   0.55366   0.00000  Uiso   1.00
H917   H     0.43829   0.79144   0.36979   0.00000  Uiso   1.00
H918   H     0.56323   0.87338   0.62969   0.00000  Uiso   1.00
N919   N     0.50001   0.83334   0.61736   0.00000  Uiso   1.00
N920   N     0.49999   0.83332   0.38264   0.00000  Uiso   1.00
O921   O     0.50000   0.77322   0.53958   0.00000  Uiso   1.00
O922   O     0.50000   0.89345   0.46042   0.00000  Uiso   1.00
O923   O     0.50000   0.77321   0.46039   0.00000  Uiso   1.00
O924   O     0.50000   0.89346   0.53961   0.00000  Uiso   1.00
O925   O     0.42495   0.83334   0.53046   0.00000  Uiso   1.00
O926   O     0.57505   0.83333   0.46954   0.00000  Uiso   1.00
O927   O     0.42494   0.83333   0.45127   0.00000  Uiso   1.00
O928   O     0.57506   0.83334   0.54873   0.00000  Uiso   1.00
C929   C     0.49105   0.70514   0.41059   0.00000  Uiso   1.00
N930   N     0.49079   0.71927   0.37381   0.00000  Uiso   1.00
C931   C     0.50253   0.96154   0.58880   0.00000  Uiso   1.00
N932   N     0.50018   0.94729   0.62515   0.00000  Uiso   1.00
C933   C     0.46351   0.95655   0.41372   0.00000  Uiso   1.00
N934   N     0.44635   0.93967   0.37918   0.00000  Uiso   1.00
C935   C     0.53356   0.70955   0.58639   0.00000  Uiso   1.00
N936   N     0.55048   0.72611   0.62121   0.00000  Uiso   1.00
O937   O     0.43418   0.78226   0.60758   0.00000  Uiso   1.00
C938   C     0.38280   0.77880   0.61812   0.00000  Uiso   1.00
H939   H     0.35695   0.78033   0.58434   0.00000  Uiso   1.00
H940   H     0.37107   0.80371   0.64127   0.00000  Uiso   1.00
C941   C     0.37287   0.73718   0.63822   0.00000  Uiso   1.00
H942   H     0.39366   0.73442   0.34090   0.00000  Uiso   1.00
H943   H     0.66433   0.73293   0.64018   0.00000  Uiso   1.00
H944   H     0.38546   0.71278   0.61508   0.00000  Uiso   1.00
O945   O     0.57193   0.87838   0.39503   0.00000  Uiso   1.00
C946   C     0.60121   0.90876   0.37550   0.00000  Uiso   1.00
H947   H     0.61158   0.93268   0.40323   0.00000  Uiso   1.00
H948   H     0.57933   0.92486   0.34592   0.00000  Uiso   1.00
C949   C     0.65154   0.89173   0.36225   0.00000  Uiso   1.00
H950   H     0.64431   0.86420   0.33914   0.00000  Uiso   1.00
H951   H     0.33827   0.91513   0.34339   0.00000  Uiso   1.00
H952   H     0.34382   0.88360   0.39461   0.00000  Uiso   1.00
C953   C     0.83551   0.75408   0.49980   0.00000  Uiso   1.00
C954   C     0.83046   0.91252   0.50011   0.00000  Uiso   1.00
C955   C     0.73462   0.83331   0.48802   0.00000  Uiso   1.00
C956   C     0.93202   0.83444   0.51195   0.00000  Uiso   1.00
C957   C     0.67941   0.83232   0.48137   0.00000  Uiso   1.00
C958   C     0.98715   0.83728   0.51835   0.00000  Uiso   1.00
C959   C     0.82550   0.68659   0.45640   0.00000  Uiso   1.00
C960   C     0.83776   0.97996   0.54331   0.00000  Uiso   1.00
C961   C     0.81804   0.97782   0.45728   0.00000  Uiso   1.00
C962   C     0.84595   0.68861   0.54253   0.00000  Uiso   1.00
C963   C     0.82757   0.95725   0.50045   0.00000  Uiso   1.00
C964   C     0.83697   0.70927   0.49931   0.00000  Uiso   1.00
C965   C     0.79834   0.81027   0.35367   0.00000  Uiso   1.00
C966   C     0.86862   0.85626   0.64632   0.00000  Uiso   1.00
C967   C     0.79804   0.80983   0.63695   0.00000  Uiso   1.00
C968   C     0.86893   0.85681   0.36335   0.00000  Uiso   1.00
Cu969  Cu    0.83333   0.83334   0.54689   0.00000  Uiso   1.00
Cu970  Cu    0.83333   0.83333   0.45311   0.00000  Uiso   1.00
H971   H     0.99305   0.82662   0.44590   0.00000  Uiso   1.00
H972   H     0.67345   0.84372   0.55366   0.00000  Uiso   1.00
H973   H     0.77163   0.79144   0.36979   0.00000  Uiso   1.00
H974   H     0.89656   0.87338   0.62969   0.00000  Uiso   1.00
N975   N     0.83335   0.83334   0.61736   0.00000  Uiso   1.00
N976   N     0.83332   0.83332   0.38264   0.00000  Uiso   1.00
O977   O     0.83333   0.77322   0.53958   0.00000  Uiso   1.00
O978   O     0.83334   0.89345   0.46042   0.00000  Uiso   1.00
O979   O     0.83333   0.77321   0.46039   0.00000  Uiso   1.00
O980   O     0.83334   0.89346   0.53961   0.00000  Uiso   1.00
O981   O     0.75828   0.83334   0.53046   0.00000  Uiso   1.00
O982   O     0.90839   0.83333   0.46954   0.00000  Uiso   1.00
O983   O     0.75828   0.83333   0.45127   0.00000  Uiso   1.00
O984   O     0.90839   0.83334   0.54873   0.00000  Uiso   1.00
C985   C     0.82438   0.70514   0.41059   0.00000  Uiso   1.00
N986   N     0.82413   0.71927   0.37381   0.00000  Uiso   1.00
C987   C     0.83587   0.96154   0.58880   0.00000  Uiso   1.00
N988   N     0.83351   0.94729   0.62515   0.00000  Uiso   1.00
C989   C     0.79684   0.95655   0.41372   0.00000  Uiso   1.00
N990   N     0.77968   0.93967   0.37918   0.00000  Uiso   1.00
C991   C     0.86690   0.70955   0.58639   0.00000  Uiso   1.00
N992   N     0.88381   0.72611   0.62121   0.00000  Uiso   1.00
O993   O     0.76751   0.78226   0.60758   0.00000  Uiso   1.00
C994   C     0.71613   0.77880   0.61812   0.00000  Uiso   1.00
H995   H     0.69028   0.78033   0.58434   0.00000  Uiso   1.00
H996   H     0.70441   0.80371   0.64127   0.00000  Uiso   1.00
C997   C     0.70620   0.73718   0.63822   0.00000  Uiso   1.00
H998   H     0.72699   0.73442   0.34090   0.00000  Uiso   1.00
H999   H     0.99766   0.73293   0.64018   0.00000  Uiso   1.00
H1000  H     0.71879   0.71278   0.61508   0.00000  Uiso   1.00
O1001  O     0.90526   0.87838   0.39503   0.00000  Uiso   1.00
C1002  C     0.93455   0.90876   0.37550   0.00000  Uiso   1.00
H1003  H     0.94492   0.93268   0.40323   0.00000  Uiso   1.00
H1004  H     0.91267   0.92486   0.34592   0.00000  Uiso   1.00
C1005  C     0.98487   0.89173   0.36225   0.00000  Uiso   1.00
H1006  H     0.97765   0.86420   0.33914   0.00000  Uiso   1.00
H1007  H     0.67161   0.91513   0.34339   0.00000  Uiso   1.00
H1008  H     0.67715   0.88360   0.39461   0.00000  Uiso   1.00
C1009  C     0.16884   0.08741   0.83313   0.00000  Uiso   1.00
C1010  C     0.16379   0.24585   0.83344   0.00000  Uiso   1.00
C1011  C     0.06796   0.16664   0.82135   0.00000  Uiso   1.00
C1012  C     0.26535   0.16778   0.84529   0.00000  Uiso   1.00
C1013  C     0.01275   0.16565   0.81470   0.00000  Uiso   1.00
C1014  C     0.32048   0.17061   0.85169   0.00000  Uiso   1.00
C1015  C     0.15883   0.01993   0.78974   0.00000  Uiso   1.00
C1016  C     0.17110   0.31329   0.87664   0.00000  Uiso   1.00
C1017  C     0.15138   0.31115   0.79061   0.00000  Uiso   1.00
C1018  C     0.17928   0.02194   0.87586   0.00000  Uiso   1.00
C1019  C     0.16090   0.29058   0.83378   0.00000  Uiso   1.00
C1020  C     0.17030   0.04260   0.83264   0.00000  Uiso   1.00
C1021  C     0.13167   0.14360   0.68700   0.00000  Uiso   1.00
C1022  C     0.20195   0.18959   0.97965   0.00000  Uiso   1.00
C1023  C     0.13137   0.14316   0.97028   0.00000  Uiso   1.00
C1024  C     0.20227   0.19015   0.69668   0.00000  Uiso   1.00
Cu1025 Cu    0.16667   0.16667   0.88022   0.00000  Uiso   1.00
Cu1026 Cu    0.16667   0.16666   0.78645   0.00000  Uiso   1.00
H1027  H     0.32638   0.15995   0.77923   0.00000  Uiso   1.00
H1028  H     0.00678   0.17706   0.88699   0.00000  Uiso   1.00
H1029  H     0.10496   0.12477   0.70313   0.00000  Uiso   1.00
H1030  H     0.22989   0.20672   0.96302   0.00000  Uiso   1.00
N1031  N     0.16668   0.16668   0.95069   0.00000  Uiso   1.00
N1032  N     0.16665   0.16666   0.71597   0.00000  Uiso   1.00
O1033  O     0.16666   0.10655   0.87291   0.00000  Uiso   1.00
O1034  O     0.16667   0.22678   0.79375   0.00000  Uiso   1.00
O1035  O     0.16666   0.10654   0.79372   0.00000  Uiso   1.00
O1036  O     0.16667   0.22679   0.87294   0.00000  Uiso   1.00
O1037  O     0.09161   0.16667   0.86379   0.00000  Uiso   1.00
O1038  O     0.24172   0.16666   0.80288   0.00000  Uiso   1.00
O1039  O     0.09161   0.16666   0.78460   0.00000  Uiso   1.00
O1040  O     0.24172   0.16667   0.88207   0.00000  Uiso   1.00
C1041  C     0.15772   0.03847   0.74392   0.00000  Uiso   1.00
N1042  N     0.15746   0.05261   0.70715   0.00000  Uiso   1.00
C1043  C     0.16920   0.29487   0.92213   0.00000  Uiso   1.00
N1044  N     0.16684   0.28063   0.95848   0.00000  Uiso   1.00
C1045  C     0.13017   0.28988   0.74705   0.00000  Uiso   1.00
N1046  N     0.11302   0.27300   0.71251   0.00000  Uiso   1.00
C1047  C     0.20023   0.04288   0.91972   0.00000  Uiso   1.00
N1048  N     0.21714   0.05944   0.95455   0.00000  Uiso   1.00
O1049  O     0.10084   0.11559   0.94092   0.00000  Uiso   1.00
C1050  C     0.04947   0.11213   0.95145   0.00000  Uiso   1.00
H1051  H     0.02362   0.11366   0.91767   0.00000  Uiso   1.00
H1052  H     0.03774   0.13705   0.97461   0.00000  Uiso   1.00
C1053  C     0.03954   0.07051   0.97156   0.00000  Uiso   1.00
H1054  H     0.06032   0.06776   0.67424   0.00000  Uiso   1.00
H1055  H     0.33099   0.06626   0.97351   0.00000  Uiso   1.00
H1056  H     0.05213   0.04612   0.94841   0.00000  Uiso   1.00
O1057  O     0.23859   0.21172   0.72836   0.00000  Uiso   1.00
C1058  C     0.26788   0.24209   0.70883   0.00000  Uiso   1.00
H1059  H     0.27825   0.26602   0.73657   0.00000  Uiso   1.00
H1060  H     0.24600   0.25819   0.67925   0.00000  Uiso   1.00
C1061  C     0.31821   0.22507   0.69558   0.00000  Uiso   1.00
H1062  H     0.31098   0.19753   0.67247   0.00000  Uiso   1.00
H1063  H     0.00494   0.24847   0.67673   0.00000  Uiso   1.00
H1064  H     0.01049   0.21693   0.72794   0.00000  Uiso   1.00
C1065  C     0.50218   0.08741   0.83313   0.00000  Uiso   1.00
C1066  C     0.49712   0.24585   0.83344   0.00000  Uiso   1.00
C1067  C     0.40129   0.16664   0.82135   0.00000  Uiso   1.00
C1068  C     0.59868   0.16778   0.84529   0.00000  Uiso   1.00
C1069  C     0.34608   0.16565   0.81470   0.00000  Uiso   1.00
C1070  C     0.65382   0.17061   0.85169   0.00000  Uiso   1.00
C1071  C     0.49216   0.01993   0.78974   0.00000  Uiso   1.00
C1072  C     0.50443   0.31329   0.87664   0.00000  Uiso   1.00
C1073  C     0.48471   0.31115   0.79061   0.00000  Uiso   1.00
C1074  C     0.51261   0.02194   0.87586   0.00000  Uiso   1.00
C1075  C     0.49423   0.29058   0.83378   0.00000  Uiso   1.00
C1076  C     0.50363   0.04260   0.83264   0.00000  Uiso   1.00
C1077  C     0.46501   0.14360   0.68700   0.00000  Uiso   1.00
C1078  C     0.53528   0.18959   0.97965   0.00000  Uiso   1.00
C1079  C     0.46471   0.14316   0.97028   0.00000  Uiso   1.00
C1080  C     0.53560   0.19015   0.69668   0.00000  Uiso   1.00
Cu1081 Cu    0.50000   0.16667   0.88022   0.00000  Uiso   1.00
Cu1082 Cu    0.50000   0.16666   0.78645   0.00000  Uiso   1.00
H1083  H     0.65971   0.15995   0.77923   0.00000  Uiso   1.00
H1084  H     0.34011   0.17706   0.88699   0.00000  Uiso   1.00
H1085  H     0.43829   0.12477   0.70313   0.00000  Uiso   1.00
H1086  H     0.56323   0.20672   0.96302   0.00000  Uiso   1.00
N1087  N     0.50001   0.16668   0.95069   0.00000  Uiso   1.00
N1088  N     0.49999   0.16666   0.71597   0.00000  Uiso   1.00
O1089  O     0.50000   0.10655   0.87291   0.00000  Uiso   1.00
O1090  O     0.50000   0.22678   0.79375   0.00000  Uiso   1.00
O1091  O     0.50000   0.10654   0.79372   0.00000  Uiso   1.00
O1092  O     0.50000   0.22679   0.87294   0.00000  Uiso   1.00
O1093  O     0.42495   0.16667   0.86379   0.00000  Uiso   1.00
O1094  O     0.57505   0.16666   0.80288   0.00000  Uiso   1.00
O1095  O     0.42494   0.16666   0.78460   0.00000  Uiso   1.00
O1096  O     0.57506   0.16667   0.88207   0.00000  Uiso   1.00
C1097  C     0.49105   0.03847   0.74392   0.00000  Uiso   1.00
N1098  N     0.49079   0.05261   0.70715   0.00000  Uiso   1.00
C1099  C     0.50253   0.29487   0.92213   0.00000  Uiso   1.00
N1100  N     0.50018   0.28063   0.95848   0.00000  Uiso   1.00
C1101  C     0.46351   0.28988   0.74705   0.00000  Uiso   1.00
N1102  N     0.44635   0.27300   0.71251   0.00000  Uiso   1.00
C1103  C     0.53356   0.04288   0.91972   0.00000  Uiso   1.00
N1104  N     0.55048   0.05944   0.95455   0.00000  Uiso   1.00
O1105  O     0.43418   0.11559   0.94092   0.00000  Uiso   1.00
C1106  C     0.38280   0.11213   0.95145   0.00000  Uiso   1.00
H1107  H     0.35695   0.11366   0.91767   0.00000  Uiso   1.00
H1108  H     0.37107   0.13705   0.97461   0.00000  Uiso   1.00
C1109  C     0.37287   0.07051   0.97156   0.00000  Uiso   1.00
H1110  H     0.39366   0.06776   0.67424   0.00000  Uiso   1.00
H1111  H     0.66433   0.06626   0.97351   0.00000  Uiso   1.00
H1112  H     0.38546   0.04612   0.94841   0.00000  Uiso   1.00
O1113  O     0.57193   0.21172   0.72836   0.00000  Uiso   1.00
C1114  C     0.60121   0.24209   0.70883   0.00000  Uiso   1.00
H1115  H     0.61158   0.26602   0.73657   0.00000  Uiso   1.00
H1116  H     0.57933   0.25819   0.67925   0.00000  Uiso   1.00
C1117  C     0.65154   0.22507   0.69558   0.00000  Uiso   1.00
H1118  H     0.64431   0.19753   0.67247   0.00000  Uiso   1.00
H1119  H     0.33827   0.24847   0.67673   0.00000  Uiso   1.00
H1120  H     0.34382   0.21693   0.72794   0.00000  Uiso   1.00
C1121  C     0.83551   0.08741   0.83313   0.00000  Uiso   1.00
C1122  C     0.83046   0.24585   0.83344   0.00000  Uiso   1.00
C1123  C     0.73462   0.16664   0.82135   0.00000  Uiso   1.00
C1124  C     0.93202   0.16778   0.84529   0.00000  Uiso   1.00
C1125  C     0.67941   0.16565   0.81470   0.00000  Uiso   1.00
C1126  C     0.98715   0.17061   0.85169   0.00000  Uiso   1.00
C1127  C     0.82550   0.01993   0.78974   0.00000  Uiso   1.00
C1128  C     0.83776   0.31329   0.87664   0.00000  Uiso   1.00
C1129  C     0.81804   0.31115   0.79061   0.00000  Uiso   1.00
C1130  C     0.84595   0.02194   0.87586   0.00000  Uiso   1.00
C1131  C     0.82757   0.29058   0.83378   0.00000  Uiso   1.00
C1132  C     0.83697   0.04260   0.83264   0.00000  Uiso   1.00
C1133  C     0.79834   0.14360   0.68700   0.00000  Uiso   1.00
C1134  C     0.86862   0.18959   0.97965   0.00000  Uiso   1.00
C1135  C     0.79804   0.14316   0.97028   0.00000  Uiso   1.00
C1136  C     0.86893   0.19015   0.69668   0.00000  Uiso   1.00
Cu1137 Cu    0.83333   0.16667   0.88022   0.00000  Uiso   1.00
Cu1138 Cu    0.83333   0.16666   0.78645   0.00000  Uiso   1.00
H1139  H     0.99305   0.15995   0.77923   0.00000  Uiso   1.00
H1140  H     0.67345   0.17706   0.88699   0.00000  Uiso   1.00
H1141  H     0.77163   0.12477   0.70313   0.00000  Uiso   1.00
H1142  H     0.89656   0.20672   0.96302   0.00000  Uiso   1.00
N1143  N     0.83335   0.16668   0.95069   0.00000  Uiso   1.00
N1144  N     0.83332   0.16666   0.71597   0.00000  Uiso   1.00
O1145  O     0.83333   0.10655   0.87291   0.00000  Uiso   1.00
O1146  O     0.83334   0.22678   0.79375   0.00000  Uiso   1.00
O1147  O     0.83333   0.10654   0.79372   0.00000  Uiso   1.00
O1148  O     0.83334   0.22679   0.87294   0.00000  Uiso   1.00
O1149  O     0.75828   0.16667   0.86379   0.00000  Uiso   1.00
O1150  O     0.90839   0.16666   0.80288   0.00000  Uiso   1.00
O1151  O     0.75828   0.16666   0.78460   0.00000  Uiso   1.00
O1152  O     0.90839   0.16667   0.88207   0.00000  Uiso   1.00
C1153  C     0.82438   0.03847   0.74392   0.00000  Uiso   1.00
N1154  N     0.82413   0.05261   0.70715   0.00000  Uiso   1.00
C1155  C     0.83587   0.29487   0.92213   0.00000  Uiso   1.00
N1156  N     0.83351   0.28063   0.95848   0.00000  Uiso   1.00
C1157  C     0.79684   0.28988   0.74705   0.00000  Uiso   1.00
N1158  N     0.77968   0.27300   0.71251   0.00000  Uiso   1.00
C1159  C     0.86690   0.04288   0.91972   0.00000  Uiso   1.00
N1160  N     0.88381   0.05944   0.95455   0.00000  Uiso   1.00
O1161  O     0.76751   0.11559   0.94092   0.00000  Uiso   1.00
C1162  C     0.71613   0.11213   0.95145   0.00000  Uiso   1.00
H1163  H     0.69028   0.11366   0.91767   0.00000  Uiso   1.00
H1164  H     0.70441   0.13705   0.97461   0.00000  Uiso   1.00
C1165  C     0.70620   0.07051   0.97156   0.00000  Uiso   1.00
H1166  H     0.72699   0.06776   0.67424   0.00000  Uiso   1.00
H1167  H     0.99766   0.06626   0.97351   0.00000  Uiso   1.00
H1168  H     0.71879   0.04612   0.94841   0.00000  Uiso   1.00
O1169  O     0.90526   0.21172   0.72836   0.00000  Uiso   1.00
C1170  C     0.93455   0.24209   0.70883   0.00000  Uiso   1.00
H1171  H     0.94492   0.26602   0.73657   0.00000  Uiso   1.00
H1172  H     0.91267   0.25819   0.67925   0.00000  Uiso   1.00
C1173  C     0.98487   0.22507   0.69558   0.00000  Uiso   1.00
H1174  H     0.97765   0.19753   0.67247   0.00000  Uiso   1.00
H1175  H     0.67161   0.24847   0.67673   0.00000  Uiso   1.00
H1176  H     0.67715   0.21693   0.72794   0.00000  Uiso   1.00
C1177  C     0.16884   0.42074   0.83313   0.00000  Uiso   1.00
C1178  C     0.16379   0.57918   0.83344   0.00000  Uiso   1.00
C1179  C     0.06796   0.49997   0.82135   0.00000  Uiso   1.00
C1180  C     0.26535   0.50111   0.84529   0.00000  Uiso   1.00
C1181  C     0.01275   0.49898   0.81470   0.00000  Uiso   1.00
C1182  C     0.32048   0.50394   0.85169   0.00000  Uiso   1.00
C1183  C     0.15883   0.35326   0.78974   0.00000  Uiso   1.00
C1184  C     0.17110   0.64662   0.87664   0.00000  Uiso   1.00
C1185  C     0.15138   0.64449   0.79061   0.00000  Uiso   1.00
C1186  C     0.17928   0.35528   0.87586   0.00000  Uiso   1.00
C1187  C     0.16090   0.62391   0.83378   0.00000  Uiso   1.00
C1188  C     0.17030   0.37594   0.83264   0.00000  Uiso   1.00
C1189  C     0.13167   0.47693   0.68700   0.00000  Uiso   1.00
C1190  C     0.20195   0.52293   0.97965   0.00000  Uiso   1.00
C1191  C     0.13137   0.47649   0.97028   0.00000  Uiso   1.00
C1192  C     0.20227   0.52348   0.69668   0.00000  Uiso   1.00
Cu1193 Cu    0.16667   0.50001   0.88022   0.00000  Uiso   1.00
Cu1194 Cu    0.16667   0.49999   0.78645   0.00000  Uiso   1.00
H1195  H     0.32638   0.49328   0.77923   0.00000  Uiso   1.00
H1196  H     0.00678   0.51039   0.88699   0.00000  Uiso   1.00
H1197  H     0.10496   0.45810   0.70313   0.00000  Uiso   1.00
H1198  H     0.22989   0.54005   0.96302   0.00000  Uiso   1.00
N1199  N     0.16668   0.50001   0.95069   0.00000  Uiso   1.00
N1200  N     0.16665   0.49999   0.71597   0.00000  Uiso   1.00
O1201  O     0.16666   0.43989   0.87291   0.00000  Uiso   1.00
O1202  O     0.16667   0.56011   0.79375   0.00000  Uiso   1.00
O1203  O     0.16666   0.43988   0.79372   0.00000  Uiso   1.00
O1204  O     0.16667   0.56012   0.87294   0.00000  Uiso   1.00
O1205  O     0.09161   0.50000   0.86379   0.00000  Uiso   1.00
O1206  O     0.24172   0.50000   0.80288   0.00000  Uiso   1.00
O1207  O     0.09161   0.49999   0.78460   0.00000  Uiso   1.00
O1208  O     0.24172   0.50001   0.88207   0.00000  Uiso   1.00
C1209  C     0.15772   0.37181   0.74392   0.00000  Uiso   1.00
N1210  N     0.15746   0.38594   0.70715   0.00000  Uiso   1.00
C1211  C     0.16920   0.62820   0.92213   0.00000  Uiso   1.00
N1212  N     0.16684   0.61396   0.95848   0.00000  Uiso   1.00
C1213  C     0.13017   0.62321   0.74705   0.00000  Uiso   1.00
N1214  N     0.11302   0.60634   0.71251   0.00000  Uiso   1.00
C1215  C     0.20023   0.37621   0.91972   0.00000  Uiso   1.00
N1216  N     0.21714   0.39278   0.95455   0.00000  Uiso   1.00
O1217  O     0.10084   0.44893   0.94092   0.00000  Uiso   1.00
C1218  C     0.04947   0.44547   0.95145   0.00000  Uiso   1.00
H1219  H     0.02362   0.44700   0.91767   0.00000  Uiso   1.00
H1220  H     0.03774   0.47038   0.97461   0.00000  Uiso   1.00
C1221  C     0.03954   0.40385   0.97156   0.00000  Uiso   1.00
H1222  H     0.06032   0.40109   0.67424   0.00000  Uiso   1.00
H1223  H     0.33099   0.39960   0.97351   0.00000  Uiso   1.00
H1224  H     0.05213   0.37945   0.94841   0.00000  Uiso   1.00
O1225  O     0.23859   0.54505   0.72836   0.00000  Uiso   1.00
C1226  C     0.26788   0.57543   0.70883   0.00000  Uiso   1.00
H1227  H     0.27825   0.59935   0.73657   0.00000  Uiso   1.00
H1228  H     0.24600   0.59153   0.67925   0.00000  Uiso   1.00
C1229  C     0.31821   0.55840   0.69558   0.00000  Uiso   1.00
H1230  H     0.31098   0.53087   0.67247   0.00000  Uiso   1.00
H1231  H     0.00494   0.58180   0.67673   0.00000  Uiso   1.00
H1232  H     0.01049   0.55026   0.72794   0.00000  Uiso   1.00
C1233  C     0.50218   0.42074   0.83313   0.00000  Uiso   1.00
C1234  C     0.49712   0.57918   0.83344   0.00000  Uiso   1.00
C1235  C     0.40129   0.49997   0.82135   0.00000  Uiso   1.00
C1236  C     0.59868   0.50111   0.84529   0.00000  Uiso   1.00
C1237  C     0.34608   0.49898   0.81470   0.00000  Uiso   1.00
C1238  C     0.65382   0.50394   0.85169   0.00000  Uiso   1.00
C1239  C     0.49216   0.35326   0.78974   0.00000  Uiso   1.00
C1240  C     0.50443   0.64662   0.87664   0.00000  Uiso   1.00
C1241  C     0.48471   0.64449   0.79061   0.00000  Uiso   1.00
C1242  C     0.51261   0.35528   0.87586   0.00000  Uiso   1.00
C1243  C     0.49423   0.62391   0.83378   0.00000  Uiso   1.00
C1244  C     0.50363   0.37594   0.83264   0.00000  Uiso   1.00
C1245  C     0.46501   0.47693   0.68700   0.00000  Uiso   1.00
C1246  C     0.53528   0.52293   0.97965   0.00000  Uiso   1.00
C1247  C     0.46471   0.47649   0.97028   0.00000  Uiso   1.00
C1248  C     0.53560   0.52348   0.69668   0.00000  Uiso   1.00
Cu1249 Cu    0.50000   0.50001   0.88022   0.00000  Uiso   1.00
Cu1250 Cu    0.50000   0.49999   0.78645   0.00000  Uiso   1.00
H1251  H     0.65971   0.49328   0.77923   0.00000  Uiso   1.00
H1252  H     0.34011   0.51039   0.88699   0.00000  Uiso   1.00
H1253  H     0.43829   0.45810   0.70313   0.00000  Uiso   1.00
H1254  H     0.56323   0.54005   0.96302   0.00000  Uiso   1.00
N1255  N     0.50001   0.50001   0.95069   0.00000  Uiso   1.00
N1256  N     0.49999   0.49999   0.71597   0.00000  Uiso   1.00
O1257  O     0.50000   0.43989   0.87291   0.00000  Uiso   1.00
O1258  O     0.50000   0.56011   0.79375   0.00000  Uiso   1.00
O1259  O     0.50000   0.43988   0.79372   0.00000  Uiso   1.00
O1260  O     0.50000   0.56012   0.87294   0.00000  Uiso   1.00
O1261  O     0.42495   0.50000   0.86379   0.00000  Uiso   1.00
O1262  O     0.57505   0.50000   0.80288   0.00000  Uiso   1.00
O1263  O     0.42494   0.49999   0.78460   0.00000  Uiso   1.00
O1264  O     0.57506   0.50001   0.88207   0.00000  Uiso   1.00
C1265  C     0.49105   0.37181   0.74392   0.00000  Uiso   1.00
N1266  N     0.49079   0.38594   0.70715   0.00000  Uiso   1.00
C1267  C     0.50253   0.62820   0.92213   0.00000  Uiso   1.00
N1268  N     0.50018   0.61396   0.95848   0.00000  Uiso   1.00
C1269  C     0.46351   0.62321   0.74705   0.00000  Uiso   1.00
N1270  N     0.44635   0.60634   0.71251   0.00000  Uiso   1.00
C1271  C     0.53356   0.37621   0.91972   0.00000  Uiso   1.00
N1272  N     0.55048   0.39278   0.95455   0.00000  Uiso   1.00
O1273  O     0.43418   0.44893   0.94092   0.00000  Uiso   1.00
C1274  C     0.38280   0.44547   0.95145   0.00000  Uiso   1.00
H1275  H     0.35695   0.44700   0.91767   0.00000  Uiso   1.00
H1276  H     0.37107   0.47038   0.97461   0.00000  Uiso   1.00
C1277  C     0.37287   0.40385   0.97156   0.00000  Uiso   1.00
H1278  H     0.39366   0.40109   0.67424   0.00000  Uiso   1.00
H1279  H     0.66433   0.39960   0.97351   0.00000  Uiso   1.00
H1280  H     0.38546   0.37945   0.94841   0.00000  Uiso   1.00
O1281  O     0.57193   0.54505   0.72836   0.00000  Uiso   1.00
C1282  C     0.60121   0.57543   0.70883   0.00000  Uiso   1.00
H1283  H     0.61158   0.59935   0.73657   0.00000  Uiso   1.00
H1284  H     0.57933   0.59153   0.67925   0.00000  Uiso   1.00
C1285  C     0.65154   0.55840   0.69558   0.00000  Uiso   1.00
H1286  H     0.64431   0.53087   0.67247   0.00000  Uiso   1.00
H1287  H     0.33827   0.58180   0.67673   0.00000  Uiso   1.00
H1288  H     0.34382   0.55026   0.72794   0.00000  Uiso   1.00
C1289  C     0.83551   0.42074   0.83313   0.00000  Uiso   1.00
C1290  C     0.83046   0.57918   0.83344   0.00000  Uiso   1.00
C1291  C     0.73462   0.49997   0.82135   0.00000  Uiso   1.00
C1292  C     0.93202   0.50111   0.84529   0.00000  Uiso   1.00
C1293  C     0.67941   0.49898   0.81470   0.00000  Uiso   1.00
C1294  C     0.98715   0.50394   0.85169   0.00000  Uiso   1.00
C1295  C     0.82550   0.35326   0.78974   0.00000  Uiso   1.00
C1296  C     0.83776   0.64662   0.87664   0.00000  Uiso   1.00
C1297  C     0.81804   0.64449   0.79061   0.00000  Uiso   1.00
C1298  C     0.84595   0.35528   0.87586   0.00000  Uiso   1.00
C1299  C     0.82757   0.62391   0.83378   0.00000  Uiso   1.00
C1300  C     0.83697   0.37594   0.83264   0.00000  Uiso   1.00
C1301  C     0.79834   0.47693   0.68700   0.00000  Uiso   1.00
C1302  C     0.86862   0.52293   0.97965   0.00000  Uiso   1.00
C1303  C     0.79804   0.47649   0.97028   0.00000  Uiso   1.00
C1304  C     0.86893   0.52348   0.69668   0.00000  Uiso   1.00
Cu1305 Cu    0.83333   0.50001   0.88022   0.00000  Uiso   1.00
Cu1306 Cu    0.83333   0.49999   0.78645   0.00000  Uiso   1.00
H1307  H     0.99305   0.49328   0.77923   0.00000  Uiso   1.00
H1308  H     0.67345   0.51039   0.88699   0.00000  Uiso   1.00
H1309  H     0.77163   0.45810   0.70313   0.00000  Uiso   1.00
H1310  H     0.89656   0.54005   0.96302   0.00000  Uiso   1.00
N1311  N     0.83335   0.50001   0.95069   0.00000  Uiso   1.00
N1312  N     0.83332   0.49999   0.71597   0.00000  Uiso   1.00
O1313  O     0.83333   0.43989   0.87291   0.00000  Uiso   1.00
O1314  O     0.83334   0.56011   0.79375   0.00000  Uiso   1.00
O1315  O     0.83333   0.43988   0.79372   0.00000  Uiso   1.00
O1316  O     0.83334   0.56012   0.87294   0.00000  Uiso   1.00
O1317  O     0.75828   0.50000   0.86379   0.00000  Uiso   1.00
O1318  O     0.90839   0.50000   0.80288   0.00000  Uiso   1.00
O1319  O     0.75828   0.49999   0.78460   0.00000  Uiso   1.00
O1320  O     0.90839   0.50001   0.88207   0.00000  Uiso   1.00
C1321  C     0.82438   0.37181   0.74392   0.00000  Uiso   1.00
N1322  N     0.82413   0.38594   0.70715   0.00000  Uiso   1.00
C1323  C     0.83587   0.62820   0.92213   0.00000  Uiso   1.00
N1324  N     0.83351   0.61396   0.95848   0.00000  Uiso   1.00
C1325  C     0.79684   0.62321   0.74705   0.00000  Uiso   1.00
N1326  N     0.77968   0.60634   0.71251   0.00000  Uiso   1.00
C1327  C     0.86690   0.37621   0.91972   0.00000  Uiso   1.00
N1328  N     0.88381   0.39278   0.95455   0.00000  Uiso   1.00
O1329  O     0.76751   0.44893   0.94092   0.00000  Uiso   1.00
C1330  C     0.71613   0.44547   0.95145   0.00000  Uiso   1.00
H1331  H     0.69028   0.44700   0.91767   0.00000  Uiso   1.00
H1332  H     0.70441   0.47038   0.97461   0.00000  Uiso   1.00
C1333  C     0.70620   0.40385   0.97156   0.00000  Uiso   1.00
H1334  H     0.72699   0.40109   0.67424   0.00000  Uiso   1.00
H1335  H     0.99766   0.39960   0.97351   0.00000  Uiso   1.00
H1336  H     0.71879   0.37945   0.94841   0.00000  Uiso   1.00
O1337  O     0.90526   0.54505   0.72836   0.00000  Uiso   1.00
C1338  C     0.93455   0.57543   0.70883   0.00000  Uiso   1.00
H1339  H     0.94492   0.59935   0.73657   0.00000  Uiso   1.00
H1340  H     0.91267   0.59153   0.67925   0.00000  Uiso   1.00
C1341  C     0.98487   0.55840   0.69558   0.00000  Uiso   1.00
H1342  H     0.97765   0.53087   0.67247   0.00000  Uiso   1.00
H1343  H     0.67161   0.58180   0.67673   0.00000  Uiso   1.00
H1344  H     0.67715   0.55026   0.72794   0.00000  Uiso   1.00
C1345  C     0.16884   0.75408   0.83313   0.00000  Uiso   1.00
C1346  C     0.16379   0.91252   0.83344   0.00000  Uiso   1.00
C1347  C     0.06796   0.83331   0.82135   0.00000  Uiso   1.00
C1348  C     0.26535   0.83444   0.84529   0.00000  Uiso   1.00
C1349  C     0.01275   0.83232   0.81470   0.00000  Uiso   1.00
C1350  C     0.32048   0.83728   0.85169   0.00000  Uiso   1.00
C1351  C     0.15883   0.68659   0.78974   0.00000  Uiso   1.00
C1352  C     0.17110   0.97996   0.87664   0.00000  Uiso   1.00
C1353  C     0.15138   0.97782   0.79061   0.00000  Uiso   1.00
C1354  C     0.17928   0.68861   0.87586   0.00000  Uiso   1.00
C1355  C     0.16090   0.95725   0.83378   0.00000  Uiso   1.00
C1356  C     0.17030   0.70927   0.83264   0.00000  Uiso   1.00
C1357  C     0.13167   0.81027   0.68700   0.00000  Uiso   1.00
C1358  C     0.20195   0.85626   0.97965   0.00000  Uiso   1.00
C1359  C     0.13137   0.80983   0.97028   0.00000  Uiso   1.00
C1360  C     0.20227   0.85681   0.69668   0.00000  Uiso   1.00
Cu1361 Cu    0.16667   0.83334   0.88022   0.00000  Uiso   1.00
Cu1362 Cu    0.16667   0.83333   0.78645   0.00000  Uiso   1.00
H1363  H     0.32638   0.82662   0.77923   0.00000  Uiso   1.00
H1364  H     0.00678   0.84372   0.88699   0.00000  Uiso   1.00
H1365  H     0.10496   0.79144   0.70313   0.00000  Uiso   1.00
H1366  H     0.22989   0.87338   0.96302   0.00000  Uiso   1.00
N1367  N     0.16668   0.83334   0.95069   0.00000  Uiso   1.00
N1368  N     0.16665   0.83332   0.71597   0.00000  Uiso   1.00
O1369  O     0.16666   0.77322   0.87291   0.00000  Uiso   1.00
O1370  O     0.16667   0.89345   0.79375   0.00000  Uiso   1.00
O1371  O     0.16666   0.77321   0.79372   0.00000  Uiso   1.00
O1372  O     0.16667   0.89346   0.87294   0.00000  Uiso   1.00
O1373  O     0.09161   0.83334   0.86379   0.00000  Uiso   1.00
O1374  O     0.24172   0.83333   0.80288   0.00000  Uiso   1.00
O1375  O     0.09161   0.83333   0.78460   0.00000  Uiso   1.00
O1376  O     0.24172   0.83334   0.88207   0.00000  Uiso   1.00
C1377  C     0.15772   0.70514   0.74392   0.00000  Uiso   1.00
N1378  N     0.15746   0.71927   0.70715   0.00000  Uiso   1.00
C1379  C     0.16920   0.96154   0.92213   0.00000  Uiso   1.00
N1380  N     0.16684   0.94729   0.95848   0.00000  Uiso   1.00
C1381  C     0.13017   0.95655   0.74705   0.00000  Uiso   1.00
N1382  N     0.11302   0.93967   0.71251   0.00000  Uiso   1.00
C1383  C     0.20023   0.70955   0.91972   0.00000  Uiso   1.00
N1384  N     0.21714   0.72611   0.95455   0.00000  Uiso   1.00
O1385  O     0.10084   0.78226   0.94092   0.00000  Uiso   1.00
C1386  C     0.04947   0.77880   0.95145   0.00000  Uiso   1.00
H1387  H     0.02362   0.78033   0.91767   0.00000  Uiso   1.00
H1388  H     0.03774   0.80371   0.97461   0.00000  Uiso   1.00
C1389  C     0.03954   0.73718   0.97156   0.00000  Uiso   1.00
H1390  H     0.06032   0.73442   0.67424   0.00000  Uiso   1.00
H1391  H     0.33099   0.73293   0.97351   0.00000  Uiso   1.00
H1392  H     0.05213   0.71278   0.94841   0.00000  Uiso   1.00
O1393  O     0.23859   0.87838   0.72836   0.00000  Uiso   1.00
C1394  C     0.26788   0.90876   0.70883   0.00000  Uiso   1.00
H1395  H     0.27825   0.93268   0.73657   0.00000  Uiso   1.00
H1396  H     0.24600   0.92486   0.67925   0.00000  Uiso   1.00
C1397  C     0.31821   0.89173   0.69558   0.00000  Uiso   1.00
H1398  H     0.31098   0.86420   0.67247   0.00000  Uiso   1.00
H1399  H     0.00494   0.91513   0.67673   0.00000  Uiso   1.00
H1400  H     0.01049   0.88360   0.72794   0.00000  Uiso   1.00
C1401  C     0.50218   0.75408   0.83313   0.00000  Uiso   1.00
C1402  C     0.49712   0.91252   0.83344   0.00000  Uiso   1.00
C1403  C     0.40129   0.83331   0.82135   0.00000  Uiso   1.00
C1404  C     0.59868   0.83444   0.84529   0.00000  Uiso   1.00
C1405  C     0.34608   0.83232   0.81470   0.00000  Uiso   1.00
C1406  C     0.65382   0.83728   0.85169   0.00000  Uiso   1.00
C1407  C     0.49216   0.68659   0.78974   0.00000  Uiso   1.00
C1408  C     0.50443   0.97996   0.87664   0.00000  Uiso   1.00
C1409  C     0.48471   0.97782   0.79061   0.00000  Uiso   1.00
C1410  C     0.51261   0.68861   0.87586   0.00000  Uiso   1.00
C1411  C     0.49423   0.95725   0.83378   0.00000  Uiso   1.00
C1412  C     0.50363   0.70927   0.83264   0.00000  Uiso   1.00
C1413  C     0.46501   0.81027   0.68700   0.00000  Uiso   1.00
C1414  C     0.53528   0.85626   0.97965   0.00000  Uiso   1.00
C1415  C     0.46471   0.80983   0.97028   0.00000  Uiso   1.00
C1416  C     0.53560   0.85681   0.69668   0.00000  Uiso   1.00
Cu1417 Cu    0.50000   0.83334   0.88022   0.00000  Uiso   1.00
Cu1418 Cu    0.50000   0.83333   0.78645   0.00000  Uiso   1.00
H1419  H     0.65971   0.82662   0.77923   0.00000  Uiso   1.00
H1420  H     0.34011   0.84372   0.88699   0.00000  Uiso   1.00
H1421  H     0.43829   0.79144   0.70313   0.00000  Uiso   1.00
H1422  H     0.56323   0.87338   0.96302   0.00000  Uiso   1.00
N1423  N     0.50001   0.83334   0.95069   0.00000  Uiso   1.00
N1424  N     0.49999   0.83332   0.71597   0.00000  Uiso   1.00
O1425  O     0.50000   0.77322   0.87291   0.00000  Uiso   1.00
O1426  O     0.50000   0.89345   0.79375   0.00000  Uiso   1.00
O1427  O     0.50000   0.77321   0.79372   0.00000  Uiso   1.00
O1428  O     0.50000   0.89346   0.87294   0.00000  Uiso   1.00
O1429  O     0.42495   0.83334   0.86379   0.00000  Uiso   1.00
O1430  O     0.57505   0.83333   0.80288   0.00000  Uiso   1.00
O1431  O     0.42494   0.83333   0.78460   0.00000  Uiso   1.00
O1432  O     0.57506   0.83334   0.88207   0.00000  Uiso   1.00
C1433  C     0.49105   0.70514   0.74392   0.00000  Uiso   1.00
N1434  N     0.49079   0.71927   0.70715   0.00000  Uiso   1.00
C1435  C     0.50253   0.96154   0.92213   0.00000  Uiso   1.00
N1436  N     0.50018   0.94729   0.95848   0.00000  Uiso   1.00
C1437  C     0.46351   0.95655   0.74705   0.00000  Uiso   1.00
N1438  N     0.44635   0.93967   0.71251   0.00000  Uiso   1.00
C1439  C     0.53356   0.70955   0.91972   0.00000  Uiso   1.00
N1440  N     0.55048   0.72611   0.95455   0.00000  Uiso   1.00
O1441  O     0.43418   0.78226   0.94092   0.00000  Uiso   1.00
C1442  C     0.38280   0.77880   0.95145   0.00000  Uiso   1.00
H1443  H     0.35695   0.78033   0.91767   0.00000  Uiso   1.00
H1444  H     0.37107   0.80371   0.97461   0.00000  Uiso   1.00
C1445  C     0.37287   0.73718   0.97156   0.00000  Uiso   1.00
H1446  H     0.39366   0.73442   0.67424   0.00000  Uiso   1.00
H1447  H     0.66433   0.73293   0.97351   0.00000  Uiso   1.00
H1448  H     0.38546   0.71278   0.94841   0.00000  Uiso   1.00
O1449  O     0.57193   0.87838   0.72836   0.00000  Uiso   1.00
C1450  C     0.60121   0.90876   0.70883   0.00000  Uiso   1.00
H1451  H     0.61158   0.93268   0.73657   0.00000  Uiso   1.00
H1452  H     0.57933   0.92486   0.67925   0.00000  Uiso   1.00
C1453  C     0.65154   0.89173   0.69558   0.00000  Uiso   1.00
H1454  H     0.64431   0.86420   0.67247   0.00000  Uiso   1.00
H1455  H     0.33827   0.91513   0.67673   0.00000  Uiso   1.00
H1456  H     0.34382   0.88360   0.72794   0.00000  Uiso   1.00
C1457  C     0.83551   0.75408   0.83313   0.00000  Uiso   1.00
C1458  C     0.83046   0.91252   0.83344   0.00000  Uiso   1.00
C1459  C     0.73462   0.83331   0.82135   0.00000  Uiso   1.00
C1460  C     0.93202   0.83444   0.84529   0.00000  Uiso   1.00
C1461  C     0.67941   0.83232   0.81470   0.00000  Uiso   1.00
C1462  C     0.98715   0.83728   0.85169   0.00000  Uiso   1.00
C1463  C     0.82550   0.68659   0.78974   0.00000  Uiso   1.00
C1464  C     0.83776   0.97996   0.87664   0.00000  Uiso   1.00
C1465  C     0.81804   0.97782   0.79061   0.00000  Uiso   1.00
C1466  C     0.84595   0.68861   0.87586   0.00000  Uiso   1.00
C1467  C     0.82757   0.95725   0.83378   0.00000  Uiso   1.00
C1468  C     0.83697   0.70927   0.83264   0.00000  Uiso   1.00
C1469  C     0.79834   0.81027   0.68700   0.00000  Uiso   1.00
C1470  C     0.86862   0.85626   0.97965   0.00000  Uiso   1.00
C1471  C     0.79804   0.80983   0.97028   0.00000  Uiso   1.00
C1472  C     0.86893   0.85681   0.69668   0.00000  Uiso   1.00
Cu1473 Cu    0.83333   0.83334   0.88022   0.00000  Uiso   1.00
Cu1474 Cu    0.83333   0.83333   0.78645   0.00000  Uiso   1.00
H1475  H     0.99305   0.82662   0.77923   0.00000  Uiso   1.00
H1476  H     0.67345   0.84372   0.88699   0.00000  Uiso   1.00
H1477  H     0.77163   0.79144   0.70313   0.00000  Uiso   1.00
H1478  H     0.89656   0.87338   0.96302   0.00000  Uiso   1.00
N1479  N     0.83335   0.83334   0.95069   0.00000  Uiso   1.00
N1480  N     0.83332   0.83332   0.71597   0.00000  Uiso   1.00
O1481  O     0.83333   0.77322   0.87291   0.00000  Uiso   1.00
O1482  O     0.83334   0.89345   0.79375   0.00000  Uiso   1.00
O1483  O     0.83333   0.77321   0.79372   0.00000  Uiso   1.00
O1484  O     0.83334   0.89346   0.87294   0.00000  Uiso   1.00
O1485  O     0.75828   0.83334   0.86379   0.00000  Uiso   1.00
O1486  O     0.90839   0.83333   0.80288   0.00000  Uiso   1.00
O1487  O     0.75828   0.83333   0.78460   0.00000  Uiso   1.00
O1488  O     0.90839   0.83334   0.88207   0.00000  Uiso   1.00
C1489  C     0.82438   0.70514   0.74392   0.00000  Uiso   1.00
N1490  N     0.82413   0.71927   0.70715   0.00000  Uiso   1.00
C1491  C     0.83587   0.96154   0.92213   0.00000  Uiso   1.00
N1492  N     0.83351   0.94729   0.95848   0.00000  Uiso   1.00
C1493  C     0.79684   0.95655   0.74705   0.00000  Uiso   1.00
N1494  N     0.77968   0.93967   0.71251   0.00000  Uiso   1.00
C1495  C     0.86690   0.70955   0.91972   0.00000  Uiso   1.00
N1496  N     0.88381   0.72611   0.95455   0.00000  Uiso   1.00
O1497  O     0.76751   0.78226   0.94092   0.00000  Uiso   1.00
C1498  C     0.71613   0.77880   0.95145   0.00000  Uiso   1.00
H1499  H     0.69028   0.78033   0.91767   0.00000  Uiso   1.00
H1500  H     0.70441   0.80371   0.97461   0.00000  Uiso   1.00
C1501  C     0.70620   0.73718   0.97156   0.00000  Uiso   1.00
H1502  H     0.72699   0.73442   0.67424   0.00000  Uiso   1.00
H1503  H     0.99766   0.73293   0.97351   0.00000  Uiso   1.00
H1504  H     0.71879   0.71278   0.94841   0.00000  Uiso   1.00
O1505  O     0.90526   0.87838   0.72836   0.00000  Uiso   1.00
C1506  C     0.93455   0.90876   0.70883   0.00000  Uiso   1.00
H1507  H     0.94492   0.93268   0.73657   0.00000  Uiso   1.00
H1508  H     0.91267   0.92486   0.67925   0.00000  Uiso   1.00
C1509  C     0.98487   0.89173   0.69558   0.00000  Uiso   1.00
H1510  H     0.97765   0.86420   0.67247   0.00000  Uiso   1.00
H1511  H     0.67161   0.91513   0.67673   0.00000  Uiso   1.00
H1512  H     0.67715   0.88360   0.72794   0.00000  Uiso   1.00
loop_
_geom_bond_atom_site_label_1
_geom_bond_atom_site_label_2
_geom_bond_distance
_geom_bond_site_symmetry_2
_ccdc_geom_bond_type
C1     O25     1.297   .     A
C1     O27     1.296   .     A
C1     C12     1.474   .     S
C2     C11     1.474   .     S
C2     O26     1.297   .     A
C2     O28     1.296   .     A
C3     O31     1.285   .     A
C3     O29     1.288   .     A
C3     C5      1.432   .     S
C4     O32     1.286   .     A
C4     C6      1.431   .     S
C4     O30     1.287   .     A
C5     C118    1.331   1_455 S
C5     H131    1.087   1_455 S
C6     C61     1.331   .     S
C6     H76     1.086   .     S
C7     C12     1.418   .     A
C7     C33     1.452   .     S
C7     C345    1.396   1_545 S
C8     C11     1.415   .     A
C8     C35     1.450   .     S
C8     C178    1.394   .     S
C9     C37     1.456   .     S
C9     C11     1.414   .     A
C9     C175    1.396   .     S
C10    C12     1.416   .     A
C10    C39     1.456   .     S
C10    C344    1.394   1_545 S
C13    H21     1.078   .     S
C13    N24     1.361   .     A
C13    C1023   1.429   1_554 S
C14    N23     1.363   .     A
C14    H22     1.078   .     S
C14    C520    1.437   .     S
C15    N23     1.374   .     A
C15    O41     1.391   .     S
C15    C517    1.429   .     S
C16    N24     1.375   .     A
C16    O49     1.398   .     S
C16    C1022   1.437   1_554 S
Cu17   O29     1.959   .     S
Cu17   O25     1.984   .     S
Cu17   Cu18    2.679   .     S
Cu17   N23     2.013   .     S
Cu17   O32     1.957   .     S
Cu17   O28     1.991   .     S
Cu18   O26     1.984   .     S
Cu18   O30     1.959   .     S
Cu18   N24     2.013   .     S
Cu18   O31     1.957   .     S
Cu18   O27     1.991   .     S
H19    C61     1.087   .     S
H20    C118    1.086   1_455 S
C33    N34     1.156   .     T
C35    N36     1.156   .     T
C37    N38     1.157   .     T
C39    N40     1.157   .     T
O41    C42     1.417   .     S
C42    H44     1.115   .     S
C42    H43     1.107   .     S
C42    C45     1.525   .     S
C45    H48     1.111   .     S
C45    H550    1.106   .     S
C45    H159    1.110   1_455 S
H46    C1053   1.106   1_554 S
H47    C101    1.110   .     S
O49    C50     1.414   .     S
C50    H52     1.107   .     S
C50    C53     1.528   .     S
C50    H51     1.111   .     S
C53    H54     1.109   .     S
C53    H111    1.110   .     S
C53    H112    1.110   .     S
H55    C165    1.110   1_455 S
H56    C165    1.110   1_455 S
C57    O81     1.297   .     A
C57    O83     1.296   .     A
C57    C68     1.474   .     S
C58    C67     1.474   .     S
C58    O82     1.297   .     A
C58    O84     1.296   .     A
C59    O87     1.285   .     A
C59    O85     1.288   .     A
C59    C61     1.432   .     S
C60    O88     1.286   .     A
C60    C62     1.431   .     S
C60    O86     1.287   .     A
C62    C117    1.331   .     S
C62    H132    1.086   .     S
C63    C68     1.418   .     A
C63    C89     1.452   .     S
C63    C401    1.396   1_545 S
C64    C67     1.415   .     A
C64    C91     1.450   .     S
C64    C234    1.394   .     S
C65    C93     1.456   .     S
C65    C67     1.414   .     A
C65    C231    1.396   .     S
C66    C68     1.416   .     A
C66    C95     1.456   .     S
C66    C400    1.394   1_545 S
C69    H77     1.078   .     S
C69    N80     1.361   .     A
C69    C1079   1.429   1_554 S
C70    N79     1.363   .     A
C70    H78     1.078   .     S
C70    C576    1.437   .     S
C71    N79     1.374   .     A
C71    O97     1.391   .     S
C71    C573    1.429   .     S
C72    N80     1.375   .     A
C72    O105    1.398   .     S
C72    C1078   1.437   1_554 S
Cu73   O85     1.959   .     S
Cu73   O81     1.984   .     S
Cu73   Cu74    2.679   .     S
Cu73   N79     2.013   .     S
Cu73   O88     1.957   .     S
Cu73   O84     1.991   .     S
Cu74   O82     1.984   .     S
Cu74   O86     1.959   .     S
Cu74   N80     2.013   .     S
Cu74   O87     1.957   .     S
Cu74   O83     1.991   .     S
H75    C117    1.087   .     S
C89    N90     1.156   .     T
C91    N92     1.156   .     T
C93    N94     1.157   .     T
C95    N96     1.157   .     T
O97    C98     1.417   .     S
C98    H100    1.115   .     S
C98    H99     1.107   .     S
C98    C101    1.525   .     S
C101   H104    1.111   .     S
C101   H606    1.106   .     S
H102   C1109   1.106   1_554 S
H103   C157    1.110   .     S
O105   C106    1.414   .     S
C106   H108    1.107   .     S
C106   C109    1.528   .     S
C106   H107    1.111   .     S
C109   H110    1.109   .     S
C109   H167    1.110   .     S
C109   H168    1.110   .     S
C113   O137    1.297   .     A
C113   O139    1.296   .     A
C113   C124    1.474   .     S
C114   C123    1.474   .     S
C114   O138    1.297   .     A
C114   O140    1.296   .     A
C115   O143    1.285   .     A
C115   O141    1.288   .     A
C115   C117    1.432   .     S
C116   O144    1.286   .     A
C116   C118    1.431   .     S
C116   O142    1.287   .     A
C118   C5      1.331   1_655 S
C118   H20     1.086   1_655 S
C119   C124    1.418   .     A
C119   C145    1.452   .     S
C119   C457    1.396   1_545 S
C120   C123    1.415   .     A
C120   C147    1.450   .     S
C120   C290    1.394   .     S
C121   C149    1.456   .     S
C121   C123    1.414   .     A
C121   C287    1.396   .     S
C122   C124    1.416   .     A
C122   C151    1.456   .     S
C122   C456    1.394   1_545 S
C125   H133    1.078   .     S
C125   N136    1.361   .     A
C125   C1135   1.429   1_554 S
C126   N135    1.363   .     A
C126   H134    1.078   .     S
C126   C632    1.437   .     S
C127   N135    1.374   .     A
C127   O153    1.391   .     S
C127   C629    1.429   .     S
C128   N136    1.375   .     A
C128   O161    1.398   .     S
C128   C1134   1.437   1_554 S
Cu129  O141    1.959   .     S
Cu129  O137    1.984   .     S
Cu129  Cu130   2.679   .     S
Cu129  N135    2.013   .     S
Cu129  O144    1.957   .     S
Cu129  O140    1.991   .     S
Cu130  O138    1.984   .     S
Cu130  O142    1.959   .     S
Cu130  N136    2.013   .     S
Cu130  O143    1.957   .     S
Cu130  O139    1.991   .     S
H131   C5      1.087   1_655 S
C145   N146    1.156   .     T
C147   N148    1.156   .     T
C149   N150    1.157   .     T
C151   N152    1.157   .     T
O153   C154    1.417   .     S
C154   H156    1.115   .     S
C154   H155    1.107   .     S
C154   C157    1.525   .     S
C157   H160    1.111   .     S
C157   H662    1.106   .     S
H158   C1165   1.106   1_554 S
H159   C45     1.110   1_655 S
O161   C162    1.414   .     S
C162   H164    1.107   .     S
C162   C165    1.528   .     S
C162   H163    1.111   .     S
C165   H166    1.109   .     S
C165   H55     1.110   1_655 S
C165   H56     1.110   1_655 S
C169   O193    1.297   .     A
C169   O195    1.296   .     A
C169   C180    1.474   .     S
C170   C179    1.474   .     S
C170   O194    1.297   .     A
C170   O196    1.296   .     A
C171   O199    1.285   .     A
C171   O197    1.288   .     A
C171   C173    1.432   .     S
C172   O200    1.286   .     A
C172   C174    1.431   .     S
C172   O198    1.287   .     A
C173   C286    1.331   1_455 S
C173   H299    1.087   1_455 S
C174   C229    1.331   .     S
C174   H244    1.086   .     S
C175   C180    1.418   .     A
C175   C201    1.452   .     S
C176   C179    1.415   .     A
C176   C203    1.450   .     S
C176   C346    1.394   .     S
C177   C205    1.456   .     S
C177   C179    1.414   .     A
C177   C343    1.396   .     S
C178   C180    1.416   .     A
C178   C207    1.456   .     S
C181   H189    1.078   .     S
C181   N192    1.361   .     A
C181   C1191   1.429   1_554 S
C182   N191    1.363   .     A
C182   H190    1.078   .     S
C182   C688    1.437   .     S
C183   N191    1.374   .     A
C183   O209    1.391   .     S
C183   C685    1.429   .     S
C184   N192    1.375   .     A
C184   O217    1.398   .     S
C184   C1190   1.437   1_554 S
Cu185  O197    1.959   .     S
Cu185  O193    1.984   .     S
Cu185  Cu186   2.679   .     S
Cu185  N191    2.013   .     S
Cu185  O200    1.957   .     S
Cu185  O196    1.991   .     S
Cu186  O194    1.984   .     S
Cu186  O198    1.959   .     S
Cu186  N192    2.013   .     S
Cu186  O199    1.957   .     S
Cu186  O195    1.991   .     S
H187   C229    1.087   .     S
H188   C286    1.086   1_455 S
C201   N202    1.156   .     T
C203   N204    1.156   .     T
C205   N206    1.157   .     T
C207   N208    1.157   .     T
O209   C210    1.417   .     S
C210   H212    1.115   .     S
C210   H211    1.107   .     S
C210   C213    1.525   .     S
C213   H216    1.111   .     S
C213   H718    1.106   .     S
C213   H327    1.110   1_455 S
H214   C1221   1.106   1_554 S
H215   C269    1.110   .     S
O217   C218    1.414   .     S
C218   H220    1.107   .     S
C218   C221    1.528   .     S
C218   H219    1.111   .     S
C221   H222    1.109   .     S
C221   H279    1.110   .     S
C221   H280    1.110   .     S
H223   C333    1.110   1_455 S
H224   C333    1.110   1_455 S
C225   O249    1.297   .     A
C225   O251    1.296   .     A
C225   C236    1.474   .     S
C226   C235    1.474   .     S
C226   O250    1.297   .     A
C226   O252    1.296   .     A
C227   O255    1.285   .     A
C227   O253    1.288   .     A
C227   C229    1.432   .     S
C228   O256    1.286   .     A
C228   C230    1.431   .     S
C228   O254    1.287   .     A
C230   C285    1.331   .     S
C230   H300    1.086   .     S
C231   C236    1.418   .     A
C231   C257    1.452   .     S
C232   C235    1.415   .     A
C232   C259    1.450   .     S
C232   C402    1.394   .     S
C233   C261    1.456   .     S
C233   C235    1.414   .     A
C233   C399    1.396   .     S
C234   C236    1.416   .     A
C234   C263    1.456   .     S
C237   H245    1.078   .     S
C237   N248    1.361   .     A
C237   C1247   1.429   1_554 S
C238   N247    1.363   .     A
C238   H246    1.078   .     S
C238   C744    1.437   .     S
C239   N247    1.374   .     A
C239   O265    1.391   .     S
C239   C741    1.429   .     S
C240   N248    1.375   .     A
C240   O273    1.398   .     S
C240   C1246   1.437   1_554 S
Cu241  O253    1.959   .     S
Cu241  O249    1.984   .     S
Cu241  Cu242   2.679   .     S
Cu241  N247    2.013   .     S
Cu241  O256    1.957   .     S
Cu241  O252    1.991   .     S
Cu242  O250    1.984   .     S
Cu242  O254    1.959   .     S
Cu242  N248    2.013   .     S
Cu242  O255    1.957   .     S
Cu242  O251    1.991   .     S
H243   C285    1.087   .     S
C257   N258    1.156   .     T
C259   N260    1.156   .     T
C261   N262    1.157   .     T
C263   N264    1.157   .     T
O265   C266    1.417   .     S
C266   H268    1.115   .     S
C266   H267    1.107   .     S
C266   C269    1.525   .     S
C269   H272    1.111   .     S
C269   H774    1.106   .     S
H270   C1277   1.106   1_554 S
H271   C325    1.110   .     S
O273   C274    1.414   .     S
C274   H276    1.107   .     S
C274   C277    1.528   .     S
C274   H275    1.111   .     S
C277   H278    1.109   .     S
C277   H335    1.110   .     S
C277   H336    1.110   .     S
C281   O305    1.297   .     A
C281   O307    1.296   .     A
C281   C292    1.474   .     S
C282   C291    1.474   .     S
C282   O306    1.297   .     A
C282   O308    1.296   .     A
C283   O311    1.285   .     A
C283   O309    1.288   .     A
C283   C285    1.432   .     S
C284   O312    1.286   .     A
C284   C286    1.431   .     S
C284   O310    1.287   .     A
C286   C173    1.331   1_655 S
C286   H188    1.086   1_655 S
C287   C292    1.418   .     A
C287   C313    1.452   .     S
C288   C291    1.415   .     A
C288   C315    1.450   .     S
C288   C458    1.394   .     S
C289   C317    1.456   .     S
C289   C291    1.414   .     A
C289   C455    1.396   .     S
C290   C292    1.416   .     A
C290   C319    1.456   .     S
C293   H301    1.078   .     S
C293   N304    1.361   .     A
C293   C1303   1.429   1_554 S
C294   N303    1.363   .     A
C294   H302    1.078   .     S
C294   C800    1.437   .     S
C295   N303    1.374   .     A
C295   O321    1.391   .     S
C295   C797    1.429   .     S
C296   N304    1.375   .     A
C296   O329    1.398   .     S
C296   C1302   1.437   1_554 S
Cu297  O309    1.959   .     S
Cu297  O305    1.984   .     S
Cu297  Cu298   2.679   .     S
Cu297  N303    2.013   .     S
Cu297  O312    1.957   .     S
Cu297  O308    1.991   .     S
Cu298  O306    1.984   .     S
Cu298  O310    1.959   .     S
Cu298  N304    2.013   .     S
Cu298  O311    1.957   .     S
Cu298  O307    1.991   .     S
H299   C173    1.087   1_655 S
C313   N314    1.156   .     T
C315   N316    1.156   .     T
C317   N318    1.157   .     T
C319   N320    1.157   .     T
O321   C322    1.417   .     S
C322   H324    1.115   .     S
C322   H323    1.107   .     S
C322   C325    1.525   .     S
C325   H328    1.111   .     S
C325   H830    1.106   .     S
H326   C1333   1.106   1_554 S
H327   C213    1.110   1_655 S
O329   C330    1.414   .     S
C330   H332    1.107   .     S
C330   C333    1.528   .     S
C330   H331    1.111   .     S
C333   H334    1.109   .     S
C333   H223    1.110   1_655 S
C333   H224    1.110   1_655 S
C337   O361    1.297   .     A
C337   O363    1.296   .     A
C337   C348    1.474   .     S
C338   C347    1.474   .     S
C338   O362    1.297   .     A
C338   O364    1.296   .     A
C339   O367    1.285   .     A
C339   O365    1.288   .     A
C339   C341    1.432   .     S
C340   O368    1.286   .     A
C340   C342    1.431   .     S
C340   O366    1.287   .     A
C341   C454    1.331   1_455 S
C341   H467    1.087   1_455 S
C342   C397    1.331   .     S
C342   H412    1.086   .     S
C343   C348    1.418   .     A
C343   C369    1.452   .     S
C344   C347    1.415   .     A
C344   C371    1.450   .     S
C344   C10     1.394   1_565 S
C345   C373    1.456   .     S
C345   C347    1.414   .     A
C345   C7      1.396   1_565 S
C346   C348    1.416   .     A
C346   C375    1.456   .     S
C349   H357    1.078   .     S
C349   N360    1.361   .     A
C349   C1359   1.429   1_554 S
C350   N359    1.363   .     A
C350   H358    1.078   .     S
C350   C856    1.437   .     S
C351   N359    1.374   .     A
C351   O377    1.391   .     S
C351   C853    1.429   .     S
C352   N360    1.375   .     A
C352   O385    1.398   .     S
C352   C1358   1.437   1_554 S
Cu353  O365    1.959   .     S
Cu353  O361    1.984   .     S
Cu353  Cu354   2.679   .     S
Cu353  N359    2.013   .     S
Cu353  O368    1.957   .     S
Cu353  O364    1.991   .     S
Cu354  O362    1.984   .     S
Cu354  O366    1.959   .     S
Cu354  N360    2.013   .     S
Cu354  O367    1.957   .     S
Cu354  O363    1.991   .     S
H355   C397    1.087   .     S
H356   C454    1.086   1_455 S
C369   N370    1.156   .     T
C371   N372    1.156   .     T
C373   N374    1.157   .     T
C375   N376    1.157   .     T
O377   C378    1.417   .     S
C378   H380    1.115   .     S
C378   H379    1.107   .     S
C378   C381    1.525   .     S
C381   H384    1.111   .     S
C381   H886    1.106   .     S
C381   H495    1.110   1_455 S
H382   C1389   1.106   1_554 S
H383   C437    1.110   .     S
O385   C386    1.414   .     S
C386   H388    1.107   .     S
C386   C389    1.528   .     S
C386   H387    1.111   .     S
C389   H390    1.109   .     S
C389   H447    1.110   .     S
C389   H448    1.110   .     S
H391   C501    1.110   1_455 S
H392   C501    1.110   1_455 S
C393   O417    1.297   .     A
C393   O419    1.296   .     A
C393   C404    1.474   .     S
C394   C403    1.474   .     S
C394   O418    1.297   .     A
C394   O420    1.296   .     A
C395   O423    1.285   .     A
C395   O421    1.288   .     A
C395   C397    1.432   .     S
C396   O424    1.286   .     A
C396   C398    1.431   .     S
C396   O422    1.287   .     A
C398   C453    1.331   .     S
C398   H468    1.086   .     S
C399   C404    1.418   .     A
C399   C425    1.452   .     S
C400   C403    1.415   .     A
C400   C427    1.450   .     S
C400   C66     1.394   1_565 S
C401   C429    1.456   .     S
C401   C403    1.414   .     A
C401   C63     1.396   1_565 S
C402   C404    1.416   .     A
C402   C431    1.456   .     S
C405   H413    1.078   .     S
C405   N416    1.361   .     A
C405   C1415   1.429   1_554 S
C406   N415    1.363   .     A
C406   H414    1.078   .     S
C406   C912    1.437   .     S
C407   N415    1.374   .     A
C407   O433    1.391   .     S
C407   C909    1.429   .     S
C408   N416    1.375   .     A
C408   O441    1.398   .     S
C408   C1414   1.437   1_554 S
Cu409  O421    1.959   .     S
Cu409  O417    1.984   .     S
Cu409  Cu410   2.679   .     S
Cu409  N415    2.013   .     S
Cu409  O424    1.957   .     S
Cu409  O420    1.991   .     S
Cu410  O418    1.984   .     S
Cu410  O422    1.959   .     S
Cu410  N416    2.013   .     S
Cu410  O423    1.957   .     S
Cu410  O419    1.991   .     S
H411   C453    1.087   .     S
C425   N426    1.156   .     T
C427   N428    1.156   .     T
C429   N430    1.157   .     T
C431   N432    1.157   .     T
O433   C434    1.417   .     S
C434   H436    1.115   .     S
C434   H435    1.107   .     S
C434   C437    1.525   .     S
C437   H440    1.111   .     S
C437   H942    1.106   .     S
H438   C1445   1.106   1_554 S
H439   C493    1.110   .     S
O441   C442    1.414   .     S
C442   H444    1.107   .     S
C442   C445    1.528   .     S
C442   H443    1.111   .     S
C445   H446    1.109   .     S
C445   H503    1.110   .     S
C445   H504    1.110   .     S
C449   O473    1.297   .     A
C449   O475    1.296   .     A
C449   C460    1.474   .     S
C450   C459    1.474   .     S
C450   O474    1.297   .     A
C450   O476    1.296   .     A
C451   O479    1.285   .     A
C451   O477    1.288   .     A
C451   C453    1.432   .     S
C452   O480    1.286   .     A
C452   C454    1.431   .     S
C452   O478    1.287   .     A
C454   C341    1.331   1_655 S
C454   H356    1.086   1_655 S
C455   C460    1.418   .     A
C455   C481    1.452   .     S
C456   C459    1.415   .     A
C456   C483    1.450   .     S
C456   C122    1.394   1_565 S
C457   C485    1.456   .     S
C457   C459    1.414   .     A
C457   C119    1.396   1_565 S
C458   C460    1.416   .     A
C458   C487    1.456   .     S
C461   H469    1.078   .     S
C461   N472    1.361   .     A
C461   C1471   1.429   1_554 S
C462   N471    1.363   .     A
C462   H470    1.078   .     S
C462   C968    1.437   .     S
C463   N471    1.374   .     A
C463   O489    1.391   .     S
C463   C965    1.429   .     S
C464   N472    1.375   .     A
C464   O497    1.398   .     S
C464   C1470   1.437   1_554 S
Cu465  O477    1.959   .     S
Cu465  O473    1.984   .     S
Cu465  Cu466   2.679   .     S
Cu465  N471    2.013   .     S
Cu465  O480    1.957   .     S
Cu465  O476    1.991   .     S
Cu466  O474    1.984   .     S
Cu466  O478    1.959   .     S
Cu466  N472    2.013   .     S
Cu466  O479    1.957   .     S
Cu466  O475    1.991   .     S
H467   C341    1.087   1_655 S
C481   N482    1.156   .     T
C483   N484    1.156   .     T
C485   N486    1.157   .     T
C487   N488    1.157   .     T
O489   C490    1.417   .     S
C490   H492    1.115   .     S
C490   H491    1.107   .     S
C490   C493    1.525   .     S
C493   H496    1.111   .     S
C493   H998    1.106   .     S
H494   C1501   1.106   1_554 S
H495   C381    1.110   1_655 S
O497   C498    1.414   .     S
C498   H500    1.107   .     S
C498   C501    1.528   .     S
C498   H499    1.111   .     S
C501   H502    1.109   .     S
C501   H391    1.110   1_655 S
C501   H392    1.110   1_655 S
C505   O529    1.297   .     A
C505   O531    1.296   .     A
C505   C516    1.474   .     S
C506   C515    1.474   .     S
C506   O530    1.297   .     A
C506   O532    1.296   .     A
C507   O535    1.285   .     A
C507   O533    1.288   .     A
C507   C509    1.432   .     S
C508   O536    1.286   .     A
C508   C510    1.431   .     S
C508   O534    1.287   .     A
C509   C622    1.331   1_455 S
C509   H635    1.087   1_455 S
C510   C565    1.331   .     S
C510   H580    1.086   .     S
C511   C516    1.418   .     A
C511   C537    1.452   .     S
C511   C849    1.396   1_545 S
C512   C515    1.415   .     A
C512   C539    1.450   .     S
C512   C682    1.394   .     S
C513   C541    1.456   .     S
C513   C515    1.414   .     A
C513   C679    1.396   .     S
C514   C516    1.416   .     A
C514   C543    1.456   .     S
C514   C848    1.394   1_545 S
C517   H525    1.078   .     S
C517   N528    1.361   .     A
C518   N527    1.363   .     A
C518   H526    1.078   .     S
C518   C1024   1.437   .     S
C519   N527    1.374   .     A
C519   O545    1.391   .     S
C519   C1021   1.429   .     S
C520   N528    1.375   .     A
C520   O553    1.398   .     S
Cu521  O533    1.959   .     S
Cu521  O529    1.984   .     S
Cu521  Cu522   2.679   .     S
Cu521  N527    2.013   .     S
Cu521  O536    1.957   .     S
Cu521  O532    1.991   .     S
Cu522  O530    1.984   .     S
Cu522  O534    1.959   .     S
Cu522  N528    2.013   .     S
Cu522  O535    1.957   .     S
Cu522  O531    1.991   .     S
H523   C565    1.087   .     S
H524   C622    1.086   1_455 S
C537   N538    1.156   .     T
C539   N540    1.156   .     T
C541   N542    1.157   .     T
C543   N544    1.157   .     T
O545   C546    1.417   .     S
C546   H548    1.115   .     S
C546   H547    1.107   .     S
C546   C549    1.525   .     S
C549   H552    1.111   .     S
C549   H1054   1.106   .     S
C549   H663    1.110   1_455 S
H551   C605    1.110   .     S
O553   C554    1.414   .     S
C554   H556    1.107   .     S
C554   C557    1.528   .     S
C554   H555    1.111   .     S
C557   H558    1.109   .     S
C557   H615    1.110   .     S
C557   H616    1.110   .     S
H559   C669    1.110   1_455 S
H560   C669    1.110   1_455 S
C561   O585    1.297   .     A
C561   O587    1.296   .     A
C561   C572    1.474   .     S
C562   C571    1.474   .     S
C562   O586    1.297   .     A
C562   O588    1.296   .     A
C563   O591    1.285   .     A
C563   O589    1.288   .     A
C563   C565    1.432   .     S
C564   O592    1.286   .     A
C564   C566    1.431   .     S
C564   O590    1.287   .     A
C566   C621    1.331   .     S
C566   H636    1.086   .     S
C567   C572    1.418   .     A
C567   C593    1.452   .     S
C567   C905    1.396   1_545 S
C568   C571    1.415   .     A
C568   C595    1.450   .     S
C568   C738    1.394   .     S
C569   C597    1.456   .     S
C569   C571    1.414   .     A
C569   C735    1.396   .     S
C570   C572    1.416   .     A
C570   C599    1.456   .     S
C570   C904    1.394   1_545 S
C573   H581    1.078   .     S
C573   N584    1.361   .     A
C574   N583    1.363   .     A
C574   H582    1.078   .     S
C574   C1080   1.437   .     S
C575   N583    1.374   .     A
C575   O601    1.391   .     S
C575   C1077   1.429   .     S
C576   N584    1.375   .     A
C576   O609    1.398   .     S
Cu577  O589    1.959   .     S
Cu577  O585    1.984   .     S
Cu577  Cu578   2.679   .     S
Cu577  N583    2.013   .     S
Cu577  O592    1.957   .     S
Cu577  O588    1.991   .     S
Cu578  O586    1.984   .     S
Cu578  O590    1.959   .     S
Cu578  N584    2.013   .     S
Cu578  O591    1.957   .     S
Cu578  O587    1.991   .     S
H579   C621    1.087   .     S
C593   N594    1.156   .     T
C595   N596    1.156   .     T
C597   N598    1.157   .     T
C599   N600    1.157   .     T
O601   C602    1.417   .     S
C602   H604    1.115   .     S
C602   H603    1.107   .     S
C602   C605    1.525   .     S
C605   H608    1.111   .     S
C605   H1110   1.106   .     S
H607   C661    1.110   .     S
O609   C610    1.414   .     S
C610   H612    1.107   .     S
C610   C613    1.528   .     S
C610   H611    1.111   .     S
C613   H614    1.109   .     S
C613   H671    1.110   .     S
C613   H672    1.110   .     S
C617   O641    1.297   .     A
C617   O643    1.296   .     A
C617   C628    1.474   .     S
C618   C627    1.474   .     S
C618   O642    1.297   .     A
C618   O644    1.296   .     A
C619   O647    1.285   .     A
C619   O645    1.288   .     A
C619   C621    1.432   .     S
C620   O648    1.286   .     A
C620   C622    1.431   .     S
C620   O646    1.287   .     A
C622   C509    1.331   1_655 S
C622   H524    1.086   1_655 S
C623   C628    1.418   .     A
C623   C649    1.452   .     S
C623   C961    1.396   1_545 S
C624   C627    1.415   .     A
C624   C651    1.450   .     S
C624   C794    1.394   .     S
C625   C653    1.456   .     S
C625   C627    1.414   .     A
C625   C791    1.396   .     S
C626   C628    1.416   .     A
C626   C655    1.456   .     S
C626   C960    1.394   1_545 S
C629   H637    1.078   .     S
C629   N640    1.361   .     A
C630   N639    1.363   .     A
C630   H638    1.078   .     S
C630   C1136   1.437   .     S
C631   N639    1.374   .     A
C631   O657    1.391   .     S
C631   C1133   1.429   .     S
C632   N640    1.375   .     A
C632   O665    1.398   .     S
Cu633  O645    1.959   .     S
Cu633  O641    1.984   .     S
Cu633  Cu634   2.679   .     S
Cu633  N639    2.013   .     S
Cu633  O648    1.957   .     S
Cu633  O644    1.991   .     S
Cu634  O642    1.984   .     S
Cu634  O646    1.959   .     S
Cu634  N640    2.013   .     S
Cu634  O647    1.957   .     S
Cu634  O643    1.991   .     S
H635   C509    1.087   1_655 S
C649   N650    1.156   .     T
C651   N652    1.156   .     T
C653   N654    1.157   .     T
C655   N656    1.157   .     T
O657   C658    1.417   .     S
C658   H660    1.115   .     S
C658   H659    1.107   .     S
C658   C661    1.525   .     S
C661   H664    1.111   .     S
C661   H1166   1.106   .     S
H663   C549    1.110   1_655 S
O665   C666    1.414   .     S
C666   H668    1.107   .     S
C666   C669    1.528   .     S
C666   H667    1.111   .     S
C669   H670    1.109   .     S
C669   H559    1.110   1_655 S
C669   H560    1.110   1_655 S
C673   O697    1.297   .     A
C673   O699    1.296   .     A
C673   C684    1.474   .     S
C674   C683    1.474   .     S
C674   O698    1.297   .     A
C674   O700    1.296   .     A
C675   O703    1.285   .     A
C675   O701    1.288   .     A
C675   C677    1.432   .     S
C676   O704    1.286   .     A
C676   C678    1.431   .     S
C676   O702    1.287   .     A
C677   C790    1.331   1_455 S
C677   H803    1.087   1_455 S
C678   C733    1.331   .     S
C678   H748    1.086   .     S
C679   C684    1.418   .     A
C679   C705    1.452   .     S
C680   C683    1.415   .     A
C680   C707    1.450   .     S
C680   C850    1.394   .     S
C681   C709    1.456   .     S
C681   C683    1.414   .     A
C681   C847    1.396   .     S
C682   C684    1.416   .     A
C682   C711    1.456   .     S
C685   H693    1.078   .     S
C685   N696    1.361   .     A
C686   N695    1.363   .     A
C686   H694    1.078   .     S
C686   C1192   1.437   .     S
C687   N695    1.374   .     A
C687   O713    1.391   .     S
C687   C1189   1.429   .     S
C688   N696    1.375   .     A
C688   O721    1.398   .     S
Cu689  O701    1.959   .     S
Cu689  O697    1.984   .     S
Cu689  Cu690   2.679   .     S
Cu689  N695    2.013   .     S
Cu689  O704    1.957   .     S
Cu689  O700    1.991   .     S
Cu690  O698    1.984   .     S
Cu690  O702    1.959   .     S
Cu690  N696    2.013   .     S
Cu690  O703    1.957   .     S
Cu690  O699    1.991   .     S
H691   C733    1.087   .     S
H692   C790    1.086   1_455 S
C705   N706    1.156   .     T
C707   N708    1.156   .     T
C709   N710    1.157   .     T
C711   N712    1.157   .     T
O713   C714    1.417   .     S
C714   H716    1.115   .     S
C714   H715    1.107   .     S
C714   C717    1.525   .     S
C717   H720    1.111   .     S
C717   H1222   1.106   .     S
C717   H831    1.110   1_455 S
H719   C773    1.110   .     S
O721   C722    1.414   .     S
C722   H724    1.107   .     S
C722   C725    1.528   .     S
C722   H723    1.111   .     S
C725   H726    1.109   .     S
C725   H783    1.110   .     S
C725   H784    1.110   .     S
H727   C837    1.110   1_455 S
H728   C837    1.110   1_455 S
C729   O753    1.297   .     A
C729   O755    1.296   .     A
C729   C740    1.474   .     S
C730   C739    1.474   .     S
C730   O754    1.297   .     A
C730   O756    1.296   .     A
C731   O759    1.285   .     A
C731   O757    1.288   .     A
C731   C733    1.432   .     S
C732   O760    1.286   .     A
C732   C734    1.431   .     S
C732   O758    1.287   .     A
C734   C789    1.331   .     S
C734   H804    1.086   .     S
C735   C740    1.418   .     A
C735   C761    1.452   .     S
C736   C739    1.415   .     A
C736   C763    1.450   .     S
C736   C906    1.394   .     S
C737   C765    1.456   .     S
C737   C739    1.414   .     A
C737   C903    1.396   .     S
C738   C740    1.416   .     A
C738   C767    1.456   .     S
C741   H749    1.078   .     S
C741   N752    1.361   .     A
C742   N751    1.363   .     A
C742   H750    1.078   .     S
C742   C1248   1.437   .     S
C743   N751    1.374   .     A
C743   O769    1.391   .     S
C743   C1245   1.429   .     S
C744   N752    1.375   .     A
C744   O777    1.398   .     S
Cu745  O757    1.959   .     S
Cu745  O753    1.984   .     S
Cu745  Cu746   2.679   .     S
Cu745  N751    2.013   .     S
Cu745  O760    1.957   .     S
Cu745  O756    1.991   .     S
Cu746  O754    1.984   .     S
Cu746  O758    1.959   .     S
Cu746  N752    2.013   .     S
Cu746  O759    1.957   .     S
Cu746  O755    1.991   .     S
H747   C789    1.087   .     S
C761   N762    1.156   .     T
C763   N764    1.156   .     T
C765   N766    1.157   .     T
C767   N768    1.157   .     T
O769   C770    1.417   .     S
C770   H772    1.115   .     S
C770   H771    1.107   .     S
C770   C773    1.525   .     S
C773   H776    1.111   .     S
C773   H1278   1.106   .     S
H775   C829    1.110   .     S
O777   C778    1.414   .     S
C778   H780    1.107   .     S
C778   C781    1.528   .     S
C778   H779    1.111   .     S
C781   H782    1.109   .     S
C781   H839    1.110   .     S
C781   H840    1.110   .     S
C785   O809    1.297   .     A
C785   O811    1.296   .     A
C785   C796    1.474   .     S
C786   C795    1.474   .     S
C786   O810    1.297   .     A
C786   O812    1.296   .     A
C787   O815    1.285   .     A
C787   O813    1.288   .     A
C787   C789    1.432   .     S
C788   O816    1.286   .     A
C788   C790    1.431   .     S
C788   O814    1.287   .     A
C790   C677    1.331   1_655 S
C790   H692    1.086   1_655 S
C791   C796    1.418   .     A
C791   C817    1.452   .     S
C792   C795    1.415   .     A
C792   C819    1.450   .     S
C792   C962    1.394   .     S
C793   C821    1.456   .     S
C793   C795    1.414   .     A
C793   C959    1.396   .     S
C794   C796    1.416   .     A
C794   C823    1.456   .     S
C797   H805    1.078   .     S
C797   N808    1.361   .     A
C798   N807    1.363   .     A
C798   H806    1.078   .     S
C798   C1304   1.437   .     S
C799   N807    1.374   .     A
C799   O825    1.391   .     S
C799   C1301   1.429   .     S
C800   N808    1.375   .     A
C800   O833    1.398   .     S
Cu801  O813    1.959   .     S
Cu801  O809    1.984   .     S
Cu801  Cu802   2.679   .     S
Cu801  N807    2.013   .     S
Cu801  O816    1.957   .     S
Cu801  O812    1.991   .     S
Cu802  O810    1.984   .     S
Cu802  O814    1.959   .     S
Cu802  N808    2.013   .     S
Cu802  O815    1.957   .     S
Cu802  O811    1.991   .     S
H803   C677    1.087   1_655 S
C817   N818    1.156   .     T
C819   N820    1.156   .     T
C821   N822    1.157   .     T
C823   N824    1.157   .     T
O825   C826    1.417   .     S
C826   H828    1.115   .     S
C826   H827    1.107   .     S
C826   C829    1.525   .     S
C829   H832    1.111   .     S
C829   H1334   1.106   .     S
H831   C717    1.110   1_655 S
O833   C834    1.414   .     S
C834   H836    1.107   .     S
C834   C837    1.528   .     S
C834   H835    1.111   .     S
C837   H838    1.109   .     S
C837   H727    1.110   1_655 S
C837   H728    1.110   1_655 S
C841   O865    1.297   .     A
C841   O867    1.296   .     A
C841   C852    1.474   .     S
C842   C851    1.474   .     S
C842   O866    1.297   .     A
C842   O868    1.296   .     A
C843   O871    1.285   .     A
C843   O869    1.288   .     A
C843   C845    1.432   .     S
C844   O872    1.286   .     A
C844   C846    1.431   .     S
C844   O870    1.287   .     A
C845   C958    1.331   1_455 S
C845   H971    1.087   1_455 S
C846   C901    1.331   .     S
C846   H916    1.086   .     S
C847   C852    1.418   .     A
C847   C873    1.452   .     S
C848   C851    1.415   .     A
C848   C875    1.450   .     S
C848   C514    1.394   1_565 S
C849   C877    1.456   .     S
C849   C851    1.414   .     A
C849   C511    1.396   1_565 S
C850   C852    1.416   .     A
C850   C879    1.456   .     S
C853   H861    1.078   .     S
C853   N864    1.361   .     A
C854   N863    1.363   .     A
C854   H862    1.078   .     S
C854   C1360   1.437   .     S
C855   N863    1.374   .     A
C855   O881    1.391   .     S
C855   C1357   1.429   .     S
C856   N864    1.375   .     A
C856   O889    1.398   .     S
Cu857  O869    1.959   .     S
Cu857  O865    1.984   .     S
Cu857  Cu858   2.679   .     S
Cu857  N863    2.013   .     S
Cu857  O872    1.957   .     S
Cu857  O868    1.991   .     S
Cu858  O866    1.984   .     S
Cu858  O870    1.959   .     S
Cu858  N864    2.013   .     S
Cu858  O871    1.957   .     S
Cu858  O867    1.991   .     S
H859   C901    1.087   .     S
H860   C958    1.086   1_455 S
C873   N874    1.156   .     T
C875   N876    1.156   .     T
C877   N878    1.157   .     T
C879   N880    1.157   .     T
O881   C882    1.417   .     S
C882   H884    1.115   .     S
C882   H883    1.107   .     S
C882   C885    1.525   .     S
C885   H888    1.111   .     S
C885   H1390   1.106   .     S
C885   H999    1.110   1_455 S
H887   C941    1.110   .     S
O889   C890    1.414   .     S
C890   H892    1.107   .     S
C890   C893    1.528   .     S
C890   H891    1.111   .     S
C893   H894    1.109   .     S
C893   H951    1.110   .     S
C893   H952    1.110   .     S
H895   C1005   1.110   1_455 S
H896   C1005   1.110   1_455 S
C897   O921    1.297   .     A
C897   O923    1.296   .     A
C897   C908    1.474   .     S
C898   C907    1.474   .     S
C898   O922    1.297   .     A
C898   O924    1.296   .     A
C899   O927    1.285   .     A
C899   O925    1.288   .     A
C899   C901    1.432   .     S
C900   O928    1.286   .     A
C900   C902    1.431   .     S
C900   O926    1.287   .     A
C902   C957    1.331   .     S
C902   H972    1.086   .     S
C903   C908    1.418   .     A
C903   C929    1.452   .     S
C904   C907    1.415   .     A
C904   C931    1.450   .     S
C904   C570    1.394   1_565 S
C905   C933    1.456   .     S
C905   C907    1.414   .     A
C905   C567    1.396   1_565 S
C906   C908    1.416   .     A
C906   C935    1.456   .     S
C909   H917    1.078   .     S
C909   N920    1.361   .     A
C910   N919    1.363   .     A
C910   H918    1.078   .     S
C910   C1416   1.437   .     S
C911   N919    1.374   .     A
C911   O937    1.391   .     S
C911   C1413   1.429   .     S
C912   N920    1.375   .     A
C912   O945    1.398   .     S
Cu913  O925    1.959   .     S
Cu913  O921    1.984   .     S
Cu913  Cu914   2.679   .     S
Cu913  N919    2.013   .     S
Cu913  O928    1.957   .     S
Cu913  O924    1.991   .     S
Cu914  O922    1.984   .     S
Cu914  O926    1.959   .     S
Cu914  N920    2.013   .     S
Cu914  O927    1.957   .     S
Cu914  O923    1.991   .     S
H915   C957    1.087   .     S
C929   N930    1.156   .     T
C931   N932    1.156   .     T
C933   N934    1.157   .     T
C935   N936    1.157   .     T
O937   C938    1.417   .     S
C938   H940    1.115   .     S
C938   H939    1.107   .     S
C938   C941    1.525   .     S
C941   H944    1.111   .     S
C941   H1446   1.106   .     S
H943   C997    1.110   .     S
O945   C946    1.414   .     S
C946   H948    1.107   .     S
C946   C949    1.528   .     S
C946   H947    1.111   .     S
C949   H950    1.109   .     S
C949   H1007   1.110   .     S
C949   H1008   1.110   .     S
C953   O977    1.297   .     A
C953   O979    1.296   .     A
C953   C964    1.474   .     S
C954   C963    1.474   .     S
C954   O978    1.297   .     A
C954   O980    1.296   .     A
C955   O983    1.285   .     A
C955   O981    1.288   .     A
C955   C957    1.432   .     S
C956   O984    1.286   .     A
C956   C958    1.431   .     S
C956   O982    1.287   .     A
C958   C845    1.331   1_655 S
C958   H860    1.086   1_655 S
C959   C964    1.418   .     A
C959   C985    1.452   .     S
C960   C963    1.415   .     A
C960   C987    1.450   .     S
C960   C626    1.394   1_565 S
C961   C989    1.456   .     S
C961   C963    1.414   .     A
C961   C623    1.396   1_565 S
C962   C964    1.416   .     A
C962   C991    1.456   .     S
C965   H973    1.078   .     S
C965   N976    1.361   .     A
C966   N975    1.363   .     A
C966   H974    1.078   .     S
C966   C1472   1.437   .     S
C967   N975    1.374   .     A
C967   O993    1.391   .     S
C967   C1469   1.429   .     S
C968   N976    1.375   .     A
C968   O1001   1.398   .     S
Cu969  O981    1.959   .     S
Cu969  O977    1.984   .     S
Cu969  Cu970   2.679   .     S
Cu969  N975    2.013   .     S
Cu969  O984    1.957   .     S
Cu969  O980    1.991   .     S
Cu970  O978    1.984   .     S
Cu970  O982    1.959   .     S
Cu970  N976    2.013   .     S
Cu970  O983    1.957   .     S
Cu970  O979    1.991   .     S
H971   C845    1.087   1_655 S
C985   N986    1.156   .     T
C987   N988    1.156   .     T
C989   N990    1.157   .     T
C991   N992    1.157   .     T
O993   C994    1.417   .     S
C994   H996    1.115   .     S
C994   H995    1.107   .     S
C994   C997    1.525   .     S
C997   H1000   1.111   .     S
C997   H1502   1.106   .     S
H999   C885    1.110   1_655 S
O1001  C1002   1.414   .     S
C1002  H1004   1.107   .     S
C1002  C1005   1.528   .     S
C1002  H1003   1.111   .     S
C1005  H1006   1.109   .     S
C1005  H895    1.110   1_655 S
C1005  H896    1.110   1_655 S
C1009  O1033   1.297   .     A
C1009  O1035   1.296   .     A
C1009  C1020   1.474   .     S
C1010  C1019   1.474   .     S
C1010  O1034   1.297   .     A
C1010  O1036   1.296   .     A
C1011  O1039   1.285   .     A
C1011  O1037   1.288   .     A
C1011  C1013   1.432   .     S
C1012  O1040   1.286   .     A
C1012  C1014   1.431   .     S
C1012  O1038   1.287   .     A
C1013  C1126   1.331   1_455 S
C1013  H1139   1.087   1_455 S
C1014  C1069   1.331   .     S
C1014  H1084   1.086   .     S
C1015  C1020   1.418   .     A
C1015  C1041   1.452   .     S
C1015  C1353   1.396   1_545 S
C1016  C1019   1.415   .     A
C1016  C1043   1.450   .     S
C1016  C1186   1.394   .     S
C1017  C1045   1.456   .     S
C1017  C1019   1.414   .     A
C1017  C1183   1.396   .     S
C1018  C1020   1.416   .     A
C1018  C1047   1.456   .     S
C1018  C1352   1.394   1_545 S
C1021  H1029   1.078   .     S
C1021  N1032   1.361   .     A
C1022  N1031   1.363   .     A
C1022  H1030   1.078   .     S
C1022  C16     1.437   1_556 S
C1023  N1031   1.374   .     A
C1023  O1049   1.391   .     S
C1023  C13     1.429   1_556 S
C1024  N1032   1.375   .     A
C1024  O1057   1.398   .     S
Cu1025 O1037   1.959   .     S
Cu1025 O1033   1.984   .     S
Cu1025 Cu1026  2.679   .     S
Cu1025 N1031   2.013   .     S
Cu1025 O1040   1.957   .     S
Cu1025 O1036   1.991   .     S
Cu1026 O1034   1.984   .     S
Cu1026 O1038   1.959   .     S
Cu1026 N1032   2.013   .     S
Cu1026 O1039   1.957   .     S
Cu1026 O1035   1.991   .     S
H1027  C1069   1.087   .     S
H1028  C1126   1.086   1_455 S
C1041  N1042   1.156   .     T
C1043  N1044   1.156   .     T
C1045  N1046   1.157   .     T
C1047  N1048   1.157   .     T
O1049  C1050   1.417   .     S
C1050  H1052   1.115   .     S
C1050  H1051   1.107   .     S
C1050  C1053   1.525   .     S
C1053  H1056   1.111   .     S
C1053  H46     1.106   1_556 S
C1053  H1167   1.110   1_455 S
H1055  C1109   1.110   .     S
O1057  C1058   1.414   .     S
C1058  H1060   1.107   .     S
C1058  C1061   1.528   .     S
C1058  H1059   1.111   .     S
C1061  H1062   1.109   .     S
C1061  H1119   1.110   .     S
C1061  H1120   1.110   .     S
H1063  C1173   1.110   1_455 S
H1064  C1173   1.110   1_455 S
C1065  O1089   1.297   .     A
C1065  O1091   1.296   .     A
C1065  C1076   1.474   .     S
C1066  C1075   1.474   .     S
C1066  O1090   1.297   .     A
C1066  O1092   1.296   .     A
C1067  O1095   1.285   .     A
C1067  O1093   1.288   .     A
C1067  C1069   1.432   .     S
C1068  O1096   1.286   .     A
C1068  C1070   1.431   .     S
C1068  O1094   1.287   .     A
C1070  C1125   1.331   .     S
C1070  H1140   1.086   .     S
C1071  C1076   1.418   .     A
C1071  C1097   1.452   .     S
C1071  C1409   1.396   1_545 S
C1072  C1075   1.415   .     A
C1072  C1099   1.450   .     S
C1072  C1242   1.394   .     S
C1073  C1101   1.456   .     S
C1073  C1075   1.414   .     A
C1073  C1239   1.396   .     S
C1074  C1076   1.416   .     A
C1074  C1103   1.456   .     S
C1074  C1408   1.394   1_545 S
C1077  H1085   1.078   .     S
C1077  N1088   1.361   .     A
C1078  N1087   1.363   .     A
C1078  H1086   1.078   .     S
C1078  C72     1.437   1_556 S
C1079  N1087   1.374   .     A
C1079  O1105   1.391   .     S
C1079  C69     1.429   1_556 S
C1080  N1088   1.375   .     A
C1080  O1113   1.398   .     S
Cu1081 O1093   1.959   .     S
Cu1081 O1089   1.984   .     S
Cu1081 Cu1082  2.679   .     S
Cu1081 N1087   2.013   .     S
Cu1081 O1096   1.957   .     S
Cu1081 O1092   1.991   .     S
Cu1082 O1090   1.984   .     S
Cu1082 O1094   1.959   .     S
Cu1082 N1088   2.013   .     S
Cu1082 O1095   1.957   .     S
Cu1082 O1091   1.991   .     S
H1083  C1125   1.087   .     S
C1097  N1098   1.156   .     T
C1099  N1100   1.156   .     T
C1101  N1102   1.157   .     T
C1103  N1104   1.157   .     T
O1105  C1106   1.417   .     S
C1106  H1108   1.115   .     S
C1106  H1107   1.107   .     S
C1106  C1109   1.525   .     S
C1109  H1112   1.111   .     S
C1109  H102    1.106   1_556 S
H1111  C1165   1.110   .     S
O1113  C1114   1.414   .     S
C1114  H1116   1.107   .     S
C1114  C1117   1.528   .     S
C1114  H1115   1.111   .     S
C1117  H1118   1.109   .     S
C1117  H1175   1.110   .     S
C1117  H1176   1.110   .     S
C1121  O1145   1.297   .     A
C1121  O1147   1.296   .     A
C1121  C1132   1.474   .     S
C1122  C1131   1.474   .     S
C1122  O1146   1.297   .     A
C1122  O1148   1.296   .     A
C1123  O1151   1.285   .     A
C1123  O1149   1.288   .     A
C1123  C1125   1.432   .     S
C1124  O1152   1.286   .     A
C1124  C1126   1.431   .     S
C1124  O1150   1.287   .     A
C1126  C1013   1.331   1_655 S
C1126  H1028   1.086   1_655 S
C1127  C1132   1.418   .     A
C1127  C1153   1.452   .     S
C1127  C1465   1.396   1_545 S
C1128  C1131   1.415   .     A
C1128  C1155   1.450   .     S
C1128  C1298   1.394   .     S
C1129  C1157   1.456   .     S
C1129  C1131   1.414   .     A
C1129  C1295   1.396   .     S
C1130  C1132   1.416   .     A
C1130  C1159   1.456   .     S
C1130  C1464   1.394   1_545 S
C1133  H1141   1.078   .     S
C1133  N1144   1.361   .     A
C1134  N1143   1.363   .     A
C1134  H1142   1.078   .     S
C1134  C128    1.437   1_556 S
C1135  N1143   1.374   .     A
C1135  O1161   1.391   .     S
C1135  C125    1.429   1_556 S
C1136  N1144   1.375   .     A
C1136  O1169   1.398   .     S
Cu1137 O1149   1.959   .     S
Cu1137 O1145   1.984   .     S
Cu1137 Cu1138  2.679   .     S
Cu1137 N1143   2.013   .     S
Cu1137 O1152   1.957   .     S
Cu1137 O1148   1.991   .     S
Cu1138 O1146   1.984   .     S
Cu1138 O1150   1.959   .     S
Cu1138 N1144   2.013   .     S
Cu1138 O1151   1.957   .     S
Cu1138 O1147   1.991   .     S
H1139  C1013   1.087   1_655 S
C1153  N1154   1.156   .     T
C1155  N1156   1.156   .     T
C1157  N1158   1.157   .     T
C1159  N1160   1.157   .     T
O1161  C1162   1.417   .     S
C1162  H1164   1.115   .     S
C1162  H1163   1.107   .     S
C1162  C1165   1.525   .     S
C1165  H1168   1.111   .     S
C1165  H158    1.106   1_556 S
H1167  C1053   1.110   1_655 S
O1169  C1170   1.414   .     S
C1170  H1172   1.107   .     S
C1170  C1173   1.528   .     S
C1170  H1171   1.111   .     S
C1173  H1174   1.109   .     S
C1173  H1063   1.110   1_655 S
C1173  H1064   1.110   1_655 S
C1177  O1201   1.297   .     A
C1177  O1203   1.296   .     A
C1177  C1188   1.474   .     S
C1178  C1187   1.474   .     S
C1178  O1202   1.297   .     A
C1178  O1204   1.296   .     A
C1179  O1207   1.285   .     A
C1179  O1205   1.288   .     A
C1179  C1181   1.432   .     S
C1180  O1208   1.286   .     A
C1180  C1182   1.431   .     S
C1180  O1206   1.287   .     A
C1181  C1294   1.331   1_455 S
C1181  H1307   1.087   1_455 S
C1182  C1237   1.331   .     S
C1182  H1252   1.086   .     S
C1183  C1188   1.418   .     A
C1183  C1209   1.452   .     S
C1184  C1187   1.415   .     A
C1184  C1211   1.450   .     S
C1184  C1354   1.394   .     S
C1185  C1213   1.456   .     S
C1185  C1187   1.414   .     A
C1185  C1351   1.396   .     S
C1186  C1188   1.416   .     A
C1186  C1215   1.456   .     S
C1189  H1197   1.078   .     S
C1189  N1200   1.361   .     A
C1190  N1199   1.363   .     A
C1190  H1198   1.078   .     S
C1190  C184    1.437   1_556 S
C1191  N1199   1.374   .     A
C1191  O1217   1.391   .     S
C1191  C181    1.429   1_556 S
C1192  N1200   1.375   .     A
C1192  O1225   1.398   .     S
Cu1193 O1205   1.959   .     S
Cu1193 O1201   1.984   .     S
Cu1193 Cu1194  2.679   .     S
Cu1193 N1199   2.013   .     S
Cu1193 O1208   1.957   .     S
Cu1193 O1204   1.991   .     S
Cu1194 O1202   1.984   .     S
Cu1194 O1206   1.959   .     S
Cu1194 N1200   2.013   .     S
Cu1194 O1207   1.957   .     S
Cu1194 O1203   1.991   .     S
H1195  C1237   1.087   .     S
H1196  C1294   1.086   1_455 S
C1209  N1210   1.156   .     T
C1211  N1212   1.156   .     T
C1213  N1214   1.157   .     T
C1215  N1216   1.157   .     T
O1217  C1218   1.417   .     S
C1218  H1220   1.115   .     S
C1218  H1219   1.107   .     S
C1218  C1221   1.525   .     S
C1221  H1224   1.111   .     S
C1221  H214    1.106   1_556 S
C1221  H1335   1.110   1_455 S
H1223  C1277   1.110   .     S
O1225  C1226   1.414   .     S
C1226  H1228   1.107   .     S
C1226  C1229   1.528   .     S
C1226  H1227   1.111   .     S
C1229  H1230   1.109   .     S
C1229  H1287   1.110   .     S
C1229  H1288   1.110   .     S
H1231  C1341   1.110   1_455 S
H1232  C1341   1.110   1_455 S
C1233  O1257   1.297   .     A
C1233  O1259   1.296   .     A
C1233  C1244   1.474   .     S
C1234  C1243   1.474   .     S
C1234  O1258   1.297   .     A
C1234  O1260   1.296   .     A
C1235  O1263   1.285   .     A
C1235  O1261   1.288   .     A
C1235  C1237   1.432   .     S
C1236  O1264   1.286   .     A
C1236  C1238   1.431   .     S
C1236  O1262   1.287   .     A
C1238  C1293   1.331   .     S
C1238  H1308   1.086   .     S
C1239  C1244   1.418   .     A
C1239  C1265   1.452   .     S
C1240  C1243   1.415   .     A
C1240  C1267   1.450   .     S
C1240  C1410   1.394   .     S
C1241  C1269   1.456   .     S
C1241  C1243   1.414   .     A
C1241  C1407   1.396   .     S
C1242  C1244   1.416   .     A
C1242  C1271   1.456   .     S
C1245  H1253   1.078   .     S
C1245  N1256   1.361   .     A
C1246  N1255   1.363   .     A
C1246  H1254   1.078   .     S
C1246  C240    1.437   1_556 S
C1247  N1255   1.374   .     A
C1247  O1273   1.391   .     S
C1247  C237    1.429   1_556 S
C1248  N1256   1.375   .     A
C1248  O1281   1.398   .     S
Cu1249 O1261   1.959   .     S
Cu1249 O1257   1.984   .     S
Cu1249 Cu1250  2.679   .     S
Cu1249 N1255   2.013   .     S
Cu1249 O1264   1.957   .     S
Cu1249 O1260   1.991   .     S
Cu1250 O1258   1.984   .     S
Cu1250 O1262   1.959   .     S
Cu1250 N1256   2.013   .     S
Cu1250 O1263   1.957   .     S
Cu1250 O1259   1.991   .     S
H1251  C1293   1.087   .     S
C1265  N1266   1.156   .     T
C1267  N1268   1.156   .     T
C1269  N1270   1.157   .     T
C1271  N1272   1.157   .     T
O1273  C1274   1.417   .     S
C1274  H1276   1.115   .     S
C1274  H1275   1.107   .     S
C1274  C1277   1.525   .     S
C1277  H1280   1.111   .     S
C1277  H270    1.106   1_556 S
H1279  C1333   1.110   .     S
O1281  C1282   1.414   .     S
C1282  H1284   1.107   .     S
C1282  C1285   1.528   .     S
C1282  H1283   1.111   .     S
C1285  H1286   1.109   .     S
C1285  H1343   1.110   .     S
C1285  H1344   1.110   .     S
C1289  O1313   1.297   .     A
C1289  O1315   1.296   .     A
C1289  C1300   1.474   .     S
C1290  C1299   1.474   .     S
C1290  O1314   1.297   .     A
C1290  O1316   1.296   .     A
C1291  O1319   1.285   .     A
C1291  O1317   1.288   .     A
C1291  C1293   1.432   .     S
C1292  O1320   1.286   .     A
C1292  C1294   1.431   .     S
C1292  O1318   1.287   .     A
C1294  C1181   1.331   1_655 S
C1294  H1196   1.086   1_655 S
C1295  C1300   1.418   .     A
C1295  C1321   1.452   .     S
C1296  C1299   1.415   .     A
C1296  C1323   1.450   .     S
C1296  C1466   1.394   .     S
C1297  C1325   1.456   .     S
C1297  C1299   1.414   .     A
C1297  C1463   1.396   .     S
C1298  C1300   1.416   .     A
C1298  C1327   1.456   .     S
C1301  H1309   1.078   .     S
C1301  N1312   1.361   .     A
C1302  N1311   1.363   .     A
C1302  H1310   1.078   .     S
C1302  C296    1.437   1_556 S
C1303  N1311   1.374   .     A
C1303  O1329   1.391   .     S
C1303  C293    1.429   1_556 S
C1304  N1312   1.375   .     A
C1304  O1337   1.398   .     S
Cu1305 O1317   1.959   .     S
Cu1305 O1313   1.984   .     S
Cu1305 Cu1306  2.679   .     S
Cu1305 N1311   2.013   .     S
Cu1305 O1320   1.957   .     S
Cu1305 O1316   1.991   .     S
Cu1306 O1314   1.984   .     S
Cu1306 O1318   1.959   .     S
Cu1306 N1312   2.013   .     S
Cu1306 O1319   1.957   .     S
Cu1306 O1315   1.991   .     S
H1307  C1181   1.087   1_655 S
C1321  N1322   1.156   .     T
C1323  N1324   1.156   .     T
C1325  N1326   1.157   .     T
C1327  N1328   1.157   .     T
O1329  C1330   1.417   .     S
C1330  H1332   1.115   .     S
C1330  H1331   1.107   .     S
C1330  C1333   1.525   .     S
C1333  H1336   1.111   .     S
C1333  H326    1.106   1_556 S
H1335  C1221   1.110   1_655 S
O1337  C1338   1.414   .     S
C1338  H1340   1.107   .     S
C1338  C1341   1.528   .     S
C1338  H1339   1.111   .     S
C1341  H1342   1.109   .     S
C1341  H1231   1.110   1_655 S
C1341  H1232   1.110   1_655 S
C1345  O1369   1.297   .     A
C1345  O1371   1.296   .     A
C1345  C1356   1.474   .     S
C1346  C1355   1.474   .     S
C1346  O1370   1.297   .     A
C1346  O1372   1.296   .     A
C1347  O1375   1.285   .     A
C1347  O1373   1.288   .     A
C1347  C1349   1.432   .     S
C1348  O1376   1.286   .     A
C1348  C1350   1.431   .     S
C1348  O1374   1.287   .     A
C1349  C1462   1.331   1_455 S
C1349  H1475   1.087   1_455 S
C1350  C1405   1.331   .     S
C1350  H1420   1.086   .     S
C1351  C1356   1.418   .     A
C1351  C1377   1.452   .     S
C1352  C1355   1.415   .     A
C1352  C1379   1.450   .     S
C1352  C1018   1.394   1_565 S
C1353  C1381   1.456   .     S
C1353  C1355   1.414   .     A
C1353  C1015   1.396   1_565 S
C1354  C1356   1.416   .     A
C1354  C1383   1.456   .     S
C1357  H1365   1.078   .     S
C1357  N1368   1.361   .     A
C1358  N1367   1.363   .     A
C1358  H1366   1.078   .     S
C1358  C352    1.437   1_556 S
C1359  N1367   1.374   .     A
C1359  O1385   1.391   .     S
C1359  C349    1.429   1_556 S
C1360  N1368   1.375   .     A
C1360  O1393   1.398   .     S
Cu1361 O1373   1.959   .     S
Cu1361 O1369   1.984   .     S
Cu1361 Cu1362  2.679   .     S
Cu1361 N1367   2.013   .     S
Cu1361 O1376   1.957   .     S
Cu1361 O1372   1.991   .     S
Cu1362 O1370   1.984   .     S
Cu1362 O1374   1.959   .     S
Cu1362 N1368   2.013   .     S
Cu1362 O1375   1.957   .     S
Cu1362 O1371   1.991   .     S
H1363  C1405   1.087   .     S
H1364  C1462   1.086   1_455 S
C1377  N1378   1.156   .     T
C1379  N1380   1.156   .     T
C1381  N1382   1.157   .     T
C1383  N1384   1.157   .     T
O1385  C1386   1.417   .     S
C1386  H1388   1.115   .     S
C1386  H1387   1.107   .     S
C1386  C1389   1.525   .     S
C1389  H1392   1.111   .     S
C1389  H382    1.106   1_556 S
C1389  H1503   1.110   1_455 S
H1391  C1445   1.110   .     S
O1393  C1394   1.414   .     S
C1394  H1396   1.107   .     S
C1394  C1397   1.528   .     S
C1394  H1395   1.111   .     S
C1397  H1398   1.109   .     S
C1397  H1455   1.110   .     S
C1397  H1456   1.110   .     S
H1399  C1509   1.110   1_455 S
H1400  C1509   1.110   1_455 S
C1401  O1425   1.297   .     A
C1401  O1427   1.296   .     A
C1401  C1412   1.474   .     S
C1402  C1411   1.474   .     S
C1402  O1426   1.297   .     A
C1402  O1428   1.296   .     A
C1403  O1431   1.285   .     A
C1403  O1429   1.288   .     A
C1403  C1405   1.432   .     S
C1404  O1432   1.286   .     A
C1404  C1406   1.431   .     S
C1404  O1430   1.287   .     A
C1406  C1461   1.331   .     S
C1406  H1476   1.086   .     S
C1407  C1412   1.418   .     A
C1407  C1433   1.452   .     S
C1408  C1411   1.415   .     A
C1408  C1435   1.450   .     S
C1408  C1074   1.394   1_565 S
C1409  C1437   1.456   .     S
C1409  C1411   1.414   .     A
C1409  C1071   1.396   1_565 S
C1410  C1412   1.416   .     A
C1410  C1439   1.456   .     S
C1413  H1421   1.078   .     S
C1413  N1424   1.361   .     A
C1414  N1423   1.363   .     A
C1414  H1422   1.078   .     S
C1414  C408    1.437   1_556 S
C1415  N1423   1.374   .     A
C1415  O1441   1.391   .     S
C1415  C405    1.429   1_556 S
C1416  N1424   1.375   .     A
C1416  O1449   1.398   .     S
Cu1417 O1429   1.959   .     S
Cu1417 O1425   1.984   .     S
Cu1417 Cu1418  2.679   .     S
Cu1417 N1423   2.013   .     S
Cu1417 O1432   1.957   .     S
Cu1417 O1428   1.991   .     S
Cu1418 O1426   1.984   .     S
Cu1418 O1430   1.959   .     S
Cu1418 N1424   2.013   .     S
Cu1418 O1431   1.957   .     S
Cu1418 O1427   1.991   .     S
H1419  C1461   1.087   .     S
C1433  N1434   1.156   .     T
C1435  N1436   1.156   .     T
C1437  N1438   1.157   .     T
C1439  N1440   1.157   .     T
O1441  C1442   1.417   .     S
C1442  H1444   1.115   .     S
C1442  H1443   1.107   .     S
C1442  C1445   1.525   .     S
C1445  H1448   1.111   .     S
C1445  H438    1.106   1_556 S
H1447  C1501   1.110   .     S
O1449  C1450   1.414   .     S
C1450  H1452   1.107   .     S
C1450  C1453   1.528   .     S
C1450  H1451   1.111   .     S
C1453  H1454   1.109   .     S
C1453  H1511   1.110   .     S
C1453  H1512   1.110   .     S
C1457  O1481   1.297   .     A
C1457  O1483   1.296   .     A
C1457  C1468   1.474   .     S
C1458  C1467   1.474   .     S
C1458  O1482   1.297   .     A
C1458  O1484   1.296   .     A
C1459  O1487   1.285   .     A
C1459  O1485   1.288   .     A
C1459  C1461   1.432   .     S
C1460  O1488   1.286   .     A
C1460  C1462   1.431   .     S
C1460  O1486   1.287   .     A
C1462  C1349   1.331   1_655 S
C1462  H1364   1.086   1_655 S
C1463  C1468   1.418   .     A
C1463  C1489   1.452   .     S
C1464  C1467   1.415   .     A
C1464  C1491   1.450   .     S
C1464  C1130   1.394   1_565 S
C1465  C1493   1.456   .     S
C1465  C1467   1.414   .     A
C1465  C1127   1.396   1_565 S
C1466  C1468   1.416   .     A
C1466  C1495   1.456   .     S
C1469  H1477   1.078   .     S
C1469  N1480   1.361   .     A
C1470  N1479   1.363   .     A
C1470  H1478   1.078   .     S
C1470  C464    1.437   1_556 S
C1471  N1479   1.374   .     A
C1471  O1497   1.391   .     S
C1471  C461    1.429   1_556 S
C1472  N1480   1.375   .     A
C1472  O1505   1.398   .     S
Cu1473 O1485   1.959   .     S
Cu1473 O1481   1.984   .     S
Cu1473 Cu1474  2.679   .     S
Cu1473 N1479   2.013   .     S
Cu1473 O1488   1.957   .     S
Cu1473 O1484   1.991   .     S
Cu1474 O1482   1.984   .     S
Cu1474 O1486   1.959   .     S
Cu1474 N1480   2.013   .     S
Cu1474 O1487   1.957   .     S
Cu1474 O1483   1.991   .     S
H1475  C1349   1.087   1_655 S
C1489  N1490   1.156   .     T
C1491  N1492   1.156   .     T
C1493  N1494   1.157   .     T
C1495  N1496   1.157   .     T
O1497  C1498   1.417   .     S
C1498  H1500   1.115   .     S
C1498  H1499   1.107   .     S
C1498  C1501   1.525   .     S
C1501  H1504   1.111   .     S
C1501  H494    1.106   1_556 S
H1503  C1389   1.110   1_655 S
O1505  C1506   1.414   .     S
C1506  H1508   1.107   .     S
C1506  C1509   1.528   .     S
C1506  H1507   1.111   .     S
C1509  H1510   1.109   .     S
C1509  H1399   1.110   1_655 S
C1509  H1400   1.110   1_655 S
