data_str_m1_o1_o2_pcu_sym.50
_audit_creation_date              2020-01-03
_audit_creation_method            'Materials Studio'
_symmetry_space_group_name_H-M    'P1'
_symmetry_Int_Tables_number       1
_symmetry_cell_setting            triclinic
loop_
_symmetry_equiv_pos_as_xyz
  x,y,z
_cell_length_a                    36.5771
_cell_length_b                    36.5325
_cell_length_c                    34.4862
_cell_angle_alpha                 90.0020
_cell_angle_beta                  90.0006
_cell_angle_gamma                 90.0023
loop_
_atom_site_label
_atom_site_type_symbol
_atom_site_fract_x
_atom_site_fract_y
_atom_site_fract_z
_atom_site_U_iso_or_equiv
_atom_site_adp_type
_atom_site_occupancy
Zn1    Zn    0.20660  -0.00000   0.21760   0.00000  Uiso   1.00
Zn2    Zn    0.29340  -0.00000   0.78240   0.00000  Uiso   1.00
Zn3    Zn    0.00000   0.20660   0.21760   0.00000  Uiso   1.00
Zn4    Zn    0.00000   0.29340   0.78240   0.00000  Uiso   1.00
Zn5    Zn    0.29340  -0.00000   0.21760   0.00000  Uiso   1.00
Zn6    Zn    0.20660  -0.00000   0.78240   0.00000  Uiso   1.00
Zn7    Zn    0.00000   0.29340   0.21760   0.00000  Uiso   1.00
Zn8    Zn    0.00000   0.20660   0.78240   0.00000  Uiso   1.00
Zn9    Zn    0.45660   0.25000   0.71760   0.00000  Uiso   1.00
Zn10   Zn    0.04340   0.25000   0.28240   0.00000  Uiso   1.00
Zn11   Zn    0.25000   0.45660   0.71760   0.00000  Uiso   1.00
Zn12   Zn    0.25000   0.04340   0.28240   0.00000  Uiso   1.00
Zn13   Zn    0.04340   0.25000   0.71760   0.00000  Uiso   1.00
Zn14   Zn    0.45660   0.25000   0.28240   0.00000  Uiso   1.00
Zn15   Zn    0.25000   0.04340   0.71760   0.00000  Uiso   1.00
Zn16   Zn    0.25000   0.45660   0.28240   0.00000  Uiso   1.00
C17    C     0.23577   0.47004   0.04155   0.00000  Uiso   1.00
C18    C     0.26427   0.47006   0.95846   0.00000  Uiso   1.00
C19    C     0.46994   0.23605   0.04159   0.00000  Uiso   1.00
C20    C     0.03006   0.23606   0.95841   0.00000  Uiso   1.00
C21    C     0.26423   0.02995   0.04155   0.00000  Uiso   1.00
C22    C     0.23574   0.02993   0.95846   0.00000  Uiso   1.00
C23    C     0.03006   0.26395   0.04159   0.00000  Uiso   1.00
C24    C     0.46993   0.26394   0.95841   0.00000  Uiso   1.00
C25    C     0.48573   0.27994   0.54155   0.00000  Uiso   1.00
C26    C     0.01423   0.27996   0.45845   0.00000  Uiso   1.00
C27    C     0.28006   0.48606   0.54159   0.00000  Uiso   1.00
C28    C     0.28006   0.01395   0.45842   0.00000  Uiso   1.00
C29    C     0.01426   0.22007   0.54154   0.00000  Uiso   1.00
C30    C     0.48577   0.22005   0.45845   0.00000  Uiso   1.00
C31    C     0.21994   0.01394   0.54159   0.00000  Uiso   1.00
C32    C     0.21994   0.48605   0.45841   0.00000  Uiso   1.00
H33    H     0.22458   0.44706   0.02560   0.00000  Uiso   1.00
H34    H     0.27549   0.44709   0.97440   0.00000  Uiso   1.00
H35    H     0.44687   0.22505   0.02566   0.00000  Uiso   1.00
H36    H     0.05314   0.22508   0.97433   0.00000  Uiso   1.00
H37    H     0.27543   0.05294   0.02561   0.00000  Uiso   1.00
H38    H     0.22452   0.05291   0.97440   0.00000  Uiso   1.00
H39    H     0.05313   0.27495   0.02567   0.00000  Uiso   1.00
H40    H     0.44686   0.27492   0.97433   0.00000  Uiso   1.00
H41    H     0.47451   0.30291   0.52560   0.00000  Uiso   1.00
H42    H     0.02542   0.30294   0.47440   0.00000  Uiso   1.00
H43    H     0.30314   0.47507   0.52567   0.00000  Uiso   1.00
H44    H     0.30314   0.02494   0.47434   0.00000  Uiso   1.00
H45    H     0.02548   0.19709   0.52560   0.00000  Uiso   1.00
H46    H     0.47457   0.19706   0.47439   0.00000  Uiso   1.00
H47    H     0.19686   0.02493   0.52567   0.00000  Uiso   1.00
H48    H     0.19687   0.47506   0.47433   0.00000  Uiso   1.00
C49    C     0.23538   0.46979   0.08208   0.00000  Uiso   1.00
C50    C     0.26466   0.46981   0.91792   0.00000  Uiso   1.00
C51    C     0.46966   0.23571   0.08212   0.00000  Uiso   1.00
C52    C     0.03035   0.23572   0.91788   0.00000  Uiso   1.00
C53    C     0.26462   0.03021   0.08208   0.00000  Uiso   1.00
C54    C     0.23535   0.03019   0.91792   0.00000  Uiso   1.00
C55    C     0.03034   0.26429   0.08212   0.00000  Uiso   1.00
C56    C     0.46965   0.26428   0.91788   0.00000  Uiso   1.00
C57    C     0.48534   0.28019   0.58208   0.00000  Uiso   1.00
C58    C     0.01462   0.28021   0.41792   0.00000  Uiso   1.00
C59    C     0.28035   0.48572   0.58212   0.00000  Uiso   1.00
C60    C     0.28035   0.01429   0.41788   0.00000  Uiso   1.00
C61    C     0.01465   0.21981   0.58208   0.00000  Uiso   1.00
C62    C     0.48538   0.21979   0.41792   0.00000  Uiso   1.00
C63    C     0.21965   0.01428   0.58212   0.00000  Uiso   1.00
C64    C     0.21966   0.48571   0.41788   0.00000  Uiso   1.00
O65    O     0.25000  -0.00000   0.25000   0.00000  Uiso   1.00
O66    O     0.25000  -0.00000   0.75000   0.00000  Uiso   1.00
O67    O     0.00000   0.25000   0.25000   0.00000  Uiso   1.00
O68    O     0.00000   0.25000   0.75000   0.00000  Uiso   1.00
O69    O     0.25000   0.46964   0.33683   0.00000  Uiso   1.00
O70    O     0.25000   0.03036   0.66317   0.00000  Uiso   1.00
O71    O     0.03036   0.25000   0.33683   0.00000  Uiso   1.00
O72    O     0.46964   0.25000   0.66317   0.00000  Uiso   1.00
O73    O     0.25000   0.03036   0.33683   0.00000  Uiso   1.00
O74    O     0.25000   0.46964   0.66317   0.00000  Uiso   1.00
O75    O     0.46964   0.25000   0.33683   0.00000  Uiso   1.00
O76    O     0.03036   0.25000   0.66317   0.00000  Uiso   1.00
O77    O     0.00000   0.21964   0.83683   0.00000  Uiso   1.00
O78    O     0.00000   0.28036   0.16317   0.00000  Uiso   1.00
O79    O     0.28036  -0.00000   0.83683   0.00000  Uiso   1.00
O80    O     0.21964  -0.00000   0.16317   0.00000  Uiso   1.00
O81    O     0.00000   0.28036   0.83683   0.00000  Uiso   1.00
O82    O     0.00000   0.21964   0.16317   0.00000  Uiso   1.00
O83    O     0.21964  -0.00000   0.83683   0.00000  Uiso   1.00
O84    O     0.28036  -0.00000   0.16317   0.00000  Uiso   1.00
O85    O     0.20726   0.07307   0.27282   0.00000  Uiso   1.00
O86    O     0.29275   0.42693   0.72718   0.00000  Uiso   1.00
O87    O     0.42693   0.20726   0.27282   0.00000  Uiso   1.00
O88    O     0.07307   0.29274   0.72718   0.00000  Uiso   1.00
O89    O     0.29275   0.42693   0.27282   0.00000  Uiso   1.00
O90    O     0.20726   0.07307   0.72718   0.00000  Uiso   1.00
O91    O     0.07307   0.29274   0.27282   0.00000  Uiso   1.00
O92    O     0.42693   0.20726   0.72718   0.00000  Uiso   1.00
O93    O     0.20726   0.42693   0.72718   0.00000  Uiso   1.00
O94    O     0.29275   0.07307   0.27282   0.00000  Uiso   1.00
O95    O     0.42693   0.29275   0.72718   0.00000  Uiso   1.00
O96    O     0.07307   0.20725   0.27282   0.00000  Uiso   1.00
O97    O     0.29275   0.07307   0.72718   0.00000  Uiso   1.00
O98    O     0.20726   0.42693   0.27282   0.00000  Uiso   1.00
O99    O     0.07307   0.20725   0.72718   0.00000  Uiso   1.00
O100   O     0.42693   0.29275   0.27282   0.00000  Uiso   1.00
O101   O     0.45726   0.32307   0.77282   0.00000  Uiso   1.00
O102   O     0.04275   0.17693   0.22718   0.00000  Uiso   1.00
O103   O     0.17693   0.45725   0.77282   0.00000  Uiso   1.00
O104   O     0.32307   0.04275   0.22718   0.00000  Uiso   1.00
O105   O     0.04275   0.17693   0.77282   0.00000  Uiso   1.00
O106   O     0.45726   0.32307   0.22718   0.00000  Uiso   1.00
O107   O     0.32307   0.04275   0.77282   0.00000  Uiso   1.00
O108   O     0.17693   0.45725   0.22718   0.00000  Uiso   1.00
O109   O     0.45726   0.17693   0.22718   0.00000  Uiso   1.00
O110   O     0.04275   0.32307   0.77282   0.00000  Uiso   1.00
O111   O     0.17693   0.04275   0.22718   0.00000  Uiso   1.00
O112   O     0.32307   0.45725   0.77282   0.00000  Uiso   1.00
O113   O     0.04275   0.32307   0.22718   0.00000  Uiso   1.00
O114   O     0.45726   0.17693   0.77282   0.00000  Uiso   1.00
O115   O     0.32307   0.45725   0.22718   0.00000  Uiso   1.00
O116   O     0.17693   0.04275   0.77282   0.00000  Uiso   1.00
C117   C     0.25000  -0.00000   0.02128   0.00000  Uiso   1.00
C118   C     0.25000  -0.00000   0.97872   0.00000  Uiso   1.00
C119   C    -0.00000   0.25000   0.02130   0.00000  Uiso   1.00
C120   C    -0.00000   0.25000   0.97870   0.00000  Uiso   1.00
C121   C    -0.00000   0.25000   0.52128   0.00000  Uiso   1.00
C122   C    -0.00000   0.25000   0.47872   0.00000  Uiso   1.00
C123   C     0.25000  -0.00000   0.52130   0.00000  Uiso   1.00
C124   C     0.25000  -0.00000   0.47870   0.00000  Uiso   1.00
C125   C     0.25000   0.00000   0.35513   0.00000  Uiso   1.00
C126   C     0.25000  -0.00000   0.64488   0.00000  Uiso   1.00
C127   C     0.00000   0.25000   0.35512   0.00000  Uiso   1.00
C128   C    -0.00000   0.25000   0.64488   0.00000  Uiso   1.00
C129   C     0.00000   0.25000   0.85513   0.00000  Uiso   1.00
C130   C     0.00000   0.25000   0.14488   0.00000  Uiso   1.00
C131   C     0.25000  -0.00000   0.85512   0.00000  Uiso   1.00
C132   C     0.25000  -0.00000   0.14488   0.00000  Uiso   1.00
C133   C     0.18004   0.07000   0.25003   0.00000  Uiso   1.00
C134   C     0.31995   0.42999   0.75003   0.00000  Uiso   1.00
C135   C     0.43005   0.17999   0.25003   0.00000  Uiso   1.00
C136   C     0.06996   0.32000   0.75003   0.00000  Uiso   1.00
C137   C     0.31996   0.43000   0.25003   0.00000  Uiso   1.00
C138   C     0.18005   0.07001   0.75003   0.00000  Uiso   1.00
C139   C     0.06995   0.32001   0.25003   0.00000  Uiso   1.00
C140   C     0.43004   0.18000   0.75002   0.00000  Uiso   1.00
C141   C     0.18004   0.43000   0.74997   0.00000  Uiso   1.00
C142   C     0.31995   0.07001   0.24997   0.00000  Uiso   1.00
C143   C     0.43005   0.32001   0.74997   0.00000  Uiso   1.00
C144   C     0.06996   0.18000   0.24997   0.00000  Uiso   1.00
C145   C     0.31996   0.07000   0.74998   0.00000  Uiso   1.00
C146   C     0.18005   0.42999   0.24997   0.00000  Uiso   1.00
C147   C     0.06995   0.17999   0.74997   0.00000  Uiso   1.00
C148   C     0.43004   0.32000   0.24997   0.00000  Uiso   1.00
C149   C     0.12321   0.40394   0.27762   0.00000  Uiso   1.00
C150   C     0.34030   0.13229   0.76688   0.00000  Uiso   1.00
C151   C     0.09012   0.11753   0.26636   0.00000  Uiso   1.00
C152   C     0.37326   0.34611   0.77768   0.00000  Uiso   1.00
C153   C     0.37679   0.09606   0.27762   0.00000  Uiso   1.00
C154   C     0.11740   0.40974   0.73305   0.00000  Uiso   1.00
C155   C     0.40988   0.38247   0.26637   0.00000  Uiso   1.00
C156   C     0.09615   0.12357   0.72245   0.00000  Uiso   1.00
C157   C     0.12332   0.09617   0.72224   0.00000  Uiso   1.00
C158   C     0.38261   0.40975   0.26693   0.00000  Uiso   1.00
C159   C     0.09013   0.38246   0.73361   0.00000  Uiso   1.00
C160   C     0.40396   0.12346   0.27741   0.00000  Uiso   1.00
C161   C     0.34609   0.37351   0.77747   0.00000  Uiso   1.00
C162   C     0.11739   0.09025   0.26692   0.00000  Uiso   1.00
C163   C     0.36756   0.15957   0.76740   0.00000  Uiso   1.00
C164   C     0.09604   0.37654   0.27741   0.00000  Uiso   1.00
C165   C     0.40970   0.11771   0.73312   0.00000  Uiso   1.00
C166   C     0.12679   0.34606   0.22238   0.00000  Uiso   1.00
C167   C     0.37674   0.40389   0.72232   0.00000  Uiso   1.00
C168   C     0.15988   0.13247   0.23364   0.00000  Uiso   1.00
C169   C     0.13260   0.34026   0.76695   0.00000  Uiso   1.00
C170   C     0.37321   0.15394   0.22238   0.00000  Uiso   1.00
C171   C     0.15385   0.12643   0.77755   0.00000  Uiso   1.00
C172   C     0.34012   0.36753   0.23363   0.00000  Uiso   1.00
C173   C     0.36739   0.34025   0.23307   0.00000  Uiso   1.00
C174   C     0.12668   0.15383   0.77776   0.00000  Uiso   1.00
C175   C     0.34604   0.12654   0.22259   0.00000  Uiso   1.00
C176   C     0.15987   0.36754   0.76639   0.00000  Uiso   1.00
C177   C     0.13261   0.15975   0.23308   0.00000  Uiso   1.00
C178   C     0.40391   0.37649   0.72253   0.00000  Uiso   1.00
C179   C     0.15396   0.37346   0.22259   0.00000  Uiso   1.00
C180   C     0.38244   0.09043   0.73261   0.00000  Uiso   1.00
C181   C     0.09815   0.34800   0.24985   0.00000  Uiso   1.00
C182   C     0.40188   0.15196   0.75030   0.00000  Uiso   1.00
C183   C     0.15189   0.09805   0.25031   0.00000  Uiso   1.00
C184   C     0.34815   0.40199   0.74985   0.00000  Uiso   1.00
C185   C     0.40185   0.15199   0.24985   0.00000  Uiso   1.00
C186   C     0.09811   0.34804   0.75031   0.00000  Uiso   1.00
C187   C     0.34812   0.40195   0.25031   0.00000  Uiso   1.00
C188   C     0.15185   0.09800   0.74985   0.00000  Uiso   1.00
C189   C     0.09815   0.15200   0.75015   0.00000  Uiso   1.00
C190   C     0.40189   0.34804   0.24969   0.00000  Uiso   1.00
C191   C     0.15189   0.40195   0.74969   0.00000  Uiso   1.00
C192   C     0.34815   0.09801   0.25015   0.00000  Uiso   1.00
C193   C     0.40185   0.34800   0.75015   0.00000  Uiso   1.00
C194   C     0.09811   0.15195   0.24969   0.00000  Uiso   1.00
C195   C     0.34812   0.09804   0.74970   0.00000  Uiso   1.00
C196   C     0.15185   0.40200   0.25015   0.00000  Uiso   1.00
C197   C     0.25000  -0.00000   0.10249   0.00000  Uiso   1.00
C198   C     0.25000  -0.00000   0.89752   0.00000  Uiso   1.00
C199   C     0.00000   0.25000   0.10251   0.00000  Uiso   1.00
C200   C    -0.00000   0.25000   0.89749   0.00000  Uiso   1.00
C201   C    -0.00000   0.25000   0.60248   0.00000  Uiso   1.00
C202   C     0.00000   0.25000   0.39751   0.00000  Uiso   1.00
C203   C     0.25000  -0.00000   0.60251   0.00000  Uiso   1.00
C204   C     0.25000   0.00000   0.39749   0.00000  Uiso   1.00
C205   C     0.12134   0.43503   0.30689   0.00000  Uiso   1.00
H206   H     0.14387   0.45515   0.30448   0.00000  Uiso   1.00
H207   H     0.09554   0.45058   0.30285   0.00000  Uiso   1.00
H208   H     0.12253   0.42377   0.33676   0.00000  Uiso   1.00
C209   C     0.30277   0.13859   0.78481   0.00000  Uiso   1.00
H210   H     0.29758   0.11767   0.80753   0.00000  Uiso   1.00
H211   H     0.29909   0.16564   0.79862   0.00000  Uiso   1.00
H212   H     0.28141   0.13627   0.76208   0.00000  Uiso   1.00
C213   C     0.05239   0.11101   0.28375   0.00000  Uiso   1.00
H214   H     0.03130   0.11348   0.26076   0.00000  Uiso   1.00
H215   H     0.04859   0.08383   0.29723   0.00000  Uiso   1.00
H216   H     0.04690   0.13171   0.30660   0.00000  Uiso   1.00
C217   C     0.37144   0.31507   0.80701   0.00000  Uiso   1.00
H218   H     0.39396   0.29494   0.80460   0.00000  Uiso   1.00
H219   H     0.37268   0.32638   0.83686   0.00000  Uiso   1.00
H220   H     0.34562   0.29952   0.80305   0.00000  Uiso   1.00
C221   C     0.37866   0.06497   0.30688   0.00000  Uiso   1.00
H222   H     0.35613   0.04485   0.30448   0.00000  Uiso   1.00
H223   H     0.40446   0.04942   0.30284   0.00000  Uiso   1.00
H224   H     0.37748   0.07624   0.33676   0.00000  Uiso   1.00
C225   C     0.10975   0.44652   0.71402   0.00000  Uiso   1.00
H226   H     0.13322   0.46565   0.71405   0.00000  Uiso   1.00
H227   H     0.10239   0.44232   0.68311   0.00000  Uiso   1.00
H228   H     0.08699   0.46046   0.72937   0.00000  Uiso   1.00
C229   C     0.44761   0.38899   0.28375   0.00000  Uiso   1.00
H230   H     0.46870   0.38652   0.26077   0.00000  Uiso   1.00
H231   H     0.45141   0.41616   0.29724   0.00000  Uiso   1.00
H232   H     0.45309   0.36829   0.30661   0.00000  Uiso   1.00
C233   C     0.06454   0.12327   0.69374   0.00000  Uiso   1.00
H234   H     0.03823   0.12203   0.70975   0.00000  Uiso   1.00
H235   H     0.06517   0.14869   0.67613   0.00000  Uiso   1.00
H236   H     0.06469   0.10006   0.67318   0.00000  Uiso   1.00
C237   C     0.12156   0.06519   0.69284   0.00000  Uiso   1.00
H238   H     0.14406   0.04504   0.69527   0.00000  Uiso   1.00
H239   H     0.09573   0.04964   0.69670   0.00000  Uiso   1.00
H240   H     0.12287   0.07656   0.66302   0.00000  Uiso   1.00
C241   C     0.39027   0.44654   0.28592   0.00000  Uiso   1.00
H242   H     0.36680   0.46567   0.28591   0.00000  Uiso   1.00
H243   H     0.39766   0.44236   0.31684   0.00000  Uiso   1.00
H244   H     0.41303   0.46048   0.27055   0.00000  Uiso   1.00
C245   C     0.05241   0.38896   0.71619   0.00000  Uiso   1.00
H246   H     0.03130   0.38650   0.73916   0.00000  Uiso   1.00
H247   H     0.04861   0.41613   0.70269   0.00000  Uiso   1.00
H248   H     0.04694   0.36825   0.69334   0.00000  Uiso   1.00
C249   C     0.43569   0.12304   0.30597   0.00000  Uiso   1.00
H250   H     0.46194   0.12186   0.28984   0.00000  Uiso   1.00
H251   H     0.43514   0.14840   0.32369   0.00000  Uiso   1.00
H252   H     0.43562   0.09976   0.32643   0.00000  Uiso   1.00
C253   C     0.31441   0.37314   0.80610   0.00000  Uiso   1.00
H254   H     0.31499   0.39852   0.82377   0.00000  Uiso   1.00
H255   H     0.28814   0.37193   0.79002   0.00000  Uiso   1.00
H256   H     0.31452   0.34989   0.82660   0.00000  Uiso   1.00
C257   C     0.10973   0.05346   0.28592   0.00000  Uiso   1.00
H258   H     0.13320   0.03433   0.28590   0.00000  Uiso   1.00
H259   H     0.10234   0.05764   0.31683   0.00000  Uiso   1.00
H260   H     0.08697   0.03952   0.27054   0.00000  Uiso   1.00
C261   C     0.36007   0.19620   0.78682   0.00000  Uiso   1.00
H262   H     0.38349   0.21539   0.78660   0.00000  Uiso   1.00
H263   H     0.33709   0.21021   0.77191   0.00000  Uiso   1.00
H264   H     0.35310   0.19176   0.81780   0.00000  Uiso   1.00
C265   C     0.06432   0.37696   0.30598   0.00000  Uiso   1.00
H266   H     0.03807   0.37814   0.28985   0.00000  Uiso   1.00
H267   H     0.06487   0.35160   0.32369   0.00000  Uiso   1.00
H268   H     0.06439   0.40024   0.32644   0.00000  Uiso   1.00
C269   C     0.44723   0.11141   0.71519   0.00000  Uiso   1.00
H270   H     0.45242   0.13233   0.69247   0.00000  Uiso   1.00
H271   H     0.46859   0.11373   0.73792   0.00000  Uiso   1.00
H272   H     0.45091   0.08436   0.70138   0.00000  Uiso   1.00
C273   C     0.12866   0.31497   0.19312   0.00000  Uiso   1.00
H274   H     0.10613   0.29485   0.19552   0.00000  Uiso   1.00
H275   H     0.12747   0.32623   0.16324   0.00000  Uiso   1.00
H276   H     0.15446   0.29942   0.19716   0.00000  Uiso   1.00
C277   C     0.37856   0.43493   0.69299   0.00000  Uiso   1.00
H278   H     0.35604   0.45506   0.69540   0.00000  Uiso   1.00
H279   H     0.40438   0.45048   0.69695   0.00000  Uiso   1.00
H280   H     0.37732   0.42362   0.66314   0.00000  Uiso   1.00
C281   C     0.19761   0.13899   0.21625   0.00000  Uiso   1.00
H282   H     0.21871   0.13652   0.23924   0.00000  Uiso   1.00
H283   H     0.20310   0.11829   0.19340   0.00000  Uiso   1.00
H284   H     0.20142   0.16617   0.20277   0.00000  Uiso   1.00
C285   C     0.14025   0.30348   0.78598   0.00000  Uiso   1.00
H286   H     0.11678   0.28435   0.78595   0.00000  Uiso   1.00
H287   H     0.16301   0.28954   0.77063   0.00000  Uiso   1.00
H288   H     0.14761   0.30768   0.81689   0.00000  Uiso   1.00
C289   C     0.37134   0.18503   0.19312   0.00000  Uiso   1.00
H290   H     0.39387   0.20515   0.19552   0.00000  Uiso   1.00
H291   H     0.37252   0.17376   0.16324   0.00000  Uiso   1.00
H292   H     0.34554   0.20058   0.19716   0.00000  Uiso   1.00
C293   C     0.18546   0.12673   0.80626   0.00000  Uiso   1.00
H294   H     0.21177   0.12797   0.79026   0.00000  Uiso   1.00
H295   H     0.18531   0.14994   0.82682   0.00000  Uiso   1.00
H296   H     0.18483   0.10131   0.82387   0.00000  Uiso   1.00
C297   C     0.30239   0.36101   0.21625   0.00000  Uiso   1.00
H298   H     0.28130   0.36348   0.23923   0.00000  Uiso   1.00
H299   H     0.29691   0.38171   0.19339   0.00000  Uiso   1.00
H300   H     0.29859   0.33384   0.20276   0.00000  Uiso   1.00
C301   C     0.35973   0.30346   0.21408   0.00000  Uiso   1.00
H302   H     0.38320   0.28433   0.21409   0.00000  Uiso   1.00
H303   H     0.33697   0.28952   0.22945   0.00000  Uiso   1.00
H304   H     0.35234   0.30764   0.18316   0.00000  Uiso   1.00
C305   C     0.12844   0.18481   0.80716   0.00000  Uiso   1.00
H306   H     0.10594   0.20496   0.80473   0.00000  Uiso   1.00
H307   H     0.12713   0.17344   0.83698   0.00000  Uiso   1.00
H308   H     0.15427   0.20036   0.80330   0.00000  Uiso   1.00
C309   C     0.31431   0.12696   0.19403   0.00000  Uiso   1.00
H310   H     0.28807   0.12814   0.21016   0.00000  Uiso   1.00
H311   H     0.31438   0.15024   0.17357   0.00000  Uiso   1.00
H312   H     0.31486   0.10160   0.17631   0.00000  Uiso   1.00
C313   C     0.19759   0.36104   0.78381   0.00000  Uiso   1.00
H314   H     0.21870   0.36350   0.76084   0.00000  Uiso   1.00
H315   H     0.20306   0.38175   0.80666   0.00000  Uiso   1.00
H316   H     0.20139   0.33387   0.79731   0.00000  Uiso   1.00
C317   C     0.14027   0.19654   0.21408   0.00000  Uiso   1.00
H318   H     0.11680   0.21567   0.21410   0.00000  Uiso   1.00
H319   H     0.16303   0.21048   0.22946   0.00000  Uiso   1.00
H320   H     0.14766   0.19236   0.18317   0.00000  Uiso   1.00
C321   C     0.43559   0.37686   0.69390   0.00000  Uiso   1.00
H322   H     0.43501   0.35148   0.67623   0.00000  Uiso   1.00
H323   H     0.43548   0.40011   0.67340   0.00000  Uiso   1.00
H324   H     0.46186   0.37807   0.70998   0.00000  Uiso   1.00
C325   C     0.18568   0.37304   0.19402   0.00000  Uiso   1.00
H326   H     0.21193   0.37186   0.21015   0.00000  Uiso   1.00
H327   H     0.18561   0.34976   0.17356   0.00000  Uiso   1.00
H328   H     0.18514   0.39840   0.17631   0.00000  Uiso   1.00
C329   C     0.38993   0.05380   0.71318   0.00000  Uiso   1.00
H330   H     0.36651   0.03461   0.71340   0.00000  Uiso   1.00
H331   H     0.39690   0.05824   0.68220   0.00000  Uiso   1.00
H332   H     0.41291   0.03979   0.72809   0.00000  Uiso   1.00
C333   C     0.21996   0.43699   0.10303   0.00000  Uiso   1.00
H334   H     0.19562   0.44523   0.12014   0.00000  Uiso   1.00
H335   H     0.21140   0.41513   0.08256   0.00000  Uiso   1.00
H336   H     0.24092   0.42532   0.12278   0.00000  Uiso   1.00
C337   C     0.28012   0.43702   0.89697   0.00000  Uiso   1.00
H338   H     0.28869   0.41518   0.91744   0.00000  Uiso   1.00
H339   H     0.25917   0.42534   0.87721   0.00000  Uiso   1.00
H340   H     0.30445   0.44529   0.87987   0.00000  Uiso   1.00
C341   C     0.43667   0.22076   0.10311   0.00000  Uiso   1.00
H342   H     0.42518   0.24205   0.12262   0.00000  Uiso   1.00
H343   H     0.41481   0.21226   0.08264   0.00000  Uiso   1.00
H344   H     0.44453   0.19646   0.12053   0.00000  Uiso   1.00
C345   C     0.06334   0.22079   0.89689   0.00000  Uiso   1.00
H346   H     0.07482   0.24208   0.87738   0.00000  Uiso   1.00
H347   H     0.08520   0.21230   0.91736   0.00000  Uiso   1.00
H348   H     0.05548   0.19649   0.87947   0.00000  Uiso   1.00
C349   C     0.28004   0.06301   0.10304   0.00000  Uiso   1.00
H350   H     0.30438   0.05477   0.12015   0.00000  Uiso   1.00
H351   H     0.28860   0.08487   0.08256   0.00000  Uiso   1.00
H352   H     0.25908   0.07468   0.12279   0.00000  Uiso   1.00
C353   C     0.21989   0.06297   0.89698   0.00000  Uiso   1.00
H354   H     0.19555   0.05470   0.87988   0.00000  Uiso   1.00
H355   H     0.21131   0.08482   0.91745   0.00000  Uiso   1.00
H356   H     0.24083   0.07466   0.87721   0.00000  Uiso   1.00
C357   C     0.06333   0.27923   0.10312   0.00000  Uiso   1.00
H358   H     0.07482   0.25795   0.12262   0.00000  Uiso   1.00
H359   H     0.08519   0.28774   0.08264   0.00000  Uiso   1.00
H360   H     0.05547   0.30354   0.12053   0.00000  Uiso   1.00
C361   C     0.43665   0.27920   0.89689   0.00000  Uiso   1.00
H362   H     0.44451   0.30351   0.87947   0.00000  Uiso   1.00
H363   H     0.42518   0.25792   0.87738   0.00000  Uiso   1.00
H364   H     0.41480   0.28770   0.91736   0.00000  Uiso   1.00
C365   C     0.46988   0.31298   0.60303   0.00000  Uiso   1.00
H366   H     0.46131   0.33482   0.58256   0.00000  Uiso   1.00
H367   H     0.44555   0.30471   0.62013   0.00000  Uiso   1.00
H368   H     0.49083   0.32466   0.62279   0.00000  Uiso   1.00
C369   C     0.03004   0.31301   0.39697   0.00000  Uiso   1.00
H370   H     0.05438   0.30477   0.37986   0.00000  Uiso   1.00
H371   H     0.00908   0.32468   0.37722   0.00000  Uiso   1.00
H372   H     0.03860   0.33487   0.41744   0.00000  Uiso   1.00
C373   C     0.31334   0.47079   0.60312   0.00000  Uiso   1.00
H374   H     0.30548   0.44648   0.62053   0.00000  Uiso   1.00
H375   H     0.33520   0.46229   0.58264   0.00000  Uiso   1.00
H376   H     0.32482   0.49207   0.62262   0.00000  Uiso   1.00
C377   C     0.31334   0.02923   0.39689   0.00000  Uiso   1.00
H378   H     0.30547   0.05353   0.37947   0.00000  Uiso   1.00
H379   H     0.33519   0.03773   0.41736   0.00000  Uiso   1.00
H380   H     0.32482   0.00795   0.37738   0.00000  Uiso   1.00
C381   C     0.03012   0.18703   0.60302   0.00000  Uiso   1.00
H382   H     0.05446   0.19530   0.62012   0.00000  Uiso   1.00
H383   H     0.00918   0.17534   0.62279   0.00000  Uiso   1.00
H384   H     0.03869   0.16518   0.58255   0.00000  Uiso   1.00
C385   C     0.46996   0.18699   0.39697   0.00000  Uiso   1.00
H386   H     0.44562   0.19523   0.37985   0.00000  Uiso   1.00
H387   H     0.49092   0.17532   0.37722   0.00000  Uiso   1.00
H388   H     0.46140   0.16513   0.41744   0.00000  Uiso   1.00
C389   C     0.18666   0.02922   0.60311   0.00000  Uiso   1.00
H390   H     0.19452   0.05352   0.62053   0.00000  Uiso   1.00
H391   H     0.16481   0.03771   0.58264   0.00000  Uiso   1.00
H392   H     0.17518   0.00793   0.62262   0.00000  Uiso   1.00
C393   C     0.18666   0.47077   0.39689   0.00000  Uiso   1.00
H394   H     0.19453   0.44647   0.37947   0.00000  Uiso   1.00
H395   H     0.16481   0.46227   0.41736   0.00000  Uiso   1.00
H396   H     0.17518   0.49205   0.37738   0.00000  Uiso   1.00
Zn397  Zn    0.70660  -0.00000   0.21760   0.00000  Uiso   1.00
Zn398  Zn    0.79340  -0.00000   0.78240   0.00000  Uiso   1.00
Zn399  Zn    0.50000   0.20660   0.21760   0.00000  Uiso   1.00
Zn400  Zn    0.50000   0.29340   0.78240   0.00000  Uiso   1.00
Zn401  Zn    0.79340  -0.00000   0.21760   0.00000  Uiso   1.00
Zn402  Zn    0.70660  -0.00000   0.78240   0.00000  Uiso   1.00
Zn403  Zn    0.50000   0.29340   0.21760   0.00000  Uiso   1.00
Zn404  Zn    0.50000   0.20660   0.78240   0.00000  Uiso   1.00
Zn405  Zn    0.95660   0.25000   0.71760   0.00000  Uiso   1.00
Zn406  Zn    0.54340   0.25000   0.28240   0.00000  Uiso   1.00
Zn407  Zn    0.75000   0.45660   0.71760   0.00000  Uiso   1.00
Zn408  Zn    0.75000   0.04340   0.28240   0.00000  Uiso   1.00
Zn409  Zn    0.54340   0.25000   0.71760   0.00000  Uiso   1.00
Zn410  Zn    0.95660   0.25000   0.28240   0.00000  Uiso   1.00
Zn411  Zn    0.75000   0.04340   0.71760   0.00000  Uiso   1.00
Zn412  Zn    0.75000   0.45660   0.28240   0.00000  Uiso   1.00
C413   C     0.73577   0.47004   0.04155   0.00000  Uiso   1.00
C414   C     0.76427   0.47006   0.95846   0.00000  Uiso   1.00
C415   C     0.96994   0.23605   0.04159   0.00000  Uiso   1.00
C416   C     0.53006   0.23606   0.95841   0.00000  Uiso   1.00
C417   C     0.76423   0.02995   0.04155   0.00000  Uiso   1.00
C418   C     0.73574   0.02993   0.95846   0.00000  Uiso   1.00
C419   C     0.53006   0.26395   0.04159   0.00000  Uiso   1.00
C420   C     0.96993   0.26394   0.95841   0.00000  Uiso   1.00
C421   C     0.98573   0.27994   0.54155   0.00000  Uiso   1.00
C422   C     0.51423   0.27996   0.45845   0.00000  Uiso   1.00
C423   C     0.78006   0.48606   0.54159   0.00000  Uiso   1.00
C424   C     0.78006   0.01395   0.45842   0.00000  Uiso   1.00
C425   C     0.51426   0.22007   0.54154   0.00000  Uiso   1.00
C426   C     0.98577   0.22005   0.45845   0.00000  Uiso   1.00
C427   C     0.71994   0.01394   0.54159   0.00000  Uiso   1.00
C428   C     0.71994   0.48605   0.45841   0.00000  Uiso   1.00
H429   H     0.72458   0.44706   0.02560   0.00000  Uiso   1.00
H430   H     0.77549   0.44709   0.97440   0.00000  Uiso   1.00
H431   H     0.94687   0.22505   0.02566   0.00000  Uiso   1.00
H432   H     0.55314   0.22508   0.97433   0.00000  Uiso   1.00
H433   H     0.77543   0.05294   0.02561   0.00000  Uiso   1.00
H434   H     0.72452   0.05291   0.97440   0.00000  Uiso   1.00
H435   H     0.55313   0.27495   0.02567   0.00000  Uiso   1.00
H436   H     0.94686   0.27492   0.97433   0.00000  Uiso   1.00
H437   H     0.97451   0.30291   0.52560   0.00000  Uiso   1.00
H438   H     0.52542   0.30294   0.47440   0.00000  Uiso   1.00
H439   H     0.80314   0.47507   0.52567   0.00000  Uiso   1.00
H440   H     0.80314   0.02494   0.47434   0.00000  Uiso   1.00
H441   H     0.52548   0.19709   0.52560   0.00000  Uiso   1.00
H442   H     0.97457   0.19706   0.47439   0.00000  Uiso   1.00
H443   H     0.69686   0.02493   0.52567   0.00000  Uiso   1.00
H444   H     0.69687   0.47506   0.47433   0.00000  Uiso   1.00
C445   C     0.73538   0.46979   0.08208   0.00000  Uiso   1.00
C446   C     0.76466   0.46981   0.91792   0.00000  Uiso   1.00
C447   C     0.96966   0.23571   0.08212   0.00000  Uiso   1.00
C448   C     0.53035   0.23572   0.91788   0.00000  Uiso   1.00
C449   C     0.76462   0.03021   0.08208   0.00000  Uiso   1.00
C450   C     0.73535   0.03019   0.91792   0.00000  Uiso   1.00
C451   C     0.53034   0.26429   0.08212   0.00000  Uiso   1.00
C452   C     0.96965   0.26428   0.91788   0.00000  Uiso   1.00
C453   C     0.98534   0.28019   0.58208   0.00000  Uiso   1.00
C454   C     0.51462   0.28021   0.41792   0.00000  Uiso   1.00
C455   C     0.78035   0.48572   0.58212   0.00000  Uiso   1.00
C456   C     0.78035   0.01429   0.41788   0.00000  Uiso   1.00
C457   C     0.51465   0.21981   0.58208   0.00000  Uiso   1.00
C458   C     0.98538   0.21979   0.41792   0.00000  Uiso   1.00
C459   C     0.71965   0.01428   0.58212   0.00000  Uiso   1.00
C460   C     0.71966   0.48571   0.41788   0.00000  Uiso   1.00
O461   O     0.75000  -0.00000   0.25000   0.00000  Uiso   1.00
O462   O     0.75000  -0.00000   0.75000   0.00000  Uiso   1.00
O463   O     0.50000   0.25000   0.25000   0.00000  Uiso   1.00
O464   O     0.50000   0.25000   0.75000   0.00000  Uiso   1.00
O465   O     0.75000   0.46964   0.33683   0.00000  Uiso   1.00
O466   O     0.75000   0.03036   0.66317   0.00000  Uiso   1.00
O467   O     0.53036   0.25000   0.33683   0.00000  Uiso   1.00
O468   O     0.96964   0.25000   0.66317   0.00000  Uiso   1.00
O469   O     0.75000   0.03036   0.33683   0.00000  Uiso   1.00
O470   O     0.75000   0.46964   0.66317   0.00000  Uiso   1.00
O471   O     0.96964   0.25000   0.33683   0.00000  Uiso   1.00
O472   O     0.53036   0.25000   0.66317   0.00000  Uiso   1.00
O473   O     0.50000   0.21964   0.83683   0.00000  Uiso   1.00
O474   O     0.50000   0.28036   0.16317   0.00000  Uiso   1.00
O475   O     0.78036  -0.00000   0.83683   0.00000  Uiso   1.00
O476   O     0.71964  -0.00000   0.16317   0.00000  Uiso   1.00
O477   O     0.50000   0.28036   0.83683   0.00000  Uiso   1.00
O478   O     0.50000   0.21964   0.16317   0.00000  Uiso   1.00
O479   O     0.71964  -0.00000   0.83683   0.00000  Uiso   1.00
O480   O     0.78036  -0.00000   0.16317   0.00000  Uiso   1.00
O481   O     0.70726   0.07307   0.27282   0.00000  Uiso   1.00
O482   O     0.79275   0.42693   0.72718   0.00000  Uiso   1.00
O483   O     0.92693   0.20726   0.27282   0.00000  Uiso   1.00
O484   O     0.57307   0.29274   0.72718   0.00000  Uiso   1.00
O485   O     0.79275   0.42693   0.27282   0.00000  Uiso   1.00
O486   O     0.70726   0.07307   0.72718   0.00000  Uiso   1.00
O487   O     0.57307   0.29274   0.27282   0.00000  Uiso   1.00
O488   O     0.92693   0.20726   0.72718   0.00000  Uiso   1.00
O489   O     0.70726   0.42693   0.72718   0.00000  Uiso   1.00
O490   O     0.79275   0.07307   0.27282   0.00000  Uiso   1.00
O491   O     0.92693   0.29275   0.72718   0.00000  Uiso   1.00
O492   O     0.57307   0.20725   0.27282   0.00000  Uiso   1.00
O493   O     0.79275   0.07307   0.72718   0.00000  Uiso   1.00
O494   O     0.70726   0.42693   0.27282   0.00000  Uiso   1.00
O495   O     0.57307   0.20725   0.72718   0.00000  Uiso   1.00
O496   O     0.92693   0.29275   0.27282   0.00000  Uiso   1.00
O497   O     0.95726   0.32307   0.77282   0.00000  Uiso   1.00
O498   O     0.54275   0.17693   0.22718   0.00000  Uiso   1.00
O499   O     0.67693   0.45725   0.77282   0.00000  Uiso   1.00
O500   O     0.82307   0.04275   0.22718   0.00000  Uiso   1.00
O501   O     0.54275   0.17693   0.77282   0.00000  Uiso   1.00
O502   O     0.95726   0.32307   0.22718   0.00000  Uiso   1.00
O503   O     0.82307   0.04275   0.77282   0.00000  Uiso   1.00
O504   O     0.67693   0.45725   0.22718   0.00000  Uiso   1.00
O505   O     0.95726   0.17693   0.22718   0.00000  Uiso   1.00
O506   O     0.54275   0.32307   0.77282   0.00000  Uiso   1.00
O507   O     0.67693   0.04275   0.22718   0.00000  Uiso   1.00
O508   O     0.82307   0.45725   0.77282   0.00000  Uiso   1.00
O509   O     0.54275   0.32307   0.22718   0.00000  Uiso   1.00
O510   O     0.95726   0.17693   0.77282   0.00000  Uiso   1.00
O511   O     0.82307   0.45725   0.22718   0.00000  Uiso   1.00
O512   O     0.67693   0.04275   0.77282   0.00000  Uiso   1.00
C513   C     0.75000  -0.00000   0.02128   0.00000  Uiso   1.00
C514   C     0.75000  -0.00000   0.97872   0.00000  Uiso   1.00
C515   C     0.50000   0.25000   0.02130   0.00000  Uiso   1.00
C516   C     0.50000   0.25000   0.97870   0.00000  Uiso   1.00
C517   C     0.50000   0.25000   0.52128   0.00000  Uiso   1.00
C518   C     0.50000   0.25000   0.47872   0.00000  Uiso   1.00
C519   C     0.75000  -0.00000   0.52130   0.00000  Uiso   1.00
C520   C     0.75000  -0.00000   0.47870   0.00000  Uiso   1.00
C521   C     0.75000   0.00000   0.35513   0.00000  Uiso   1.00
C522   C     0.75000  -0.00000   0.64488   0.00000  Uiso   1.00
C523   C     0.50000   0.25000   0.35512   0.00000  Uiso   1.00
C524   C     0.50000   0.25000   0.64488   0.00000  Uiso   1.00
C525   C     0.50000   0.25000   0.85513   0.00000  Uiso   1.00
C526   C     0.50000   0.25000   0.14488   0.00000  Uiso   1.00
C527   C     0.75000  -0.00000   0.85512   0.00000  Uiso   1.00
C528   C     0.75000  -0.00000   0.14488   0.00000  Uiso   1.00
C529   C     0.68004   0.07000   0.25003   0.00000  Uiso   1.00
C530   C     0.81995   0.42999   0.75003   0.00000  Uiso   1.00
C531   C     0.93005   0.17999   0.25003   0.00000  Uiso   1.00
C532   C     0.56996   0.32000   0.75003   0.00000  Uiso   1.00
C533   C     0.81996   0.43000   0.25003   0.00000  Uiso   1.00
C534   C     0.68005   0.07001   0.75003   0.00000  Uiso   1.00
C535   C     0.56995   0.32001   0.25003   0.00000  Uiso   1.00
C536   C     0.93004   0.18000   0.75002   0.00000  Uiso   1.00
C537   C     0.68004   0.43000   0.74997   0.00000  Uiso   1.00
C538   C     0.81995   0.07001   0.24997   0.00000  Uiso   1.00
C539   C     0.93005   0.32001   0.74997   0.00000  Uiso   1.00
C540   C     0.56996   0.18000   0.24997   0.00000  Uiso   1.00
C541   C     0.81996   0.07000   0.74998   0.00000  Uiso   1.00
C542   C     0.68005   0.42999   0.24997   0.00000  Uiso   1.00
C543   C     0.56995   0.17999   0.74997   0.00000  Uiso   1.00
C544   C     0.93004   0.32000   0.24997   0.00000  Uiso   1.00
C545   C     0.62321   0.40394   0.27762   0.00000  Uiso   1.00
C546   C     0.84030   0.13229   0.76688   0.00000  Uiso   1.00
C547   C     0.59012   0.11753   0.26636   0.00000  Uiso   1.00
C548   C     0.87326   0.34611   0.77768   0.00000  Uiso   1.00
C549   C     0.87679   0.09606   0.27762   0.00000  Uiso   1.00
C550   C     0.61740   0.40974   0.73305   0.00000  Uiso   1.00
C551   C     0.90988   0.38247   0.26637   0.00000  Uiso   1.00
C552   C     0.59615   0.12357   0.72245   0.00000  Uiso   1.00
C553   C     0.62332   0.09617   0.72224   0.00000  Uiso   1.00
C554   C     0.88261   0.40975   0.26693   0.00000  Uiso   1.00
C555   C     0.59013   0.38246   0.73361   0.00000  Uiso   1.00
C556   C     0.90396   0.12346   0.27741   0.00000  Uiso   1.00
C557   C     0.84609   0.37351   0.77747   0.00000  Uiso   1.00
C558   C     0.61739   0.09025   0.26692   0.00000  Uiso   1.00
C559   C     0.86756   0.15957   0.76740   0.00000  Uiso   1.00
C560   C     0.59604   0.37654   0.27741   0.00000  Uiso   1.00
C561   C     0.90970   0.11771   0.73312   0.00000  Uiso   1.00
C562   C     0.62679   0.34606   0.22238   0.00000  Uiso   1.00
C563   C     0.87674   0.40389   0.72232   0.00000  Uiso   1.00
C564   C     0.65988   0.13247   0.23364   0.00000  Uiso   1.00
C565   C     0.63260   0.34026   0.76695   0.00000  Uiso   1.00
C566   C     0.87321   0.15394   0.22238   0.00000  Uiso   1.00
C567   C     0.65385   0.12643   0.77755   0.00000  Uiso   1.00
C568   C     0.84012   0.36753   0.23363   0.00000  Uiso   1.00
C569   C     0.86739   0.34025   0.23307   0.00000  Uiso   1.00
C570   C     0.62668   0.15383   0.77776   0.00000  Uiso   1.00
C571   C     0.84604   0.12654   0.22259   0.00000  Uiso   1.00
C572   C     0.65987   0.36754   0.76639   0.00000  Uiso   1.00
C573   C     0.63261   0.15975   0.23308   0.00000  Uiso   1.00
C574   C     0.90391   0.37649   0.72253   0.00000  Uiso   1.00
C575   C     0.65396   0.37346   0.22259   0.00000  Uiso   1.00
C576   C     0.88244   0.09043   0.73261   0.00000  Uiso   1.00
C577   C     0.59815   0.34800   0.24985   0.00000  Uiso   1.00
C578   C     0.90188   0.15196   0.75030   0.00000  Uiso   1.00
C579   C     0.65189   0.09805   0.25031   0.00000  Uiso   1.00
C580   C     0.84815   0.40199   0.74985   0.00000  Uiso   1.00
C581   C     0.90185   0.15199   0.24985   0.00000  Uiso   1.00
C582   C     0.59811   0.34804   0.75031   0.00000  Uiso   1.00
C583   C     0.84812   0.40195   0.25031   0.00000  Uiso   1.00
C584   C     0.65185   0.09800   0.74985   0.00000  Uiso   1.00
C585   C     0.59815   0.15200   0.75015   0.00000  Uiso   1.00
C586   C     0.90189   0.34804   0.24969   0.00000  Uiso   1.00
C587   C     0.65189   0.40195   0.74969   0.00000  Uiso   1.00
C588   C     0.84815   0.09801   0.25015   0.00000  Uiso   1.00
C589   C     0.90185   0.34800   0.75015   0.00000  Uiso   1.00
C590   C     0.59811   0.15195   0.24969   0.00000  Uiso   1.00
C591   C     0.84812   0.09804   0.74970   0.00000  Uiso   1.00
C592   C     0.65185   0.40200   0.25015   0.00000  Uiso   1.00
C593   C     0.75000  -0.00000   0.10249   0.00000  Uiso   1.00
C594   C     0.75000  -0.00000   0.89752   0.00000  Uiso   1.00
C595   C     0.50000   0.25000   0.10251   0.00000  Uiso   1.00
C596   C     0.50000   0.25000   0.89749   0.00000  Uiso   1.00
C597   C     0.50000   0.25000   0.60248   0.00000  Uiso   1.00
C598   C     0.50000   0.25000   0.39751   0.00000  Uiso   1.00
C599   C     0.75000  -0.00000   0.60251   0.00000  Uiso   1.00
C600   C     0.75000   0.00000   0.39749   0.00000  Uiso   1.00
C601   C     0.62134   0.43503   0.30689   0.00000  Uiso   1.00
H602   H     0.64387   0.45515   0.30448   0.00000  Uiso   1.00
H603   H     0.59554   0.45058   0.30285   0.00000  Uiso   1.00
H604   H     0.62253   0.42377   0.33676   0.00000  Uiso   1.00
C605   C     0.80277   0.13859   0.78481   0.00000  Uiso   1.00
H606   H     0.79758   0.11767   0.80753   0.00000  Uiso   1.00
H607   H     0.79909   0.16564   0.79862   0.00000  Uiso   1.00
H608   H     0.78141   0.13627   0.76208   0.00000  Uiso   1.00
C609   C     0.55239   0.11101   0.28375   0.00000  Uiso   1.00
H610   H     0.53130   0.11348   0.26076   0.00000  Uiso   1.00
H611   H     0.54859   0.08383   0.29723   0.00000  Uiso   1.00
H612   H     0.54690   0.13171   0.30660   0.00000  Uiso   1.00
C613   C     0.87144   0.31507   0.80701   0.00000  Uiso   1.00
H614   H     0.89396   0.29494   0.80460   0.00000  Uiso   1.00
H615   H     0.87268   0.32638   0.83686   0.00000  Uiso   1.00
H616   H     0.84562   0.29952   0.80305   0.00000  Uiso   1.00
C617   C     0.87866   0.06497   0.30688   0.00000  Uiso   1.00
H618   H     0.85613   0.04485   0.30448   0.00000  Uiso   1.00
H619   H     0.90446   0.04942   0.30284   0.00000  Uiso   1.00
H620   H     0.87748   0.07624   0.33676   0.00000  Uiso   1.00
C621   C     0.60975   0.44652   0.71402   0.00000  Uiso   1.00
H622   H     0.63322   0.46565   0.71405   0.00000  Uiso   1.00
H623   H     0.60239   0.44232   0.68311   0.00000  Uiso   1.00
H624   H     0.58699   0.46046   0.72937   0.00000  Uiso   1.00
C625   C     0.94761   0.38899   0.28375   0.00000  Uiso   1.00
H626   H     0.96870   0.38652   0.26077   0.00000  Uiso   1.00
H627   H     0.95141   0.41616   0.29724   0.00000  Uiso   1.00
H628   H     0.95309   0.36829   0.30661   0.00000  Uiso   1.00
C629   C     0.56454   0.12327   0.69374   0.00000  Uiso   1.00
H630   H     0.53823   0.12203   0.70975   0.00000  Uiso   1.00
H631   H     0.56517   0.14869   0.67613   0.00000  Uiso   1.00
H632   H     0.56469   0.10006   0.67318   0.00000  Uiso   1.00
C633   C     0.62156   0.06519   0.69284   0.00000  Uiso   1.00
H634   H     0.64406   0.04504   0.69527   0.00000  Uiso   1.00
H635   H     0.59573   0.04964   0.69670   0.00000  Uiso   1.00
H636   H     0.62287   0.07656   0.66302   0.00000  Uiso   1.00
C637   C     0.89027   0.44654   0.28592   0.00000  Uiso   1.00
H638   H     0.86680   0.46567   0.28591   0.00000  Uiso   1.00
H639   H     0.89766   0.44236   0.31684   0.00000  Uiso   1.00
H640   H     0.91303   0.46048   0.27055   0.00000  Uiso   1.00
C641   C     0.55241   0.38896   0.71619   0.00000  Uiso   1.00
H642   H     0.53130   0.38650   0.73916   0.00000  Uiso   1.00
H643   H     0.54861   0.41613   0.70269   0.00000  Uiso   1.00
H644   H     0.54694   0.36825   0.69334   0.00000  Uiso   1.00
C645   C     0.93569   0.12304   0.30597   0.00000  Uiso   1.00
H646   H     0.96194   0.12186   0.28984   0.00000  Uiso   1.00
H647   H     0.93514   0.14840   0.32369   0.00000  Uiso   1.00
H648   H     0.93562   0.09976   0.32643   0.00000  Uiso   1.00
C649   C     0.81441   0.37314   0.80610   0.00000  Uiso   1.00
H650   H     0.81499   0.39852   0.82377   0.00000  Uiso   1.00
H651   H     0.78814   0.37193   0.79002   0.00000  Uiso   1.00
H652   H     0.81452   0.34989   0.82660   0.00000  Uiso   1.00
C653   C     0.60973   0.05346   0.28592   0.00000  Uiso   1.00
H654   H     0.63320   0.03433   0.28590   0.00000  Uiso   1.00
H655   H     0.60234   0.05764   0.31683   0.00000  Uiso   1.00
H656   H     0.58697   0.03952   0.27054   0.00000  Uiso   1.00
C657   C     0.86007   0.19620   0.78682   0.00000  Uiso   1.00
H658   H     0.88349   0.21539   0.78660   0.00000  Uiso   1.00
H659   H     0.83709   0.21021   0.77191   0.00000  Uiso   1.00
H660   H     0.85310   0.19176   0.81780   0.00000  Uiso   1.00
C661   C     0.56432   0.37696   0.30598   0.00000  Uiso   1.00
H662   H     0.53807   0.37814   0.28985   0.00000  Uiso   1.00
H663   H     0.56487   0.35160   0.32369   0.00000  Uiso   1.00
H664   H     0.56439   0.40024   0.32644   0.00000  Uiso   1.00
C665   C     0.94723   0.11141   0.71519   0.00000  Uiso   1.00
H666   H     0.95242   0.13233   0.69247   0.00000  Uiso   1.00
H667   H     0.96859   0.11373   0.73792   0.00000  Uiso   1.00
H668   H     0.95091   0.08436   0.70138   0.00000  Uiso   1.00
C669   C     0.62866   0.31497   0.19312   0.00000  Uiso   1.00
H670   H     0.60613   0.29485   0.19552   0.00000  Uiso   1.00
H671   H     0.62747   0.32623   0.16324   0.00000  Uiso   1.00
H672   H     0.65446   0.29942   0.19716   0.00000  Uiso   1.00
C673   C     0.87856   0.43493   0.69299   0.00000  Uiso   1.00
H674   H     0.85604   0.45506   0.69540   0.00000  Uiso   1.00
H675   H     0.90438   0.45048   0.69695   0.00000  Uiso   1.00
H676   H     0.87732   0.42362   0.66314   0.00000  Uiso   1.00
C677   C     0.69761   0.13899   0.21625   0.00000  Uiso   1.00
H678   H     0.71871   0.13652   0.23924   0.00000  Uiso   1.00
H679   H     0.70310   0.11829   0.19340   0.00000  Uiso   1.00
H680   H     0.70142   0.16617   0.20277   0.00000  Uiso   1.00
C681   C     0.64025   0.30348   0.78598   0.00000  Uiso   1.00
H682   H     0.61678   0.28435   0.78595   0.00000  Uiso   1.00
H683   H     0.66301   0.28954   0.77063   0.00000  Uiso   1.00
H684   H     0.64761   0.30768   0.81689   0.00000  Uiso   1.00
C685   C     0.87134   0.18503   0.19312   0.00000  Uiso   1.00
H686   H     0.89387   0.20515   0.19552   0.00000  Uiso   1.00
H687   H     0.87252   0.17376   0.16324   0.00000  Uiso   1.00
H688   H     0.84554   0.20058   0.19716   0.00000  Uiso   1.00
C689   C     0.68546   0.12673   0.80626   0.00000  Uiso   1.00
H690   H     0.71177   0.12797   0.79026   0.00000  Uiso   1.00
H691   H     0.68531   0.14994   0.82682   0.00000  Uiso   1.00
H692   H     0.68483   0.10131   0.82387   0.00000  Uiso   1.00
C693   C     0.80239   0.36101   0.21625   0.00000  Uiso   1.00
H694   H     0.78130   0.36348   0.23923   0.00000  Uiso   1.00
H695   H     0.79691   0.38171   0.19339   0.00000  Uiso   1.00
H696   H     0.79859   0.33384   0.20276   0.00000  Uiso   1.00
C697   C     0.85973   0.30346   0.21408   0.00000  Uiso   1.00
H698   H     0.88320   0.28433   0.21409   0.00000  Uiso   1.00
H699   H     0.83697   0.28952   0.22945   0.00000  Uiso   1.00
H700   H     0.85234   0.30764   0.18316   0.00000  Uiso   1.00
C701   C     0.62844   0.18481   0.80716   0.00000  Uiso   1.00
H702   H     0.60594   0.20496   0.80473   0.00000  Uiso   1.00
H703   H     0.62713   0.17344   0.83698   0.00000  Uiso   1.00
H704   H     0.65427   0.20036   0.80330   0.00000  Uiso   1.00
C705   C     0.81431   0.12696   0.19403   0.00000  Uiso   1.00
H706   H     0.78807   0.12814   0.21016   0.00000  Uiso   1.00
H707   H     0.81438   0.15024   0.17357   0.00000  Uiso   1.00
H708   H     0.81486   0.10160   0.17631   0.00000  Uiso   1.00
C709   C     0.69759   0.36104   0.78381   0.00000  Uiso   1.00
H710   H     0.71870   0.36350   0.76084   0.00000  Uiso   1.00
H711   H     0.70306   0.38175   0.80666   0.00000  Uiso   1.00
H712   H     0.70139   0.33387   0.79731   0.00000  Uiso   1.00
C713   C     0.64027   0.19654   0.21408   0.00000  Uiso   1.00
H714   H     0.61680   0.21567   0.21410   0.00000  Uiso   1.00
H715   H     0.66303   0.21048   0.22946   0.00000  Uiso   1.00
H716   H     0.64766   0.19236   0.18317   0.00000  Uiso   1.00
C717   C     0.93559   0.37686   0.69390   0.00000  Uiso   1.00
H718   H     0.93501   0.35148   0.67623   0.00000  Uiso   1.00
H719   H     0.93548   0.40011   0.67340   0.00000  Uiso   1.00
H720   H     0.96186   0.37807   0.70998   0.00000  Uiso   1.00
C721   C     0.68568   0.37304   0.19402   0.00000  Uiso   1.00
H722   H     0.71193   0.37186   0.21015   0.00000  Uiso   1.00
H723   H     0.68561   0.34976   0.17356   0.00000  Uiso   1.00
H724   H     0.68514   0.39840   0.17631   0.00000  Uiso   1.00
C725   C     0.88993   0.05380   0.71318   0.00000  Uiso   1.00
H726   H     0.86651   0.03461   0.71340   0.00000  Uiso   1.00
H727   H     0.89690   0.05824   0.68220   0.00000  Uiso   1.00
H728   H     0.91291   0.03979   0.72809   0.00000  Uiso   1.00
C729   C     0.71996   0.43699   0.10303   0.00000  Uiso   1.00
H730   H     0.69562   0.44523   0.12014   0.00000  Uiso   1.00
H731   H     0.71140   0.41513   0.08256   0.00000  Uiso   1.00
H732   H     0.74092   0.42532   0.12278   0.00000  Uiso   1.00
C733   C     0.78012   0.43702   0.89697   0.00000  Uiso   1.00
H734   H     0.78869   0.41518   0.91744   0.00000  Uiso   1.00
H735   H     0.75917   0.42534   0.87721   0.00000  Uiso   1.00
H736   H     0.80445   0.44529   0.87987   0.00000  Uiso   1.00
C737   C     0.93667   0.22076   0.10311   0.00000  Uiso   1.00
H738   H     0.92518   0.24205   0.12262   0.00000  Uiso   1.00
H739   H     0.91481   0.21226   0.08264   0.00000  Uiso   1.00
H740   H     0.94453   0.19646   0.12053   0.00000  Uiso   1.00
C741   C     0.56334   0.22079   0.89689   0.00000  Uiso   1.00
H742   H     0.57482   0.24208   0.87738   0.00000  Uiso   1.00
H743   H     0.58520   0.21230   0.91736   0.00000  Uiso   1.00
H744   H     0.55548   0.19649   0.87947   0.00000  Uiso   1.00
C745   C     0.78004   0.06301   0.10304   0.00000  Uiso   1.00
H746   H     0.80438   0.05477   0.12015   0.00000  Uiso   1.00
H747   H     0.78860   0.08487   0.08256   0.00000  Uiso   1.00
H748   H     0.75908   0.07468   0.12279   0.00000  Uiso   1.00
C749   C     0.71989   0.06297   0.89698   0.00000  Uiso   1.00
H750   H     0.69555   0.05470   0.87988   0.00000  Uiso   1.00
H751   H     0.71131   0.08482   0.91745   0.00000  Uiso   1.00
H752   H     0.74083   0.07466   0.87721   0.00000  Uiso   1.00
C753   C     0.56333   0.27923   0.10312   0.00000  Uiso   1.00
H754   H     0.57482   0.25795   0.12262   0.00000  Uiso   1.00
H755   H     0.58519   0.28774   0.08264   0.00000  Uiso   1.00
H756   H     0.55547   0.30354   0.12053   0.00000  Uiso   1.00
C757   C     0.93665   0.27920   0.89689   0.00000  Uiso   1.00
H758   H     0.94451   0.30351   0.87947   0.00000  Uiso   1.00
H759   H     0.92518   0.25792   0.87738   0.00000  Uiso   1.00
H760   H     0.91480   0.28770   0.91736   0.00000  Uiso   1.00
C761   C     0.96988   0.31298   0.60303   0.00000  Uiso   1.00
H762   H     0.96131   0.33482   0.58256   0.00000  Uiso   1.00
H763   H     0.94555   0.30471   0.62013   0.00000  Uiso   1.00
H764   H     0.99083   0.32466   0.62279   0.00000  Uiso   1.00
C765   C     0.53004   0.31301   0.39697   0.00000  Uiso   1.00
H766   H     0.55438   0.30477   0.37986   0.00000  Uiso   1.00
H767   H     0.50908   0.32468   0.37722   0.00000  Uiso   1.00
H768   H     0.53860   0.33487   0.41744   0.00000  Uiso   1.00
C769   C     0.81334   0.47079   0.60312   0.00000  Uiso   1.00
H770   H     0.80548   0.44648   0.62053   0.00000  Uiso   1.00
H771   H     0.83520   0.46229   0.58264   0.00000  Uiso   1.00
H772   H     0.82482   0.49207   0.62262   0.00000  Uiso   1.00
C773   C     0.81334   0.02923   0.39689   0.00000  Uiso   1.00
H774   H     0.80547   0.05353   0.37947   0.00000  Uiso   1.00
H775   H     0.83519   0.03773   0.41736   0.00000  Uiso   1.00
H776   H     0.82482   0.00795   0.37738   0.00000  Uiso   1.00
C777   C     0.53012   0.18703   0.60302   0.00000  Uiso   1.00
H778   H     0.55446   0.19530   0.62012   0.00000  Uiso   1.00
H779   H     0.50918   0.17534   0.62279   0.00000  Uiso   1.00
H780   H     0.53869   0.16518   0.58255   0.00000  Uiso   1.00
C781   C     0.96996   0.18699   0.39697   0.00000  Uiso   1.00
H782   H     0.94562   0.19523   0.37985   0.00000  Uiso   1.00
H783   H     0.99092   0.17532   0.37722   0.00000  Uiso   1.00
H784   H     0.96140   0.16513   0.41744   0.00000  Uiso   1.00
C785   C     0.68666   0.02922   0.60311   0.00000  Uiso   1.00
H786   H     0.69452   0.05352   0.62053   0.00000  Uiso   1.00
H787   H     0.66481   0.03771   0.58264   0.00000  Uiso   1.00
H788   H     0.67518   0.00793   0.62262   0.00000  Uiso   1.00
C789   C     0.68666   0.47077   0.39689   0.00000  Uiso   1.00
H790   H     0.69453   0.44647   0.37947   0.00000  Uiso   1.00
H791   H     0.66481   0.46227   0.41736   0.00000  Uiso   1.00
H792   H     0.67518   0.49205   0.37738   0.00000  Uiso   1.00
Zn793  Zn    0.20660   0.50000   0.21760   0.00000  Uiso   1.00
Zn794  Zn    0.29340   0.50000   0.78240   0.00000  Uiso   1.00
Zn795  Zn    0.00000   0.70660   0.21760   0.00000  Uiso   1.00
Zn796  Zn    0.00000   0.79340   0.78240   0.00000  Uiso   1.00
Zn797  Zn    0.29340   0.50000   0.21760   0.00000  Uiso   1.00
Zn798  Zn    0.20660   0.50000   0.78240   0.00000  Uiso   1.00
Zn799  Zn    0.00000   0.79340   0.21760   0.00000  Uiso   1.00
Zn800  Zn    0.00000   0.70660   0.78240   0.00000  Uiso   1.00
Zn801  Zn    0.45660   0.75000   0.71760   0.00000  Uiso   1.00
Zn802  Zn    0.04340   0.75000   0.28240   0.00000  Uiso   1.00
Zn803  Zn    0.25000   0.95660   0.71760   0.00000  Uiso   1.00
Zn804  Zn    0.25000   0.54340   0.28240   0.00000  Uiso   1.00
Zn805  Zn    0.04340   0.75000   0.71760   0.00000  Uiso   1.00
Zn806  Zn    0.45660   0.75000   0.28240   0.00000  Uiso   1.00
Zn807  Zn    0.25000   0.54340   0.71760   0.00000  Uiso   1.00
Zn808  Zn    0.25000   0.95660   0.28240   0.00000  Uiso   1.00
C809   C     0.23577   0.97004   0.04155   0.00000  Uiso   1.00
C810   C     0.26427   0.97006   0.95846   0.00000  Uiso   1.00
C811   C     0.46994   0.73605   0.04159   0.00000  Uiso   1.00
C812   C     0.03006   0.73606   0.95841   0.00000  Uiso   1.00
C813   C     0.26423   0.52995   0.04155   0.00000  Uiso   1.00
C814   C     0.23574   0.52993   0.95846   0.00000  Uiso   1.00
C815   C     0.03006   0.76395   0.04159   0.00000  Uiso   1.00
C816   C     0.46993   0.76394   0.95841   0.00000  Uiso   1.00
C817   C     0.48573   0.77994   0.54155   0.00000  Uiso   1.00
C818   C     0.01423   0.77996   0.45845   0.00000  Uiso   1.00
C819   C     0.28006   0.98606   0.54159   0.00000  Uiso   1.00
C820   C     0.28006   0.51395   0.45842   0.00000  Uiso   1.00
C821   C     0.01426   0.72007   0.54154   0.00000  Uiso   1.00
C822   C     0.48577   0.72005   0.45845   0.00000  Uiso   1.00
C823   C     0.21994   0.51394   0.54159   0.00000  Uiso   1.00
C824   C     0.21994   0.98605   0.45841   0.00000  Uiso   1.00
H825   H     0.22458   0.94706   0.02560   0.00000  Uiso   1.00
H826   H     0.27549   0.94709   0.97440   0.00000  Uiso   1.00
H827   H     0.44687   0.72505   0.02566   0.00000  Uiso   1.00
H828   H     0.05314   0.72508   0.97433   0.00000  Uiso   1.00
H829   H     0.27543   0.55294   0.02561   0.00000  Uiso   1.00
H830   H     0.22452   0.55291   0.97440   0.00000  Uiso   1.00
H831   H     0.05313   0.77495   0.02567   0.00000  Uiso   1.00
H832   H     0.44686   0.77492   0.97433   0.00000  Uiso   1.00
H833   H     0.47451   0.80291   0.52560   0.00000  Uiso   1.00
H834   H     0.02542   0.80294   0.47440   0.00000  Uiso   1.00
H835   H     0.30314   0.97507   0.52567   0.00000  Uiso   1.00
H836   H     0.30314   0.52494   0.47434   0.00000  Uiso   1.00
H837   H     0.02548   0.69709   0.52560   0.00000  Uiso   1.00
H838   H     0.47457   0.69706   0.47439   0.00000  Uiso   1.00
H839   H     0.19686   0.52493   0.52567   0.00000  Uiso   1.00
H840   H     0.19687   0.97506   0.47433   0.00000  Uiso   1.00
C841   C     0.23538   0.96979   0.08208   0.00000  Uiso   1.00
C842   C     0.26466   0.96981   0.91792   0.00000  Uiso   1.00
C843   C     0.46966   0.73571   0.08212   0.00000  Uiso   1.00
C844   C     0.03035   0.73572   0.91788   0.00000  Uiso   1.00
C845   C     0.26462   0.53021   0.08208   0.00000  Uiso   1.00
C846   C     0.23535   0.53019   0.91792   0.00000  Uiso   1.00
C847   C     0.03034   0.76429   0.08212   0.00000  Uiso   1.00
C848   C     0.46965   0.76428   0.91788   0.00000  Uiso   1.00
C849   C     0.48534   0.78019   0.58208   0.00000  Uiso   1.00
C850   C     0.01462   0.78021   0.41792   0.00000  Uiso   1.00
C851   C     0.28035   0.98572   0.58212   0.00000  Uiso   1.00
C852   C     0.28035   0.51429   0.41788   0.00000  Uiso   1.00
C853   C     0.01465   0.71981   0.58208   0.00000  Uiso   1.00
C854   C     0.48538   0.71979   0.41792   0.00000  Uiso   1.00
C855   C     0.21965   0.51428   0.58212   0.00000  Uiso   1.00
C856   C     0.21966   0.98571   0.41788   0.00000  Uiso   1.00
O857   O     0.25000   0.50000   0.25000   0.00000  Uiso   1.00
O858   O     0.25000   0.50000   0.75000   0.00000  Uiso   1.00
O859   O     0.00000   0.75000   0.25000   0.00000  Uiso   1.00
O860   O     0.00000   0.75000   0.75000   0.00000  Uiso   1.00
O861   O     0.25000   0.96964   0.33683   0.00000  Uiso   1.00
O862   O     0.25000   0.53036   0.66317   0.00000  Uiso   1.00
O863   O     0.03036   0.75000   0.33683   0.00000  Uiso   1.00
O864   O     0.46964   0.75000   0.66317   0.00000  Uiso   1.00
O865   O     0.25000   0.53036   0.33683   0.00000  Uiso   1.00
O866   O     0.25000   0.96964   0.66317   0.00000  Uiso   1.00
O867   O     0.46964   0.75000   0.33683   0.00000  Uiso   1.00
O868   O     0.03036   0.75000   0.66317   0.00000  Uiso   1.00
O869   O     0.00000   0.71964   0.83683   0.00000  Uiso   1.00
O870   O     0.00000   0.78036   0.16317   0.00000  Uiso   1.00
O871   O     0.28036   0.50000   0.83683   0.00000  Uiso   1.00
O872   O     0.21964   0.50000   0.16317   0.00000  Uiso   1.00
O873   O     0.00000   0.78036   0.83683   0.00000  Uiso   1.00
O874   O     0.00000   0.71964   0.16317   0.00000  Uiso   1.00
O875   O     0.21964   0.50000   0.83683   0.00000  Uiso   1.00
O876   O     0.28036   0.50000   0.16317   0.00000  Uiso   1.00
O877   O     0.20726   0.57307   0.27282   0.00000  Uiso   1.00
O878   O     0.29275   0.92693   0.72718   0.00000  Uiso   1.00
O879   O     0.42693   0.70726   0.27282   0.00000  Uiso   1.00
O880   O     0.07307   0.79274   0.72718   0.00000  Uiso   1.00
O881   O     0.29275   0.92693   0.27282   0.00000  Uiso   1.00
O882   O     0.20726   0.57307   0.72718   0.00000  Uiso   1.00
O883   O     0.07307   0.79274   0.27282   0.00000  Uiso   1.00
O884   O     0.42693   0.70726   0.72718   0.00000  Uiso   1.00
O885   O     0.20726   0.92693   0.72718   0.00000  Uiso   1.00
O886   O     0.29275   0.57307   0.27282   0.00000  Uiso   1.00
O887   O     0.42693   0.79275   0.72718   0.00000  Uiso   1.00
O888   O     0.07307   0.70725   0.27282   0.00000  Uiso   1.00
O889   O     0.29275   0.57307   0.72718   0.00000  Uiso   1.00
O890   O     0.20726   0.92693   0.27282   0.00000  Uiso   1.00
O891   O     0.07307   0.70725   0.72718   0.00000  Uiso   1.00
O892   O     0.42693   0.79275   0.27282   0.00000  Uiso   1.00
O893   O     0.45726   0.82307   0.77282   0.00000  Uiso   1.00
O894   O     0.04275   0.67693   0.22718   0.00000  Uiso   1.00
O895   O     0.17693   0.95725   0.77282   0.00000  Uiso   1.00
O896   O     0.32307   0.54275   0.22718   0.00000  Uiso   1.00
O897   O     0.04275   0.67693   0.77282   0.00000  Uiso   1.00
O898   O     0.45726   0.82307   0.22718   0.00000  Uiso   1.00
O899   O     0.32307   0.54275   0.77282   0.00000  Uiso   1.00
O900   O     0.17693   0.95725   0.22718   0.00000  Uiso   1.00
O901   O     0.45726   0.67693   0.22718   0.00000  Uiso   1.00
O902   O     0.04275   0.82307   0.77282   0.00000  Uiso   1.00
O903   O     0.17693   0.54275   0.22718   0.00000  Uiso   1.00
O904   O     0.32307   0.95725   0.77282   0.00000  Uiso   1.00
O905   O     0.04275   0.82307   0.22718   0.00000  Uiso   1.00
O906   O     0.45726   0.67693   0.77282   0.00000  Uiso   1.00
O907   O     0.32307   0.95725   0.22718   0.00000  Uiso   1.00
O908   O     0.17693   0.54275   0.77282   0.00000  Uiso   1.00
C909   C     0.25000   0.50000   0.02128   0.00000  Uiso   1.00
C910   C     0.25000   0.50000   0.97872   0.00000  Uiso   1.00
C911   C    -0.00000   0.75000   0.02130   0.00000  Uiso   1.00
C912   C    -0.00000   0.75000   0.97870   0.00000  Uiso   1.00
C913   C    -0.00000   0.75000   0.52128   0.00000  Uiso   1.00
C914   C    -0.00000   0.75000   0.47872   0.00000  Uiso   1.00
C915   C     0.25000   0.50000   0.52130   0.00000  Uiso   1.00
C916   C     0.25000   0.50000   0.47870   0.00000  Uiso   1.00
C917   C     0.25000   0.50000   0.35513   0.00000  Uiso   1.00
C918   C     0.25000   0.50000   0.64488   0.00000  Uiso   1.00
C919   C     0.00000   0.75000   0.35512   0.00000  Uiso   1.00
C920   C    -0.00000   0.75000   0.64488   0.00000  Uiso   1.00
C921   C     0.00000   0.75000   0.85513   0.00000  Uiso   1.00
C922   C     0.00000   0.75000   0.14488   0.00000  Uiso   1.00
C923   C     0.25000   0.50000   0.85512   0.00000  Uiso   1.00
C924   C     0.25000   0.50000   0.14488   0.00000  Uiso   1.00
C925   C     0.18004   0.57000   0.25003   0.00000  Uiso   1.00
C926   C     0.31995   0.92999   0.75003   0.00000  Uiso   1.00
C927   C     0.43005   0.67999   0.25003   0.00000  Uiso   1.00
C928   C     0.06996   0.82000   0.75003   0.00000  Uiso   1.00
C929   C     0.31996   0.93000   0.25003   0.00000  Uiso   1.00
C930   C     0.18005   0.57001   0.75003   0.00000  Uiso   1.00
C931   C     0.06995   0.82001   0.25003   0.00000  Uiso   1.00
C932   C     0.43004   0.68000   0.75002   0.00000  Uiso   1.00
C933   C     0.18004   0.93000   0.74997   0.00000  Uiso   1.00
C934   C     0.31995   0.57001   0.24997   0.00000  Uiso   1.00
C935   C     0.43005   0.82001   0.74997   0.00000  Uiso   1.00
C936   C     0.06996   0.68000   0.24997   0.00000  Uiso   1.00
C937   C     0.31996   0.57000   0.74998   0.00000  Uiso   1.00
C938   C     0.18005   0.92999   0.24997   0.00000  Uiso   1.00
C939   C     0.06995   0.67999   0.74997   0.00000  Uiso   1.00
C940   C     0.43004   0.82000   0.24997   0.00000  Uiso   1.00
C941   C     0.12321   0.90394   0.27762   0.00000  Uiso   1.00
C942   C     0.34030   0.63229   0.76688   0.00000  Uiso   1.00
C943   C     0.09012   0.61753   0.26636   0.00000  Uiso   1.00
C944   C     0.37326   0.84611   0.77768   0.00000  Uiso   1.00
C945   C     0.37679   0.59606   0.27762   0.00000  Uiso   1.00
C946   C     0.11740   0.90974   0.73305   0.00000  Uiso   1.00
C947   C     0.40988   0.88247   0.26637   0.00000  Uiso   1.00
C948   C     0.09615   0.62357   0.72245   0.00000  Uiso   1.00
C949   C     0.12332   0.59617   0.72224   0.00000  Uiso   1.00
C950   C     0.38261   0.90975   0.26693   0.00000  Uiso   1.00
C951   C     0.09013   0.88246   0.73361   0.00000  Uiso   1.00
C952   C     0.40396   0.62346   0.27741   0.00000  Uiso   1.00
C953   C     0.34609   0.87351   0.77747   0.00000  Uiso   1.00
C954   C     0.11739   0.59025   0.26692   0.00000  Uiso   1.00
C955   C     0.36756   0.65957   0.76740   0.00000  Uiso   1.00
C956   C     0.09604   0.87654   0.27741   0.00000  Uiso   1.00
C957   C     0.40970   0.61771   0.73312   0.00000  Uiso   1.00
C958   C     0.12679   0.84606   0.22238   0.00000  Uiso   1.00
C959   C     0.37674   0.90389   0.72232   0.00000  Uiso   1.00
C960   C     0.15988   0.63247   0.23364   0.00000  Uiso   1.00
C961   C     0.13260   0.84026   0.76695   0.00000  Uiso   1.00
C962   C     0.37321   0.65394   0.22238   0.00000  Uiso   1.00
C963   C     0.15385   0.62643   0.77755   0.00000  Uiso   1.00
C964   C     0.34012   0.86753   0.23363   0.00000  Uiso   1.00
C965   C     0.36739   0.84025   0.23307   0.00000  Uiso   1.00
C966   C     0.12668   0.65383   0.77776   0.00000  Uiso   1.00
C967   C     0.34604   0.62654   0.22259   0.00000  Uiso   1.00
C968   C     0.15987   0.86754   0.76639   0.00000  Uiso   1.00
C969   C     0.13261   0.65975   0.23308   0.00000  Uiso   1.00
C970   C     0.40391   0.87649   0.72253   0.00000  Uiso   1.00
C971   C     0.15396   0.87346   0.22259   0.00000  Uiso   1.00
C972   C     0.38244   0.59043   0.73261   0.00000  Uiso   1.00
C973   C     0.09815   0.84800   0.24985   0.00000  Uiso   1.00
C974   C     0.40188   0.65196   0.75030   0.00000  Uiso   1.00
C975   C     0.15189   0.59805   0.25031   0.00000  Uiso   1.00
C976   C     0.34815   0.90199   0.74985   0.00000  Uiso   1.00
C977   C     0.40185   0.65199   0.24985   0.00000  Uiso   1.00
C978   C     0.09811   0.84804   0.75031   0.00000  Uiso   1.00
C979   C     0.34812   0.90195   0.25031   0.00000  Uiso   1.00
C980   C     0.15185   0.59800   0.74985   0.00000  Uiso   1.00
C981   C     0.09815   0.65200   0.75015   0.00000  Uiso   1.00
C982   C     0.40189   0.84804   0.24969   0.00000  Uiso   1.00
C983   C     0.15189   0.90195   0.74969   0.00000  Uiso   1.00
C984   C     0.34815   0.59801   0.25015   0.00000  Uiso   1.00
C985   C     0.40185   0.84800   0.75015   0.00000  Uiso   1.00
C986   C     0.09811   0.65195   0.24969   0.00000  Uiso   1.00
C987   C     0.34812   0.59804   0.74970   0.00000  Uiso   1.00
C988   C     0.15185   0.90200   0.25015   0.00000  Uiso   1.00
C989   C     0.25000   0.50000   0.10249   0.00000  Uiso   1.00
C990   C     0.25000   0.50000   0.89752   0.00000  Uiso   1.00
C991   C     0.00000   0.75000   0.10251   0.00000  Uiso   1.00
C992   C    -0.00000   0.75000   0.89749   0.00000  Uiso   1.00
C993   C    -0.00000   0.75000   0.60248   0.00000  Uiso   1.00
C994   C     0.00000   0.75000   0.39751   0.00000  Uiso   1.00
C995   C     0.25000   0.50000   0.60251   0.00000  Uiso   1.00
C996   C     0.25000   0.50000   0.39749   0.00000  Uiso   1.00
C997   C     0.12134   0.93503   0.30689   0.00000  Uiso   1.00
H998   H     0.14387   0.95515   0.30448   0.00000  Uiso   1.00
H999   H     0.09554   0.95058   0.30285   0.00000  Uiso   1.00
H1000  H     0.12253   0.92377   0.33676   0.00000  Uiso   1.00
C1001  C     0.30277   0.63859   0.78481   0.00000  Uiso   1.00
H1002  H     0.29758   0.61767   0.80753   0.00000  Uiso   1.00
H1003  H     0.29909   0.66564   0.79862   0.00000  Uiso   1.00
H1004  H     0.28141   0.63627   0.76208   0.00000  Uiso   1.00
C1005  C     0.05239   0.61101   0.28375   0.00000  Uiso   1.00
H1006  H     0.03130   0.61348   0.26076   0.00000  Uiso   1.00
H1007  H     0.04859   0.58383   0.29723   0.00000  Uiso   1.00
H1008  H     0.04690   0.63171   0.30660   0.00000  Uiso   1.00
C1009  C     0.37144   0.81507   0.80701   0.00000  Uiso   1.00
H1010  H     0.39396   0.79494   0.80460   0.00000  Uiso   1.00
H1011  H     0.37268   0.82638   0.83686   0.00000  Uiso   1.00
H1012  H     0.34562   0.79952   0.80305   0.00000  Uiso   1.00
C1013  C     0.37866   0.56497   0.30688   0.00000  Uiso   1.00
H1014  H     0.35613   0.54485   0.30448   0.00000  Uiso   1.00
H1015  H     0.40446   0.54942   0.30284   0.00000  Uiso   1.00
H1016  H     0.37748   0.57624   0.33676   0.00000  Uiso   1.00
C1017  C     0.10975   0.94652   0.71402   0.00000  Uiso   1.00
H1018  H     0.13322   0.96565   0.71405   0.00000  Uiso   1.00
H1019  H     0.10239   0.94232   0.68311   0.00000  Uiso   1.00
H1020  H     0.08699   0.96046   0.72937   0.00000  Uiso   1.00
C1021  C     0.44761   0.88899   0.28375   0.00000  Uiso   1.00
H1022  H     0.46870   0.88652   0.26077   0.00000  Uiso   1.00
H1023  H     0.45141   0.91616   0.29724   0.00000  Uiso   1.00
H1024  H     0.45309   0.86829   0.30661   0.00000  Uiso   1.00
C1025  C     0.06454   0.62327   0.69374   0.00000  Uiso   1.00
H1026  H     0.03823   0.62203   0.70975   0.00000  Uiso   1.00
H1027  H     0.06517   0.64869   0.67613   0.00000  Uiso   1.00
H1028  H     0.06469   0.60006   0.67318   0.00000  Uiso   1.00
C1029  C     0.12156   0.56519   0.69284   0.00000  Uiso   1.00
H1030  H     0.14406   0.54504   0.69527   0.00000  Uiso   1.00
H1031  H     0.09573   0.54964   0.69670   0.00000  Uiso   1.00
H1032  H     0.12287   0.57656   0.66302   0.00000  Uiso   1.00
C1033  C     0.39027   0.94654   0.28592   0.00000  Uiso   1.00
H1034  H     0.36680   0.96567   0.28591   0.00000  Uiso   1.00
H1035  H     0.39766   0.94236   0.31684   0.00000  Uiso   1.00
H1036  H     0.41303   0.96048   0.27055   0.00000  Uiso   1.00
C1037  C     0.05241   0.88896   0.71619   0.00000  Uiso   1.00
H1038  H     0.03130   0.88650   0.73916   0.00000  Uiso   1.00
H1039  H     0.04861   0.91613   0.70269   0.00000  Uiso   1.00
H1040  H     0.04694   0.86825   0.69334   0.00000  Uiso   1.00
C1041  C     0.43569   0.62304   0.30597   0.00000  Uiso   1.00
H1042  H     0.46194   0.62186   0.28984   0.00000  Uiso   1.00
H1043  H     0.43514   0.64840   0.32369   0.00000  Uiso   1.00
H1044  H     0.43562   0.59976   0.32643   0.00000  Uiso   1.00
C1045  C     0.31441   0.87314   0.80610   0.00000  Uiso   1.00
H1046  H     0.31499   0.89852   0.82377   0.00000  Uiso   1.00
H1047  H     0.28814   0.87193   0.79002   0.00000  Uiso   1.00
H1048  H     0.31452   0.84989   0.82660   0.00000  Uiso   1.00
C1049  C     0.10973   0.55346   0.28592   0.00000  Uiso   1.00
H1050  H     0.13320   0.53433   0.28590   0.00000  Uiso   1.00
H1051  H     0.10234   0.55764   0.31683   0.00000  Uiso   1.00
H1052  H     0.08697   0.53952   0.27054   0.00000  Uiso   1.00
C1053  C     0.36007   0.69620   0.78682   0.00000  Uiso   1.00
H1054  H     0.38349   0.71539   0.78660   0.00000  Uiso   1.00
H1055  H     0.33709   0.71021   0.77191   0.00000  Uiso   1.00
H1056  H     0.35310   0.69176   0.81780   0.00000  Uiso   1.00
C1057  C     0.06432   0.87696   0.30598   0.00000  Uiso   1.00
H1058  H     0.03807   0.87814   0.28985   0.00000  Uiso   1.00
H1059  H     0.06487   0.85160   0.32369   0.00000  Uiso   1.00
H1060  H     0.06439   0.90024   0.32644   0.00000  Uiso   1.00
C1061  C     0.44723   0.61141   0.71519   0.00000  Uiso   1.00
H1062  H     0.45242   0.63233   0.69247   0.00000  Uiso   1.00
H1063  H     0.46859   0.61373   0.73792   0.00000  Uiso   1.00
H1064  H     0.45091   0.58436   0.70138   0.00000  Uiso   1.00
C1065  C     0.12866   0.81497   0.19312   0.00000  Uiso   1.00
H1066  H     0.10613   0.79485   0.19552   0.00000  Uiso   1.00
H1067  H     0.12747   0.82623   0.16324   0.00000  Uiso   1.00
H1068  H     0.15446   0.79942   0.19716   0.00000  Uiso   1.00
C1069  C     0.37856   0.93493   0.69299   0.00000  Uiso   1.00
H1070  H     0.35604   0.95506   0.69540   0.00000  Uiso   1.00
H1071  H     0.40438   0.95048   0.69695   0.00000  Uiso   1.00
H1072  H     0.37732   0.92362   0.66314   0.00000  Uiso   1.00
C1073  C     0.19761   0.63899   0.21625   0.00000  Uiso   1.00
H1074  H     0.21871   0.63652   0.23924   0.00000  Uiso   1.00
H1075  H     0.20310   0.61829   0.19340   0.00000  Uiso   1.00
H1076  H     0.20142   0.66617   0.20277   0.00000  Uiso   1.00
C1077  C     0.14025   0.80348   0.78598   0.00000  Uiso   1.00
H1078  H     0.11678   0.78435   0.78595   0.00000  Uiso   1.00
H1079  H     0.16301   0.78954   0.77063   0.00000  Uiso   1.00
H1080  H     0.14761   0.80768   0.81689   0.00000  Uiso   1.00
C1081  C     0.37134   0.68503   0.19312   0.00000  Uiso   1.00
H1082  H     0.39387   0.70515   0.19552   0.00000  Uiso   1.00
H1083  H     0.37252   0.67376   0.16324   0.00000  Uiso   1.00
H1084  H     0.34554   0.70058   0.19716   0.00000  Uiso   1.00
C1085  C     0.18546   0.62673   0.80626   0.00000  Uiso   1.00
H1086  H     0.21177   0.62797   0.79026   0.00000  Uiso   1.00
H1087  H     0.18531   0.64994   0.82682   0.00000  Uiso   1.00
H1088  H     0.18483   0.60131   0.82387   0.00000  Uiso   1.00
C1089  C     0.30239   0.86101   0.21625   0.00000  Uiso   1.00
H1090  H     0.28130   0.86348   0.23923   0.00000  Uiso   1.00
H1091  H     0.29691   0.88171   0.19339   0.00000  Uiso   1.00
H1092  H     0.29859   0.83384   0.20276   0.00000  Uiso   1.00
C1093  C     0.35973   0.80346   0.21408   0.00000  Uiso   1.00
H1094  H     0.38320   0.78433   0.21409   0.00000  Uiso   1.00
H1095  H     0.33697   0.78952   0.22945   0.00000  Uiso   1.00
H1096  H     0.35234   0.80764   0.18316   0.00000  Uiso   1.00
C1097  C     0.12844   0.68481   0.80716   0.00000  Uiso   1.00
H1098  H     0.10594   0.70496   0.80473   0.00000  Uiso   1.00
H1099  H     0.12713   0.67344   0.83698   0.00000  Uiso   1.00
H1100  H     0.15427   0.70036   0.80330   0.00000  Uiso   1.00
C1101  C     0.31431   0.62696   0.19403   0.00000  Uiso   1.00
H1102  H     0.28807   0.62814   0.21016   0.00000  Uiso   1.00
H1103  H     0.31438   0.65024   0.17357   0.00000  Uiso   1.00
H1104  H     0.31486   0.60160   0.17631   0.00000  Uiso   1.00
C1105  C     0.19759   0.86104   0.78381   0.00000  Uiso   1.00
H1106  H     0.21870   0.86350   0.76084   0.00000  Uiso   1.00
H1107  H     0.20306   0.88175   0.80666   0.00000  Uiso   1.00
H1108  H     0.20139   0.83387   0.79731   0.00000  Uiso   1.00
C1109  C     0.14027   0.69654   0.21408   0.00000  Uiso   1.00
H1110  H     0.11680   0.71567   0.21410   0.00000  Uiso   1.00
H1111  H     0.16303   0.71048   0.22946   0.00000  Uiso   1.00
H1112  H     0.14766   0.69236   0.18317   0.00000  Uiso   1.00
C1113  C     0.43559   0.87686   0.69390   0.00000  Uiso   1.00
H1114  H     0.43501   0.85148   0.67623   0.00000  Uiso   1.00
H1115  H     0.43548   0.90011   0.67340   0.00000  Uiso   1.00
H1116  H     0.46186   0.87807   0.70998   0.00000  Uiso   1.00
C1117  C     0.18568   0.87304   0.19402   0.00000  Uiso   1.00
H1118  H     0.21193   0.87186   0.21015   0.00000  Uiso   1.00
H1119  H     0.18561   0.84976   0.17356   0.00000  Uiso   1.00
H1120  H     0.18514   0.89840   0.17631   0.00000  Uiso   1.00
C1121  C     0.38993   0.55380   0.71318   0.00000  Uiso   1.00
H1122  H     0.36651   0.53461   0.71340   0.00000  Uiso   1.00
H1123  H     0.39690   0.55824   0.68220   0.00000  Uiso   1.00
H1124  H     0.41291   0.53979   0.72809   0.00000  Uiso   1.00
C1125  C     0.21996   0.93699   0.10303   0.00000  Uiso   1.00
H1126  H     0.19562   0.94523   0.12014   0.00000  Uiso   1.00
H1127  H     0.21140   0.91513   0.08256   0.00000  Uiso   1.00
H1128  H     0.24092   0.92532   0.12278   0.00000  Uiso   1.00
C1129  C     0.28012   0.93702   0.89697   0.00000  Uiso   1.00
H1130  H     0.28869   0.91518   0.91744   0.00000  Uiso   1.00
H1131  H     0.25917   0.92534   0.87721   0.00000  Uiso   1.00
H1132  H     0.30445   0.94529   0.87987   0.00000  Uiso   1.00
C1133  C     0.43667   0.72076   0.10311   0.00000  Uiso   1.00
H1134  H     0.42518   0.74205   0.12262   0.00000  Uiso   1.00
H1135  H     0.41481   0.71226   0.08264   0.00000  Uiso   1.00
H1136  H     0.44453   0.69646   0.12053   0.00000  Uiso   1.00
C1137  C     0.06334   0.72079   0.89689   0.00000  Uiso   1.00
H1138  H     0.07482   0.74208   0.87738   0.00000  Uiso   1.00
H1139  H     0.08520   0.71230   0.91736   0.00000  Uiso   1.00
H1140  H     0.05548   0.69649   0.87947   0.00000  Uiso   1.00
C1141  C     0.28004   0.56301   0.10304   0.00000  Uiso   1.00
H1142  H     0.30438   0.55477   0.12015   0.00000  Uiso   1.00
H1143  H     0.28860   0.58487   0.08256   0.00000  Uiso   1.00
H1144  H     0.25908   0.57468   0.12279   0.00000  Uiso   1.00
C1145  C     0.21989   0.56297   0.89698   0.00000  Uiso   1.00
H1146  H     0.19555   0.55470   0.87988   0.00000  Uiso   1.00
H1147  H     0.21131   0.58482   0.91745   0.00000  Uiso   1.00
H1148  H     0.24083   0.57466   0.87721   0.00000  Uiso   1.00
C1149  C     0.06333   0.77923   0.10312   0.00000  Uiso   1.00
H1150  H     0.07482   0.75795   0.12262   0.00000  Uiso   1.00
H1151  H     0.08519   0.78774   0.08264   0.00000  Uiso   1.00
H1152  H     0.05547   0.80354   0.12053   0.00000  Uiso   1.00
C1153  C     0.43665   0.77920   0.89689   0.00000  Uiso   1.00
H1154  H     0.44451   0.80351   0.87947   0.00000  Uiso   1.00
H1155  H     0.42518   0.75792   0.87738   0.00000  Uiso   1.00
H1156  H     0.41480   0.78770   0.91736   0.00000  Uiso   1.00
C1157  C     0.46988   0.81298   0.60303   0.00000  Uiso   1.00
H1158  H     0.46131   0.83482   0.58256   0.00000  Uiso   1.00
H1159  H     0.44555   0.80471   0.62013   0.00000  Uiso   1.00
H1160  H     0.49083   0.82466   0.62279   0.00000  Uiso   1.00
C1161  C     0.03004   0.81301   0.39697   0.00000  Uiso   1.00
H1162  H     0.05438   0.80477   0.37986   0.00000  Uiso   1.00
H1163  H     0.00908   0.82468   0.37722   0.00000  Uiso   1.00
H1164  H     0.03860   0.83487   0.41744   0.00000  Uiso   1.00
C1165  C     0.31334   0.97079   0.60312   0.00000  Uiso   1.00
H1166  H     0.30548   0.94648   0.62053   0.00000  Uiso   1.00
H1167  H     0.33520   0.96229   0.58264   0.00000  Uiso   1.00
H1168  H     0.32482   0.99207   0.62262   0.00000  Uiso   1.00
C1169  C     0.31334   0.52923   0.39689   0.00000  Uiso   1.00
H1170  H     0.30547   0.55353   0.37947   0.00000  Uiso   1.00
H1171  H     0.33519   0.53773   0.41736   0.00000  Uiso   1.00
H1172  H     0.32482   0.50795   0.37738   0.00000  Uiso   1.00
C1173  C     0.03012   0.68703   0.60302   0.00000  Uiso   1.00
H1174  H     0.05446   0.69530   0.62012   0.00000  Uiso   1.00
H1175  H     0.00918   0.67534   0.62279   0.00000  Uiso   1.00
H1176  H     0.03869   0.66518   0.58255   0.00000  Uiso   1.00
C1177  C     0.46996   0.68699   0.39697   0.00000  Uiso   1.00
H1178  H     0.44562   0.69523   0.37985   0.00000  Uiso   1.00
H1179  H     0.49092   0.67532   0.37722   0.00000  Uiso   1.00
H1180  H     0.46140   0.66513   0.41744   0.00000  Uiso   1.00
C1181  C     0.18666   0.52922   0.60311   0.00000  Uiso   1.00
H1182  H     0.19452   0.55352   0.62053   0.00000  Uiso   1.00
H1183  H     0.16481   0.53771   0.58264   0.00000  Uiso   1.00
H1184  H     0.17518   0.50793   0.62262   0.00000  Uiso   1.00
C1185  C     0.18666   0.97077   0.39689   0.00000  Uiso   1.00
H1186  H     0.19453   0.94647   0.37947   0.00000  Uiso   1.00
H1187  H     0.16481   0.96227   0.41736   0.00000  Uiso   1.00
H1188  H     0.17518   0.99205   0.37738   0.00000  Uiso   1.00
Zn1189 Zn    0.70660   0.50000   0.21760   0.00000  Uiso   1.00
Zn1190 Zn    0.79340   0.50000   0.78240   0.00000  Uiso   1.00
Zn1191 Zn    0.50000   0.70660   0.21760   0.00000  Uiso   1.00
Zn1192 Zn    0.50000   0.79340   0.78240   0.00000  Uiso   1.00
Zn1193 Zn    0.79340   0.50000   0.21760   0.00000  Uiso   1.00
Zn1194 Zn    0.70660   0.50000   0.78240   0.00000  Uiso   1.00
Zn1195 Zn    0.50000   0.79340   0.21760   0.00000  Uiso   1.00
Zn1196 Zn    0.50000   0.70660   0.78240   0.00000  Uiso   1.00
Zn1197 Zn    0.95660   0.75000   0.71760   0.00000  Uiso   1.00
Zn1198 Zn    0.54340   0.75000   0.28240   0.00000  Uiso   1.00
Zn1199 Zn    0.75000   0.95660   0.71760   0.00000  Uiso   1.00
Zn1200 Zn    0.75000   0.54340   0.28240   0.00000  Uiso   1.00
Zn1201 Zn    0.54340   0.75000   0.71760   0.00000  Uiso   1.00
Zn1202 Zn    0.95660   0.75000   0.28240   0.00000  Uiso   1.00
Zn1203 Zn    0.75000   0.54340   0.71760   0.00000  Uiso   1.00
Zn1204 Zn    0.75000   0.95660   0.28240   0.00000  Uiso   1.00
C1205  C     0.73577   0.97004   0.04155   0.00000  Uiso   1.00
C1206  C     0.76427   0.97006   0.95846   0.00000  Uiso   1.00
C1207  C     0.96994   0.73605   0.04159   0.00000  Uiso   1.00
C1208  C     0.53006   0.73606   0.95841   0.00000  Uiso   1.00
C1209  C     0.76423   0.52995   0.04155   0.00000  Uiso   1.00
C1210  C     0.73574   0.52993   0.95846   0.00000  Uiso   1.00
C1211  C     0.53006   0.76395   0.04159   0.00000  Uiso   1.00
C1212  C     0.96993   0.76394   0.95841   0.00000  Uiso   1.00
C1213  C     0.98573   0.77994   0.54155   0.00000  Uiso   1.00
C1214  C     0.51423   0.77996   0.45845   0.00000  Uiso   1.00
C1215  C     0.78006   0.98606   0.54159   0.00000  Uiso   1.00
C1216  C     0.78006   0.51395   0.45842   0.00000  Uiso   1.00
C1217  C     0.51426   0.72007   0.54154   0.00000  Uiso   1.00
C1218  C     0.98577   0.72005   0.45845   0.00000  Uiso   1.00
C1219  C     0.71994   0.51394   0.54159   0.00000  Uiso   1.00
C1220  C     0.71994   0.98605   0.45841   0.00000  Uiso   1.00
H1221  H     0.72458   0.94706   0.02560   0.00000  Uiso   1.00
H1222  H     0.77549   0.94709   0.97440   0.00000  Uiso   1.00
H1223  H     0.94687   0.72505   0.02566   0.00000  Uiso   1.00
H1224  H     0.55314   0.72508   0.97433   0.00000  Uiso   1.00
H1225  H     0.77543   0.55294   0.02561   0.00000  Uiso   1.00
H1226  H     0.72452   0.55291   0.97440   0.00000  Uiso   1.00
H1227  H     0.55313   0.77495   0.02567   0.00000  Uiso   1.00
H1228  H     0.94686   0.77492   0.97433   0.00000  Uiso   1.00
H1229  H     0.97451   0.80291   0.52560   0.00000  Uiso   1.00
H1230  H     0.52542   0.80294   0.47440   0.00000  Uiso   1.00
H1231  H     0.80314   0.97507   0.52567   0.00000  Uiso   1.00
H1232  H     0.80314   0.52494   0.47434   0.00000  Uiso   1.00
H1233  H     0.52548   0.69709   0.52560   0.00000  Uiso   1.00
H1234  H     0.97457   0.69706   0.47439   0.00000  Uiso   1.00
H1235  H     0.69686   0.52493   0.52567   0.00000  Uiso   1.00
H1236  H     0.69687   0.97506   0.47433   0.00000  Uiso   1.00
C1237  C     0.73538   0.96979   0.08208   0.00000  Uiso   1.00
C1238  C     0.76466   0.96981   0.91792   0.00000  Uiso   1.00
C1239  C     0.96966   0.73571   0.08212   0.00000  Uiso   1.00
C1240  C     0.53035   0.73572   0.91788   0.00000  Uiso   1.00
C1241  C     0.76462   0.53021   0.08208   0.00000  Uiso   1.00
C1242  C     0.73535   0.53019   0.91792   0.00000  Uiso   1.00
C1243  C     0.53034   0.76429   0.08212   0.00000  Uiso   1.00
C1244  C     0.96965   0.76428   0.91788   0.00000  Uiso   1.00
C1245  C     0.98534   0.78019   0.58208   0.00000  Uiso   1.00
C1246  C     0.51462   0.78021   0.41792   0.00000  Uiso   1.00
C1247  C     0.78035   0.98572   0.58212   0.00000  Uiso   1.00
C1248  C     0.78035   0.51429   0.41788   0.00000  Uiso   1.00
C1249  C     0.51465   0.71981   0.58208   0.00000  Uiso   1.00
C1250  C     0.98538   0.71979   0.41792   0.00000  Uiso   1.00
C1251  C     0.71965   0.51428   0.58212   0.00000  Uiso   1.00
C1252  C     0.71966   0.98571   0.41788   0.00000  Uiso   1.00
O1253  O     0.75000   0.50000   0.25000   0.00000  Uiso   1.00
O1254  O     0.75000   0.50000   0.75000   0.00000  Uiso   1.00
O1255  O     0.50000   0.75000   0.25000   0.00000  Uiso   1.00
O1256  O     0.50000   0.75000   0.75000   0.00000  Uiso   1.00
O1257  O     0.75000   0.96964   0.33683   0.00000  Uiso   1.00
O1258  O     0.75000   0.53036   0.66317   0.00000  Uiso   1.00
O1259  O     0.53036   0.75000   0.33683   0.00000  Uiso   1.00
O1260  O     0.96964   0.75000   0.66317   0.00000  Uiso   1.00
O1261  O     0.75000   0.53036   0.33683   0.00000  Uiso   1.00
O1262  O     0.75000   0.96964   0.66317   0.00000  Uiso   1.00
O1263  O     0.96964   0.75000   0.33683   0.00000  Uiso   1.00
O1264  O     0.53036   0.75000   0.66317   0.00000  Uiso   1.00
O1265  O     0.50000   0.71964   0.83683   0.00000  Uiso   1.00
O1266  O     0.50000   0.78036   0.16317   0.00000  Uiso   1.00
O1267  O     0.78036   0.50000   0.83683   0.00000  Uiso   1.00
O1268  O     0.71964   0.50000   0.16317   0.00000  Uiso   1.00
O1269  O     0.50000   0.78036   0.83683   0.00000  Uiso   1.00
O1270  O     0.50000   0.71964   0.16317   0.00000  Uiso   1.00
O1271  O     0.71964   0.50000   0.83683   0.00000  Uiso   1.00
O1272  O     0.78036   0.50000   0.16317   0.00000  Uiso   1.00
O1273  O     0.70726   0.57307   0.27282   0.00000  Uiso   1.00
O1274  O     0.79275   0.92693   0.72718   0.00000  Uiso   1.00
O1275  O     0.92693   0.70726   0.27282   0.00000  Uiso   1.00
O1276  O     0.57307   0.79274   0.72718   0.00000  Uiso   1.00
O1277  O     0.79275   0.92693   0.27282   0.00000  Uiso   1.00
O1278  O     0.70726   0.57307   0.72718   0.00000  Uiso   1.00
O1279  O     0.57307   0.79274   0.27282   0.00000  Uiso   1.00
O1280  O     0.92693   0.70726   0.72718   0.00000  Uiso   1.00
O1281  O     0.70726   0.92693   0.72718   0.00000  Uiso   1.00
O1282  O     0.79275   0.57307   0.27282   0.00000  Uiso   1.00
O1283  O     0.92693   0.79275   0.72718   0.00000  Uiso   1.00
O1284  O     0.57307   0.70725   0.27282   0.00000  Uiso   1.00
O1285  O     0.79275   0.57307   0.72718   0.00000  Uiso   1.00
O1286  O     0.70726   0.92693   0.27282   0.00000  Uiso   1.00
O1287  O     0.57307   0.70725   0.72718   0.00000  Uiso   1.00
O1288  O     0.92693   0.79275   0.27282   0.00000  Uiso   1.00
O1289  O     0.95726   0.82307   0.77282   0.00000  Uiso   1.00
O1290  O     0.54275   0.67693   0.22718   0.00000  Uiso   1.00
O1291  O     0.67693   0.95725   0.77282   0.00000  Uiso   1.00
O1292  O     0.82307   0.54275   0.22718   0.00000  Uiso   1.00
O1293  O     0.54275   0.67693   0.77282   0.00000  Uiso   1.00
O1294  O     0.95726   0.82307   0.22718   0.00000  Uiso   1.00
O1295  O     0.82307   0.54275   0.77282   0.00000  Uiso   1.00
O1296  O     0.67693   0.95725   0.22718   0.00000  Uiso   1.00
O1297  O     0.95726   0.67693   0.22718   0.00000  Uiso   1.00
O1298  O     0.54275   0.82307   0.77282   0.00000  Uiso   1.00
O1299  O     0.67693   0.54275   0.22718   0.00000  Uiso   1.00
O1300  O     0.82307   0.95725   0.77282   0.00000  Uiso   1.00
O1301  O     0.54275   0.82307   0.22718   0.00000  Uiso   1.00
O1302  O     0.95726   0.67693   0.77282   0.00000  Uiso   1.00
O1303  O     0.82307   0.95725   0.22718   0.00000  Uiso   1.00
O1304  O     0.67693   0.54275   0.77282   0.00000  Uiso   1.00
C1305  C     0.75000   0.50000   0.02128   0.00000  Uiso   1.00
C1306  C     0.75000   0.50000   0.97872   0.00000  Uiso   1.00
C1307  C     0.50000   0.75000   0.02130   0.00000  Uiso   1.00
C1308  C     0.50000   0.75000   0.97870   0.00000  Uiso   1.00
C1309  C     0.50000   0.75000   0.52128   0.00000  Uiso   1.00
C1310  C     0.50000   0.75000   0.47872   0.00000  Uiso   1.00
C1311  C     0.75000   0.50000   0.52130   0.00000  Uiso   1.00
C1312  C     0.75000   0.50000   0.47870   0.00000  Uiso   1.00
C1313  C     0.75000   0.50000   0.35513   0.00000  Uiso   1.00
C1314  C     0.75000   0.50000   0.64488   0.00000  Uiso   1.00
C1315  C     0.50000   0.75000   0.35512   0.00000  Uiso   1.00
C1316  C     0.50000   0.75000   0.64488   0.00000  Uiso   1.00
C1317  C     0.50000   0.75000   0.85513   0.00000  Uiso   1.00
C1318  C     0.50000   0.75000   0.14488   0.00000  Uiso   1.00
C1319  C     0.75000   0.50000   0.85512   0.00000  Uiso   1.00
C1320  C     0.75000   0.50000   0.14488   0.00000  Uiso   1.00
C1321  C     0.68004   0.57000   0.25003   0.00000  Uiso   1.00
C1322  C     0.81995   0.92999   0.75003   0.00000  Uiso   1.00
C1323  C     0.93005   0.67999   0.25003   0.00000  Uiso   1.00
C1324  C     0.56996   0.82000   0.75003   0.00000  Uiso   1.00
C1325  C     0.81996   0.93000   0.25003   0.00000  Uiso   1.00
C1326  C     0.68005   0.57001   0.75003   0.00000  Uiso   1.00
C1327  C     0.56995   0.82001   0.25003   0.00000  Uiso   1.00
C1328  C     0.93004   0.68000   0.75002   0.00000  Uiso   1.00
C1329  C     0.68004   0.93000   0.74997   0.00000  Uiso   1.00
C1330  C     0.81995   0.57001   0.24997   0.00000  Uiso   1.00
C1331  C     0.93005   0.82001   0.74997   0.00000  Uiso   1.00
C1332  C     0.56996   0.68000   0.24997   0.00000  Uiso   1.00
C1333  C     0.81996   0.57000   0.74998   0.00000  Uiso   1.00
C1334  C     0.68005   0.92999   0.24997   0.00000  Uiso   1.00
C1335  C     0.56995   0.67999   0.74997   0.00000  Uiso   1.00
C1336  C     0.93004   0.82000   0.24997   0.00000  Uiso   1.00
C1337  C     0.62321   0.90394   0.27762   0.00000  Uiso   1.00
C1338  C     0.84030   0.63229   0.76688   0.00000  Uiso   1.00
C1339  C     0.59012   0.61753   0.26636   0.00000  Uiso   1.00
C1340  C     0.87326   0.84611   0.77768   0.00000  Uiso   1.00
C1341  C     0.87679   0.59606   0.27762   0.00000  Uiso   1.00
C1342  C     0.61740   0.90974   0.73305   0.00000  Uiso   1.00
C1343  C     0.90988   0.88247   0.26637   0.00000  Uiso   1.00
C1344  C     0.59615   0.62357   0.72245   0.00000  Uiso   1.00
C1345  C     0.62332   0.59617   0.72224   0.00000  Uiso   1.00
C1346  C     0.88261   0.90975   0.26693   0.00000  Uiso   1.00
C1347  C     0.59013   0.88246   0.73361   0.00000  Uiso   1.00
C1348  C     0.90396   0.62346   0.27741   0.00000  Uiso   1.00
C1349  C     0.84609   0.87351   0.77747   0.00000  Uiso   1.00
C1350  C     0.61739   0.59025   0.26692   0.00000  Uiso   1.00
C1351  C     0.86756   0.65957   0.76740   0.00000  Uiso   1.00
C1352  C     0.59604   0.87654   0.27741   0.00000  Uiso   1.00
C1353  C     0.90970   0.61771   0.73312   0.00000  Uiso   1.00
C1354  C     0.62679   0.84606   0.22238   0.00000  Uiso   1.00
C1355  C     0.87674   0.90389   0.72232   0.00000  Uiso   1.00
C1356  C     0.65988   0.63247   0.23364   0.00000  Uiso   1.00
C1357  C     0.63260   0.84026   0.76695   0.00000  Uiso   1.00
C1358  C     0.87321   0.65394   0.22238   0.00000  Uiso   1.00
C1359  C     0.65385   0.62643   0.77755   0.00000  Uiso   1.00
C1360  C     0.84012   0.86753   0.23363   0.00000  Uiso   1.00
C1361  C     0.86739   0.84025   0.23307   0.00000  Uiso   1.00
C1362  C     0.62668   0.65383   0.77776   0.00000  Uiso   1.00
C1363  C     0.84604   0.62654   0.22259   0.00000  Uiso   1.00
C1364  C     0.65987   0.86754   0.76639   0.00000  Uiso   1.00
C1365  C     0.63261   0.65975   0.23308   0.00000  Uiso   1.00
C1366  C     0.90391   0.87649   0.72253   0.00000  Uiso   1.00
C1367  C     0.65396   0.87346   0.22259   0.00000  Uiso   1.00
C1368  C     0.88244   0.59043   0.73261   0.00000  Uiso   1.00
C1369  C     0.59815   0.84800   0.24985   0.00000  Uiso   1.00
C1370  C     0.90188   0.65196   0.75030   0.00000  Uiso   1.00
C1371  C     0.65189   0.59805   0.25031   0.00000  Uiso   1.00
C1372  C     0.84815   0.90199   0.74985   0.00000  Uiso   1.00
C1373  C     0.90185   0.65199   0.24985   0.00000  Uiso   1.00
C1374  C     0.59811   0.84804   0.75031   0.00000  Uiso   1.00
C1375  C     0.84812   0.90195   0.25031   0.00000  Uiso   1.00
C1376  C     0.65185   0.59800   0.74985   0.00000  Uiso   1.00
C1377  C     0.59815   0.65200   0.75015   0.00000  Uiso   1.00
C1378  C     0.90189   0.84804   0.24969   0.00000  Uiso   1.00
C1379  C     0.65189   0.90195   0.74969   0.00000  Uiso   1.00
C1380  C     0.84815   0.59801   0.25015   0.00000  Uiso   1.00
C1381  C     0.90185   0.84800   0.75015   0.00000  Uiso   1.00
C1382  C     0.59811   0.65195   0.24969   0.00000  Uiso   1.00
C1383  C     0.84812   0.59804   0.74970   0.00000  Uiso   1.00
C1384  C     0.65185   0.90200   0.25015   0.00000  Uiso   1.00
C1385  C     0.75000   0.50000   0.10249   0.00000  Uiso   1.00
C1386  C     0.75000   0.50000   0.89752   0.00000  Uiso   1.00
C1387  C     0.50000   0.75000   0.10251   0.00000  Uiso   1.00
C1388  C     0.50000   0.75000   0.89749   0.00000  Uiso   1.00
C1389  C     0.50000   0.75000   0.60248   0.00000  Uiso   1.00
C1390  C     0.50000   0.75000   0.39751   0.00000  Uiso   1.00
C1391  C     0.75000   0.50000   0.60251   0.00000  Uiso   1.00
C1392  C     0.75000   0.50000   0.39749   0.00000  Uiso   1.00
C1393  C     0.62134   0.93503   0.30689   0.00000  Uiso   1.00
H1394  H     0.64387   0.95515   0.30448   0.00000  Uiso   1.00
H1395  H     0.59554   0.95058   0.30285   0.00000  Uiso   1.00
H1396  H     0.62253   0.92377   0.33676   0.00000  Uiso   1.00
C1397  C     0.80277   0.63859   0.78481   0.00000  Uiso   1.00
H1398  H     0.79758   0.61767   0.80753   0.00000  Uiso   1.00
H1399  H     0.79909   0.66564   0.79862   0.00000  Uiso   1.00
H1400  H     0.78141   0.63627   0.76208   0.00000  Uiso   1.00
C1401  C     0.55239   0.61101   0.28375   0.00000  Uiso   1.00
H1402  H     0.53130   0.61348   0.26076   0.00000  Uiso   1.00
H1403  H     0.54859   0.58383   0.29723   0.00000  Uiso   1.00
H1404  H     0.54690   0.63171   0.30660   0.00000  Uiso   1.00
C1405  C     0.87144   0.81507   0.80701   0.00000  Uiso   1.00
H1406  H     0.89396   0.79494   0.80460   0.00000  Uiso   1.00
H1407  H     0.87268   0.82638   0.83686   0.00000  Uiso   1.00
H1408  H     0.84562   0.79952   0.80305   0.00000  Uiso   1.00
C1409  C     0.87866   0.56497   0.30688   0.00000  Uiso   1.00
H1410  H     0.85613   0.54485   0.30448   0.00000  Uiso   1.00
H1411  H     0.90446   0.54942   0.30284   0.00000  Uiso   1.00
H1412  H     0.87748   0.57624   0.33676   0.00000  Uiso   1.00
C1413  C     0.60975   0.94652   0.71402   0.00000  Uiso   1.00
H1414  H     0.63322   0.96565   0.71405   0.00000  Uiso   1.00
H1415  H     0.60239   0.94232   0.68311   0.00000  Uiso   1.00
H1416  H     0.58699   0.96046   0.72937   0.00000  Uiso   1.00
C1417  C     0.94761   0.88899   0.28375   0.00000  Uiso   1.00
H1418  H     0.96870   0.88652   0.26077   0.00000  Uiso   1.00
H1419  H     0.95141   0.91616   0.29724   0.00000  Uiso   1.00
H1420  H     0.95309   0.86829   0.30661   0.00000  Uiso   1.00
C1421  C     0.56454   0.62327   0.69374   0.00000  Uiso   1.00
H1422  H     0.53823   0.62203   0.70975   0.00000  Uiso   1.00
H1423  H     0.56517   0.64869   0.67613   0.00000  Uiso   1.00
H1424  H     0.56469   0.60006   0.67318   0.00000  Uiso   1.00
C1425  C     0.62156   0.56519   0.69284   0.00000  Uiso   1.00
H1426  H     0.64406   0.54504   0.69527   0.00000  Uiso   1.00
H1427  H     0.59573   0.54964   0.69670   0.00000  Uiso   1.00
H1428  H     0.62287   0.57656   0.66302   0.00000  Uiso   1.00
C1429  C     0.89027   0.94654   0.28592   0.00000  Uiso   1.00
H1430  H     0.86680   0.96567   0.28591   0.00000  Uiso   1.00
H1431  H     0.89766   0.94236   0.31684   0.00000  Uiso   1.00
H1432  H     0.91303   0.96048   0.27055   0.00000  Uiso   1.00
C1433  C     0.55241   0.88896   0.71619   0.00000  Uiso   1.00
H1434  H     0.53130   0.88650   0.73916   0.00000  Uiso   1.00
H1435  H     0.54861   0.91613   0.70269   0.00000  Uiso   1.00
H1436  H     0.54694   0.86825   0.69334   0.00000  Uiso   1.00
C1437  C     0.93569   0.62304   0.30597   0.00000  Uiso   1.00
H1438  H     0.96194   0.62186   0.28984   0.00000  Uiso   1.00
H1439  H     0.93514   0.64840   0.32369   0.00000  Uiso   1.00
H1440  H     0.93562   0.59976   0.32643   0.00000  Uiso   1.00
C1441  C     0.81441   0.87314   0.80610   0.00000  Uiso   1.00
H1442  H     0.81499   0.89852   0.82377   0.00000  Uiso   1.00
H1443  H     0.78814   0.87193   0.79002   0.00000  Uiso   1.00
H1444  H     0.81452   0.84989   0.82660   0.00000  Uiso   1.00
C1445  C     0.60973   0.55346   0.28592   0.00000  Uiso   1.00
H1446  H     0.63320   0.53433   0.28590   0.00000  Uiso   1.00
H1447  H     0.60234   0.55764   0.31683   0.00000  Uiso   1.00
H1448  H     0.58697   0.53952   0.27054   0.00000  Uiso   1.00
C1449  C     0.86007   0.69620   0.78682   0.00000  Uiso   1.00
H1450  H     0.88349   0.71539   0.78660   0.00000  Uiso   1.00
H1451  H     0.83709   0.71021   0.77191   0.00000  Uiso   1.00
H1452  H     0.85310   0.69176   0.81780   0.00000  Uiso   1.00
C1453  C     0.56432   0.87696   0.30598   0.00000  Uiso   1.00
H1454  H     0.53807   0.87814   0.28985   0.00000  Uiso   1.00
H1455  H     0.56487   0.85160   0.32369   0.00000  Uiso   1.00
H1456  H     0.56439   0.90024   0.32644   0.00000  Uiso   1.00
C1457  C     0.94723   0.61141   0.71519   0.00000  Uiso   1.00
H1458  H     0.95242   0.63233   0.69247   0.00000  Uiso   1.00
H1459  H     0.96859   0.61373   0.73792   0.00000  Uiso   1.00
H1460  H     0.95091   0.58436   0.70138   0.00000  Uiso   1.00
C1461  C     0.62866   0.81497   0.19312   0.00000  Uiso   1.00
H1462  H     0.60613   0.79485   0.19552   0.00000  Uiso   1.00
H1463  H     0.62747   0.82623   0.16324   0.00000  Uiso   1.00
H1464  H     0.65446   0.79942   0.19716   0.00000  Uiso   1.00
C1465  C     0.87856   0.93493   0.69299   0.00000  Uiso   1.00
H1466  H     0.85604   0.95506   0.69540   0.00000  Uiso   1.00
H1467  H     0.90438   0.95048   0.69695   0.00000  Uiso   1.00
H1468  H     0.87732   0.92362   0.66314   0.00000  Uiso   1.00
C1469  C     0.69761   0.63899   0.21625   0.00000  Uiso   1.00
H1470  H     0.71871   0.63652   0.23924   0.00000  Uiso   1.00
H1471  H     0.70310   0.61829   0.19340   0.00000  Uiso   1.00
H1472  H     0.70142   0.66617   0.20277   0.00000  Uiso   1.00
C1473  C     0.64025   0.80348   0.78598   0.00000  Uiso   1.00
H1474  H     0.61678   0.78435   0.78595   0.00000  Uiso   1.00
H1475  H     0.66301   0.78954   0.77063   0.00000  Uiso   1.00
H1476  H     0.64761   0.80768   0.81689   0.00000  Uiso   1.00
C1477  C     0.87134   0.68503   0.19312   0.00000  Uiso   1.00
H1478  H     0.89387   0.70515   0.19552   0.00000  Uiso   1.00
H1479  H     0.87252   0.67376   0.16324   0.00000  Uiso   1.00
H1480  H     0.84554   0.70058   0.19716   0.00000  Uiso   1.00
C1481  C     0.68546   0.62673   0.80626   0.00000  Uiso   1.00
H1482  H     0.71177   0.62797   0.79026   0.00000  Uiso   1.00
H1483  H     0.68531   0.64994   0.82682   0.00000  Uiso   1.00
H1484  H     0.68483   0.60131   0.82387   0.00000  Uiso   1.00
C1485  C     0.80239   0.86101   0.21625   0.00000  Uiso   1.00
H1486  H     0.78130   0.86348   0.23923   0.00000  Uiso   1.00
H1487  H     0.79691   0.88171   0.19339   0.00000  Uiso   1.00
H1488  H     0.79859   0.83384   0.20276   0.00000  Uiso   1.00
C1489  C     0.85973   0.80346   0.21408   0.00000  Uiso   1.00
H1490  H     0.88320   0.78433   0.21409   0.00000  Uiso   1.00
H1491  H     0.83697   0.78952   0.22945   0.00000  Uiso   1.00
H1492  H     0.85234   0.80764   0.18316   0.00000  Uiso   1.00
C1493  C     0.62844   0.68481   0.80716   0.00000  Uiso   1.00
H1494  H     0.60594   0.70496   0.80473   0.00000  Uiso   1.00
H1495  H     0.62713   0.67344   0.83698   0.00000  Uiso   1.00
H1496  H     0.65427   0.70036   0.80330   0.00000  Uiso   1.00
C1497  C     0.81431   0.62696   0.19403   0.00000  Uiso   1.00
H1498  H     0.78807   0.62814   0.21016   0.00000  Uiso   1.00
H1499  H     0.81438   0.65024   0.17357   0.00000  Uiso   1.00
H1500  H     0.81486   0.60160   0.17631   0.00000  Uiso   1.00
C1501  C     0.69759   0.86104   0.78381   0.00000  Uiso   1.00
H1502  H     0.71870   0.86350   0.76084   0.00000  Uiso   1.00
H1503  H     0.70306   0.88175   0.80666   0.00000  Uiso   1.00
H1504  H     0.70139   0.83387   0.79731   0.00000  Uiso   1.00
C1505  C     0.64027   0.69654   0.21408   0.00000  Uiso   1.00
H1506  H     0.61680   0.71567   0.21410   0.00000  Uiso   1.00
H1507  H     0.66303   0.71048   0.22946   0.00000  Uiso   1.00
H1508  H     0.64766   0.69236   0.18317   0.00000  Uiso   1.00
C1509  C     0.93559   0.87686   0.69390   0.00000  Uiso   1.00
H1510  H     0.93501   0.85148   0.67623   0.00000  Uiso   1.00
H1511  H     0.93548   0.90011   0.67340   0.00000  Uiso   1.00
H1512  H     0.96186   0.87807   0.70998   0.00000  Uiso   1.00
C1513  C     0.68568   0.87304   0.19402   0.00000  Uiso   1.00
H1514  H     0.71193   0.87186   0.21015   0.00000  Uiso   1.00
H1515  H     0.68561   0.84976   0.17356   0.00000  Uiso   1.00
H1516  H     0.68514   0.89840   0.17631   0.00000  Uiso   1.00
C1517  C     0.88993   0.55380   0.71318   0.00000  Uiso   1.00
H1518  H     0.86651   0.53461   0.71340   0.00000  Uiso   1.00
H1519  H     0.89690   0.55824   0.68220   0.00000  Uiso   1.00
H1520  H     0.91291   0.53979   0.72809   0.00000  Uiso   1.00
C1521  C     0.71996   0.93699   0.10303   0.00000  Uiso   1.00
H1522  H     0.69562   0.94523   0.12014   0.00000  Uiso   1.00
H1523  H     0.71140   0.91513   0.08256   0.00000  Uiso   1.00
H1524  H     0.74092   0.92532   0.12278   0.00000  Uiso   1.00
C1525  C     0.78012   0.93702   0.89697   0.00000  Uiso   1.00
H1526  H     0.78869   0.91518   0.91744   0.00000  Uiso   1.00
H1527  H     0.75917   0.92534   0.87721   0.00000  Uiso   1.00
H1528  H     0.80445   0.94529   0.87987   0.00000  Uiso   1.00
C1529  C     0.93667   0.72076   0.10311   0.00000  Uiso   1.00
H1530  H     0.92518   0.74205   0.12262   0.00000  Uiso   1.00
H1531  H     0.91481   0.71226   0.08264   0.00000  Uiso   1.00
H1532  H     0.94453   0.69646   0.12053   0.00000  Uiso   1.00
C1533  C     0.56334   0.72079   0.89689   0.00000  Uiso   1.00
H1534  H     0.57482   0.74208   0.87738   0.00000  Uiso   1.00
H1535  H     0.58520   0.71230   0.91736   0.00000  Uiso   1.00
H1536  H     0.55548   0.69649   0.87947   0.00000  Uiso   1.00
C1537  C     0.78004   0.56301   0.10304   0.00000  Uiso   1.00
H1538  H     0.80438   0.55477   0.12015   0.00000  Uiso   1.00
H1539  H     0.78860   0.58487   0.08256   0.00000  Uiso   1.00
H1540  H     0.75908   0.57468   0.12279   0.00000  Uiso   1.00
C1541  C     0.71989   0.56297   0.89698   0.00000  Uiso   1.00
H1542  H     0.69555   0.55470   0.87988   0.00000  Uiso   1.00
H1543  H     0.71131   0.58482   0.91745   0.00000  Uiso   1.00
H1544  H     0.74083   0.57466   0.87721   0.00000  Uiso   1.00
C1545  C     0.56333   0.77923   0.10312   0.00000  Uiso   1.00
H1546  H     0.57482   0.75795   0.12262   0.00000  Uiso   1.00
H1547  H     0.58519   0.78774   0.08264   0.00000  Uiso   1.00
H1548  H     0.55547   0.80354   0.12053   0.00000  Uiso   1.00
C1549  C     0.93665   0.77920   0.89689   0.00000  Uiso   1.00
H1550  H     0.94451   0.80351   0.87947   0.00000  Uiso   1.00
H1551  H     0.92518   0.75792   0.87738   0.00000  Uiso   1.00
H1552  H     0.91480   0.78770   0.91736   0.00000  Uiso   1.00
C1553  C     0.96988   0.81298   0.60303   0.00000  Uiso   1.00
H1554  H     0.96131   0.83482   0.58256   0.00000  Uiso   1.00
H1555  H     0.94555   0.80471   0.62013   0.00000  Uiso   1.00
H1556  H     0.99083   0.82466   0.62279   0.00000  Uiso   1.00
C1557  C     0.53004   0.81301   0.39697   0.00000  Uiso   1.00
H1558  H     0.55438   0.80477   0.37986   0.00000  Uiso   1.00
H1559  H     0.50908   0.82468   0.37722   0.00000  Uiso   1.00
H1560  H     0.53860   0.83487   0.41744   0.00000  Uiso   1.00
C1561  C     0.81334   0.97079   0.60312   0.00000  Uiso   1.00
H1562  H     0.80548   0.94648   0.62053   0.00000  Uiso   1.00
H1563  H     0.83520   0.96229   0.58264   0.00000  Uiso   1.00
H1564  H     0.82482   0.99207   0.62262   0.00000  Uiso   1.00
C1565  C     0.81334   0.52923   0.39689   0.00000  Uiso   1.00
H1566  H     0.80547   0.55353   0.37947   0.00000  Uiso   1.00
H1567  H     0.83519   0.53773   0.41736   0.00000  Uiso   1.00
H1568  H     0.82482   0.50795   0.37738   0.00000  Uiso   1.00
C1569  C     0.53012   0.68703   0.60302   0.00000  Uiso   1.00
H1570  H     0.55446   0.69530   0.62012   0.00000  Uiso   1.00
H1571  H     0.50918   0.67534   0.62279   0.00000  Uiso   1.00
H1572  H     0.53869   0.66518   0.58255   0.00000  Uiso   1.00
C1573  C     0.96996   0.68699   0.39697   0.00000  Uiso   1.00
H1574  H     0.94562   0.69523   0.37985   0.00000  Uiso   1.00
H1575  H     0.99092   0.67532   0.37722   0.00000  Uiso   1.00
H1576  H     0.96140   0.66513   0.41744   0.00000  Uiso   1.00
C1577  C     0.68666   0.52922   0.60311   0.00000  Uiso   1.00
H1578  H     0.69452   0.55352   0.62053   0.00000  Uiso   1.00
H1579  H     0.66481   0.53771   0.58264   0.00000  Uiso   1.00
H1580  H     0.67518   0.50793   0.62262   0.00000  Uiso   1.00
C1581  C     0.68666   0.97077   0.39689   0.00000  Uiso   1.00
H1582  H     0.69453   0.94647   0.37947   0.00000  Uiso   1.00
H1583  H     0.66481   0.96227   0.41736   0.00000  Uiso   1.00
H1584  H     0.67518   0.99205   0.37738   0.00000  Uiso   1.00
loop_
_geom_bond_atom_site_label_1
_geom_bond_atom_site_label_2
_geom_bond_distance
_geom_bond_site_symmetry_2
_ccdc_geom_bond_type
Zn1    O65     1.941   .     S
Zn1    O80     1.937   .     S
Zn1    O900    1.930   1_545 S
Zn1    O111    1.930   .     S
Zn2    O66     1.941   .     S
Zn2    O904    1.930   1_545 S
Zn2    O79     1.937   .     S
Zn2    O107    1.930   .     S
Zn3    O505    1.931   1_455 S
Zn3    O67     1.940   .     S
Zn3    O82     1.937   .     S
Zn3    O102    1.931   .     S
Zn4    O68     1.940   .     S
Zn4    O81     1.937   .     S
Zn4    O110    1.931   .     S
Zn4    O497    1.931   1_455 S
Zn5    O907    1.930   1_545 S
Zn5    O84     1.937   .     S
Zn5    O65     1.941   .     S
Zn5    O104    1.930   .     S
Zn6    O83     1.937   .     S
Zn6    O895    1.930   1_545 S
Zn6    O66     1.941   .     S
Zn6    O116    1.930   .     S
Zn7    O67     1.940   .     S
Zn7    O78     1.937   .     S
Zn7    O113    1.931   .     S
Zn7    O502    1.931   1_455 S
Zn8    O105    1.931   .     S
Zn8    O77     1.937   .     S
Zn8    O68     1.940   .     S
Zn8    O510    1.931   1_455 S
Zn9    O95     1.930   .     S
Zn9    O72     1.937   .     S
Zn9    O92     1.930   .     S
Zn9    O464    1.941   .     S
Zn10   O71     1.937   .     S
Zn10   O91     1.930   .     S
Zn10   O67     1.941   .     S
Zn10   O96     1.930   .     S
Zn11   O86     1.931   .     S
Zn11   O74     1.937   .     S
Zn11   O93     1.931   .     S
Zn11   O858    1.940   .     S
Zn12   O73     1.937   .     S
Zn12   O94     1.931   .     S
Zn12   O85     1.931   .     S
Zn12   O65     1.940   .     S
Zn13   O99     1.930   .     S
Zn13   O68     1.941   .     S
Zn13   O76     1.937   .     S
Zn13   O88     1.930   .     S
Zn14   O100    1.930   .     S
Zn14   O75     1.937   .     S
Zn14   O87     1.930   .     S
Zn14   O463    1.941   .     S
Zn15   O97     1.931   .     S
Zn15   O70     1.937   .     S
Zn15   O90     1.931   .     S
Zn15   O66     1.940   .     S
Zn16   O89     1.931   .     S
Zn16   O98     1.931   .     S
Zn16   O857    1.940   .     S
Zn16   O69     1.937   .     S
C17    C49     1.398   .     A
C17    C909    1.399   .     A
C17    H33     1.084   .     S
C18    H34     1.084   .     S
C18    C910    1.399   .     A
C18    C50     1.398   .     A
C19    H35     1.084   .     S
C19    C515    1.399   .     A
C19    C51     1.398   .     A
C20    H36     1.084   .     S
C20    C52     1.398   .     A
C20    C120    1.399   .     S
C21    H37     1.084   .     S
C21    C53     1.398   .     A
C21    C117    1.399   .     S
C22    H38     1.084   .     S
C22    C54     1.398   .     A
C22    C118    1.399   .     S
C23    C55     1.398   .     A
C23    H39     1.084   .     S
C23    C119    1.399   .     S
C24    C516    1.399   .     A
C24    C56     1.398   .     A
C24    H40     1.084   .     S
C25    C57     1.398   .     A
C25    H41     1.084   .     S
C25    C517    1.399   .     A
C26    H42     1.084   .     S
C26    C58     1.398   .     A
C26    C122    1.399   .     S
C27    H43     1.084   .     S
C27    C915    1.399   .     A
C27    C59     1.398   .     A
C28    H44     1.084   .     S
C28    C60     1.398   .     A
C28    C124    1.399   .     S
C29    H45     1.084   .     S
C29    C61     1.398   .     A
C29    C121    1.399   .     S
C30    C518    1.399   .     A
C30    H46     1.084   .     S
C30    C62     1.398   .     A
C31    C63     1.398   .     A
C31    H47     1.084   .     S
C31    C123    1.399   .     S
C32    C64     1.398   .     A
C32    H48     1.084   .     S
C32    C916    1.399   .     A
C49    C333    1.509   .     S
C49    C989    1.414   .     A
C50    C990    1.414   .     A
C50    C337    1.509   .     S
C51    C341    1.509   .     S
C51    C595    1.414   .     A
C52    C345    1.509   .     S
C52    C200    1.414   .     S
C53    C349    1.509   .     S
C53    C197    1.414   .     S
C54    C353    1.509   .     S
C54    C198    1.414   .     S
C55    C357    1.509   .     S
C55    C199    1.414   .     S
C56    C596    1.414   .     A
C56    C361    1.509   .     S
C57    C597    1.414   .     A
C57    C365    1.509   .     S
C58    C369    1.509   .     S
C58    C202    1.414   .     S
C59    C373    1.509   .     S
C59    C995    1.414   .     A
C60    C204    1.414   .     A
C60    C377    1.509   .     S
C61    C381    1.509   .     S
C61    C201    1.414   .     S
C62    C385    1.509   .     S
C62    C598    1.414   .     A
C63    C389    1.509   .     S
C63    C203    1.414   .     S
C64    C393    1.509   .     S
C64    C996    1.414   .     S
O65    Zn808   1.940   1_545 S
O66    Zn803   1.940   1_545 S
O67    Zn410   1.941   1_455 S
O68    Zn405   1.941   1_455 S
O69    C917    1.276   .     S
O70    C126    1.276   .     S
O71    C127    1.277   .     A
O72    C524    1.277   .     A
O73    C125    1.276   .     A
O74    C918    1.276   .     A
O75    C523    1.277   .     S
O76    C128    1.277   .     S
O77    C129    1.276   .     A
O78    C130    1.276   .     S
O79    C131    1.277   .     A
O80    C132    1.277   .     A
O81    C129    1.276   .     A
O82    C130    1.276   .     S
O83    C131    1.277   .     A
O84    C132    1.277   .     A
O85    C133    1.273   .     A
O86    C134    1.274   .     A
O87    C135    1.274   .     A
O88    C136    1.275   .     A
O89    C137    1.273   .     A
O90    C138    1.274   .     A
O91    C139    1.274   .     A
O92    C140    1.275   .     A
O93    C141    1.273   .     A
O94    C142    1.274   .     A
O95    C143    1.274   .     A
O96    C144    1.275   .     A
O97    C145    1.273   .     A
O98    C146    1.274   .     A
O99    C147    1.274   .     A
O100   C148    1.275   .     A
O101   C143    1.274   .     A
O101   Zn400   1.931   .     S
O102   C144    1.273   .     A
O103   C141    1.275   .     A
O103   Zn798   1.930   .     S
O104   C142    1.274   .     A
O105   C147    1.274   .     A
O106   C148    1.273   .     A
O106   Zn403   1.931   .     S
O107   C145    1.275   .     A
O108   C146    1.274   .     A
O108   Zn793   1.930   .     S
O109   C135    1.274   .     A
O109   Zn399   1.931   .     S
O110   C136    1.273   .     A
O111   C133    1.275   .     A
O112   Zn794   1.930   .     S
O112   C134    1.274   .     A
O113   C139    1.274   .     A
O114   C140    1.273   .     A
O114   Zn404   1.931   .     S
O115   C137    1.275   .     A
O115   Zn797   1.930   .     S
O116   C138    1.274   .     A
C117   C809    1.399   1_545 A
C117   C118    1.468   1_554 S
C118   C810    1.399   1_545 A
C118   C117    1.468   1_556 S
C119   C415    1.399   1_455 A
C119   C120    1.469   1_554 S
C120   C420    1.399   1_455 A
C120   C119    1.469   1_556 S
C121   C421    1.399   1_455 A
C121   C122    1.468   .     S
C122   C426    1.399   1_455 A
C123   C124    1.469   .     S
C123   C819    1.399   1_545 A
C124   C824    1.399   1_545 A
C125   C204    1.461   .     S
C125   O861    1.276   1_545 S
C126   C203    1.461   .     S
C126   O866    1.276   1_545 A
C127   O471    1.277   1_455 S
C127   C202    1.462   .     S
C128   O468    1.277   1_455 A
C128   C201    1.462   .     S
C129   C200    1.461   .     S
C130   C199    1.461   .     S
C131   C198    1.462   .     S
C132   C197    1.462   .     S
C133   C183    1.453   .     S
C134   C184    1.453   .     S
C135   C185    1.453   .     S
C136   C186    1.453   .     S
C137   C187    1.453   .     S
C138   C188    1.453   .     S
C139   C181    1.453   .     S
C140   C182    1.453   .     S
C141   C191    1.453   .     S
C142   C192    1.453   .     S
C143   C193    1.453   .     S
C144   C194    1.453   .     S
C145   C195    1.453   .     S
C146   C196    1.453   .     S
C147   C189    1.453   .     S
C148   C190    1.453   .     S
C149   C196    1.414   .     A
C149   C164    1.410   .     A
C149   C205    1.521   .     S
C150   C163    1.410   .     A
C150   C195    1.414   .     A
C150   C209    1.523   .     S
C151   C213    1.523   .     S
C151   C194    1.414   .     A
C151   C162    1.410   .     A
C152   C161    1.410   .     A
C152   C217    1.521   .     S
C152   C193    1.414   .     A
C153   C160    1.410   .     A
C153   C221    1.521   .     S
C153   C192    1.414   .     A
C154   C191    1.415   .     A
C154   C225    1.521   .     S
C154   C159    1.410   .     A
C155   C158    1.410   .     A
C155   C190    1.414   .     A
C155   C229    1.523   .     S
C156   C189    1.413   .     A
C156   C157    1.410   .     A
C156   C233    1.522   .     S
C157   C188    1.414   .     A
C157   C237    1.521   .     S
C158   C187    1.415   .     A
C158   C241    1.521   .     S
C159   C186    1.414   .     A
C159   C245    1.523   .     S
C160   C185    1.413   .     A
C160   C249    1.522   .     S
C161   C184    1.413   .     A
C161   C253    1.522   .     S
C162   C183    1.415   .     A
C162   C257    1.521   .     S
C163   C261    1.521   .     S
C163   C182    1.415   .     A
C164   C181    1.413   .     A
C164   C265    1.522   .     S
C165   C269    1.523   .     S
C165   C182    1.414   .     A
C165   C180    1.410   .     A
C166   C181    1.414   .     A
C166   C273    1.521   .     S
C166   C179    1.410   .     A
C167   C178    1.410   .     A
C167   C277    1.521   .     S
C167   C184    1.414   .     A
C168   C281    1.523   .     S
C168   C183    1.414   .     A
C168   C177    1.410   .     A
C169   C176    1.410   .     A
C169   C285    1.521   .     S
C169   C186    1.415   .     A
C170   C185    1.414   .     A
C170   C289    1.521   .     S
C170   C175    1.410   .     A
C171   C188    1.413   .     A
C171   C174    1.410   .     A
C171   C293    1.522   .     S
C172   C297    1.523   .     S
C172   C187    1.414   .     A
C172   C173    1.410   .     A
C173   C190    1.415   .     A
C173   C301    1.521   .     S
C174   C189    1.414   .     A
C174   C305    1.521   .     S
C175   C309    1.522   .     S
C175   C192    1.413   .     A
C176   C313    1.523   .     S
C176   C191    1.414   .     A
C177   C194    1.415   .     A
C177   C317    1.521   .     S
C178   C321    1.522   .     S
C178   C193    1.413   .     A
C179   C325    1.522   .     S
C179   C196    1.413   .     A
C180   C329    1.521   .     S
C180   C195    1.415   .     A
C197   C841    1.414   1_545 A
C198   C842    1.414   1_545 A
C199   C447    1.414   1_455 A
C200   C452    1.414   1_455 A
C201   C453    1.414   1_455 A
C202   C458    1.414   1_455 A
C203   C851    1.414   1_545 A
C204   C856    1.414   1_545 S
C205   H206    1.107   .     S
C205   H208    1.110   .     S
C205   H207    1.110   .     S
C209   H210    1.111   .     S
C209   H212    1.110   .     S
C209   H211    1.105   .     S
C213   H215    1.105   .     S
C213   H214    1.110   .     S
C213   H216    1.111   .     S
C217   H218    1.107   .     S
C217   H220    1.110   .     S
C217   H219    1.110   .     S
C221   H222    1.107   .     S
C221   H224    1.110   .     S
C221   H223    1.110   .     S
C225   H228    1.110   .     S
C225   H227    1.110   .     S
C225   H226    1.107   .     S
C229   H230    1.110   .     S
C229   H232    1.111   .     S
C229   H231    1.105   .     S
C233   H234    1.111   .     S
C233   H236    1.105   .     S
C233   H235    1.110   .     S
C237   H239    1.110   .     S
C237   H240    1.110   .     S
C237   H238    1.107   .     S
C241   H242    1.107   .     S
C241   H244    1.110   .     S
C241   H243    1.110   .     S
C245   H246    1.110   .     S
C245   H248    1.111   .     S
C245   H247    1.105   .     S
C249   H250    1.110   .     S
C249   H252    1.105   .     S
C249   H251    1.110   .     S
C253   H254    1.110   .     S
C253   H256    1.105   .     S
C253   H255    1.111   .     S
C257   H259    1.110   .     S
C257   H260    1.110   .     S
C257   H258    1.107   .     S
C261   H263    1.111   .     S
C261   H264    1.110   .     S
C261   H262    1.107   .     S
C265   H267    1.110   .     S
C265   H266    1.111   .     S
C265   H268    1.105   .     S
C269   H271    1.110   .     S
C269   H270    1.111   .     S
C269   H272    1.105   .     S
C273   H274    1.107   .     S
C273   H275    1.110   .     S
C273   H276    1.110   .     S
C277   H278    1.107   .     S
C277   H279    1.110   .     S
C277   H280    1.110   .     S
C281   H284    1.105   .     S
C281   H283    1.111   .     S
C281   H282    1.110   .     S
C285   H287    1.110   .     S
C285   H286    1.107   .     S
C285   H288    1.110   .     S
C289   H292    1.110   .     S
C289   H291    1.110   .     S
C289   H290    1.107   .     S
C293   H296    1.110   .     S
C293   H294    1.111   .     S
C293   H295    1.105   .     S
C297   H299    1.111   .     S
C297   H298    1.110   .     S
C297   H300    1.105   .     S
C301   H302    1.107   .     S
C301   H304    1.110   .     S
C301   H303    1.110   .     S
C305   H307    1.110   .     S
C305   H306    1.107   .     S
C305   H308    1.110   .     S
C309   H311    1.105   .     S
C309   H312    1.110   .     S
C309   H310    1.110   .     S
C313   H315    1.111   .     S
C313   H314    1.110   .     S
C313   H316    1.105   .     S
C317   H320    1.110   .     S
C317   H319    1.110   .     S
C317   H318    1.107   .     S
C321   H322    1.110   .     S
C321   H324    1.110   .     S
C321   H323    1.105   .     S
C325   H327    1.105   .     S
C325   H326    1.111   .     S
C325   H328    1.110   .     S
C329   H331    1.110   .     S
C329   H330    1.107   .     S
C329   H332    1.111   .     S
C333   H336    1.111   .     S
C333   H334    1.110   .     S
C333   H335    1.111   .     S
C337   H338    1.111   .     S
C337   H340    1.110   .     S
C337   H339    1.111   .     S
C341   H343    1.111   .     S
C341   H344    1.110   .     S
C341   H342    1.111   .     S
C345   H348    1.110   .     S
C345   H347    1.111   .     S
C345   H346    1.111   .     S
C349   H350    1.110   .     S
C349   H352    1.111   .     S
C349   H351    1.111   .     S
C353   H355    1.111   .     S
C353   H354    1.110   .     S
C353   H356    1.111   .     S
C357   H358    1.111   .     S
C357   H360    1.110   .     S
C357   H359    1.111   .     S
C361   H364    1.111   .     S
C361   H363    1.111   .     S
C361   H362    1.110   .     S
C365   H366    1.111   .     S
C365   H368    1.111   .     S
C365   H367    1.110   .     S
C369   H372    1.111   .     S
C369   H371    1.111   .     S
C369   H370    1.110   .     S
C373   H376    1.111   .     S
C373   H375    1.111   .     S
C373   H374    1.110   .     S
C377   H380    1.111   .     S
C377   H379    1.111   .     S
C377   H378    1.110   .     S
C381   H382    1.110   .     S
C381   H384    1.111   .     S
C381   H383    1.111   .     S
C385   H387    1.111   .     S
C385   H386    1.110   .     S
C385   H388    1.111   .     S
C389   H390    1.110   .     S
C389   H391    1.111   .     S
C389   H392    1.111   .     S
C393   H394    1.110   .     S
C393   H396    1.111   .     S
C393   H395    1.111   .     S
Zn397  O461    1.941   .     S
Zn397  O476    1.937   .     S
Zn397  O1296   1.930   1_545 S
Zn397  O507    1.930   .     S
Zn398  O462    1.941   .     S
Zn398  O1300   1.930   1_545 S
Zn398  O475    1.937   .     S
Zn398  O503    1.930   .     S
Zn399  O463    1.940   .     S
Zn399  O478    1.937   .     S
Zn399  O498    1.931   .     S
Zn400  O464    1.940   .     S
Zn400  O477    1.937   .     S
Zn400  O506    1.931   .     S
Zn401  O1303   1.930   1_545 S
Zn401  O480    1.937   .     S
Zn401  O461    1.941   .     S
Zn401  O500    1.930   .     S
Zn402  O479    1.937   .     S
Zn402  O1291   1.930   1_545 S
Zn402  O462    1.941   .     S
Zn402  O512    1.930   .     S
Zn403  O463    1.940   .     S
Zn403  O474    1.937   .     S
Zn403  O509    1.931   .     S
Zn404  O501    1.931   .     S
Zn404  O473    1.937   .     S
Zn404  O464    1.940   .     S
Zn405  O491    1.930   .     S
Zn405  O468    1.937   .     S
Zn405  O488    1.930   .     S
Zn405  O68     1.941   1_655 S
Zn406  O467    1.937   .     S
Zn406  O487    1.930   .     S
Zn406  O463    1.941   .     S
Zn406  O492    1.930   .     S
Zn407  O482    1.931   .     S
Zn407  O470    1.937   .     S
Zn407  O489    1.931   .     S
Zn407  O1254   1.940   .     S
Zn408  O469    1.937   .     S
Zn408  O490    1.931   .     S
Zn408  O481    1.931   .     S
Zn408  O461    1.940   .     S
Zn409  O495    1.930   .     S
Zn409  O464    1.941   .     S
Zn409  O472    1.937   .     S
Zn409  O484    1.930   .     S
Zn410  O496    1.930   .     S
Zn410  O471    1.937   .     S
Zn410  O483    1.930   .     S
Zn410  O67     1.941   1_655 S
Zn411  O493    1.931   .     S
Zn411  O466    1.937   .     S
Zn411  O486    1.931   .     S
Zn411  O462    1.940   .     S
Zn412  O485    1.931   .     S
Zn412  O494    1.931   .     S
Zn412  O1253   1.940   .     S
Zn412  O465    1.937   .     S
C413   C445    1.398   .     A
C413   C1305   1.399   .     A
C413   H429    1.084   .     S
C414   H430    1.084   .     S
C414   C1306   1.399   .     A
C414   C446    1.398   .     A
C415   H431    1.084   .     S
C415   C119    1.399   1_655 A
C415   C447    1.398   .     A
C416   H432    1.084   .     S
C416   C448    1.398   .     A
C416   C516    1.399   .     S
C417   H433    1.084   .     S
C417   C449    1.398   .     A
C417   C513    1.399   .     S
C418   H434    1.084   .     S
C418   C450    1.398   .     A
C418   C514    1.399   .     S
C419   C451    1.398   .     A
C419   H435    1.084   .     S
C419   C515    1.399   .     S
C420   C120    1.399   1_655 A
C420   C452    1.398   .     A
C420   H436    1.084   .     S
C421   C453    1.398   .     A
C421   H437    1.084   .     S
C421   C121    1.399   1_655 A
C422   H438    1.084   .     S
C422   C454    1.398   .     A
C422   C518    1.399   .     S
C423   H439    1.084   .     S
C423   C1311   1.399   .     A
C423   C455    1.398   .     A
C424   H440    1.084   .     S
C424   C456    1.398   .     A
C424   C520    1.399   .     S
C425   H441    1.084   .     S
C425   C457    1.398   .     A
C425   C517    1.399   .     S
C426   C122    1.399   1_655 A
C426   H442    1.084   .     S
C426   C458    1.398   .     A
C427   C459    1.398   .     A
C427   H443    1.084   .     S
C427   C519    1.399   .     S
C428   C460    1.398   .     A
C428   H444    1.084   .     S
C428   C1312   1.399   .     A
C445   C729    1.509   .     S
C445   C1385   1.414   .     A
C446   C1386   1.414   .     A
C446   C733    1.509   .     S
C447   C737    1.509   .     S
C447   C199    1.414   1_655 A
C448   C741    1.509   .     S
C448   C596    1.414   .     S
C449   C745    1.509   .     S
C449   C593    1.414   .     S
C450   C749    1.509   .     S
C450   C594    1.414   .     S
C451   C753    1.509   .     S
C451   C595    1.414   .     S
C452   C200    1.414   1_655 A
C452   C757    1.509   .     S
C453   C201    1.414   1_655 A
C453   C761    1.509   .     S
C454   C765    1.509   .     S
C454   C598    1.414   .     S
C455   C769    1.509   .     S
C455   C1391   1.414   .     A
C456   C600    1.414   .     A
C456   C773    1.509   .     S
C457   C777    1.509   .     S
C457   C597    1.414   .     S
C458   C781    1.509   .     S
C458   C202    1.414   1_655 A
C459   C785    1.509   .     S
C459   C599    1.414   .     S
C460   C789    1.509   .     S
C460   C1392   1.414   .     S
O461   Zn1204  1.940   1_545 S
O462   Zn1199  1.940   1_545 S
O465   C1313   1.276   .     S
O466   C522    1.276   .     S
O467   C523    1.277   .     A
O468   C128    1.277   1_655 A
O469   C521    1.276   .     A
O470   C1314   1.276   .     A
O471   C127    1.277   1_655 S
O472   C524    1.277   .     S
O473   C525    1.276   .     A
O474   C526    1.276   .     S
O475   C527    1.277   .     A
O476   C528    1.277   .     A
O477   C525    1.276   .     A
O478   C526    1.276   .     S
O479   C527    1.277   .     A
O480   C528    1.277   .     A
O481   C529    1.273   .     A
O482   C530    1.274   .     A
O483   C531    1.274   .     A
O484   C532    1.275   .     A
O485   C533    1.273   .     A
O486   C534    1.274   .     A
O487   C535    1.274   .     A
O488   C536    1.275   .     A
O489   C537    1.273   .     A
O490   C538    1.274   .     A
O491   C539    1.274   .     A
O492   C540    1.275   .     A
O493   C541    1.273   .     A
O494   C542    1.274   .     A
O495   C543    1.274   .     A
O496   C544    1.275   .     A
O497   C539    1.274   .     A
O497   Zn4     1.931   1_655 S
O498   C540    1.273   .     A
O499   C537    1.275   .     A
O499   Zn1194  1.930   .     S
O500   C538    1.274   .     A
O501   C543    1.274   .     A
O502   C544    1.273   .     A
O502   Zn7     1.931   1_655 S
O503   C541    1.275   .     A
O504   C542    1.274   .     A
O504   Zn1189  1.930   .     S
O505   C531    1.274   .     A
O505   Zn3     1.931   1_655 S
O506   C532    1.273   .     A
O507   C529    1.275   .     A
O508   Zn1190  1.930   .     S
O508   C530    1.274   .     A
O509   C535    1.274   .     A
O510   C536    1.273   .     A
O510   Zn8     1.931   1_655 S
O511   C533    1.275   .     A
O511   Zn1193  1.930   .     S
O512   C534    1.274   .     A
C513   C1205   1.399   1_545 A
C513   C514    1.468   1_554 S
C514   C1206   1.399   1_545 A
C514   C513    1.468   1_556 S
C515   C516    1.469   1_554 S
C516   C515    1.469   1_556 S
C517   C518    1.468   .     S
C519   C520    1.469   .     S
C519   C1215   1.399   1_545 A
C520   C1220   1.399   1_545 A
C521   C600    1.461   .     S
C521   O1257   1.276   1_545 S
C522   C599    1.461   .     S
C522   O1262   1.276   1_545 A
C523   C598    1.462   .     S
C524   C597    1.462   .     S
C525   C596    1.461   .     S
C526   C595    1.461   .     S
C527   C594    1.462   .     S
C528   C593    1.462   .     S
C529   C579    1.453   .     S
C530   C580    1.453   .     S
C531   C581    1.453   .     S
C532   C582    1.453   .     S
C533   C583    1.453   .     S
C534   C584    1.453   .     S
C535   C577    1.453   .     S
C536   C578    1.453   .     S
C537   C587    1.453   .     S
C538   C588    1.453   .     S
C539   C589    1.453   .     S
C540   C590    1.453   .     S
C541   C591    1.453   .     S
C542   C592    1.453   .     S
C543   C585    1.453   .     S
C544   C586    1.453   .     S
C545   C592    1.414   .     A
C545   C560    1.410   .     A
C545   C601    1.521   .     S
C546   C559    1.410   .     A
C546   C591    1.414   .     A
C546   C605    1.523   .     S
C547   C609    1.523   .     S
C547   C590    1.414   .     A
C547   C558    1.410   .     A
C548   C557    1.410   .     A
C548   C613    1.521   .     S
C548   C589    1.414   .     A
C549   C556    1.410   .     A
C549   C617    1.521   .     S
C549   C588    1.414   .     A
C550   C587    1.415   .     A
C550   C621    1.521   .     S
C550   C555    1.410   .     A
C551   C554    1.410   .     A
C551   C586    1.414   .     A
C551   C625    1.523   .     S
C552   C585    1.413   .     A
C552   C553    1.410   .     A
C552   C629    1.522   .     S
C553   C584    1.414   .     A
C553   C633    1.521   .     S
C554   C583    1.415   .     A
C554   C637    1.521   .     S
C555   C582    1.414   .     A
C555   C641    1.523   .     S
C556   C581    1.413   .     A
C556   C645    1.522   .     S
C557   C580    1.413   .     A
C557   C649    1.522   .     S
C558   C579    1.415   .     A
C558   C653    1.521   .     S
C559   C657    1.521   .     S
C559   C578    1.415   .     A
C560   C577    1.413   .     A
C560   C661    1.522   .     S
C561   C665    1.523   .     S
C561   C578    1.414   .     A
C561   C576    1.410   .     A
C562   C577    1.414   .     A
C562   C669    1.521   .     S
C562   C575    1.410   .     A
C563   C574    1.410   .     A
C563   C673    1.521   .     S
C563   C580    1.414   .     A
C564   C677    1.523   .     S
C564   C579    1.414   .     A
C564   C573    1.410   .     A
C565   C572    1.410   .     A
C565   C681    1.521   .     S
C565   C582    1.415   .     A
C566   C581    1.414   .     A
C566   C685    1.521   .     S
C566   C571    1.410   .     A
C567   C584    1.413   .     A
C567   C570    1.410   .     A
C567   C689    1.522   .     S
C568   C693    1.523   .     S
C568   C583    1.414   .     A
C568   C569    1.410   .     A
C569   C586    1.415   .     A
C569   C697    1.521   .     S
C570   C585    1.414   .     A
C570   C701    1.521   .     S
C571   C705    1.522   .     S
C571   C588    1.413   .     A
C572   C709    1.523   .     S
C572   C587    1.414   .     A
C573   C590    1.415   .     A
C573   C713    1.521   .     S
C574   C717    1.522   .     S
C574   C589    1.413   .     A
C575   C721    1.522   .     S
C575   C592    1.413   .     A
C576   C725    1.521   .     S
C576   C591    1.415   .     A
C593   C1237   1.414   1_545 A
C594   C1238   1.414   1_545 A
C599   C1247   1.414   1_545 A
C600   C1252   1.414   1_545 S
C601   H602    1.107   .     S
C601   H604    1.110   .     S
C601   H603    1.110   .     S
C605   H606    1.111   .     S
C605   H608    1.110   .     S
C605   H607    1.105   .     S
C609   H611    1.105   .     S
C609   H610    1.110   .     S
C609   H612    1.111   .     S
C613   H614    1.107   .     S
C613   H616    1.110   .     S
C613   H615    1.110   .     S
C617   H618    1.107   .     S
C617   H620    1.110   .     S
C617   H619    1.110   .     S
C621   H624    1.110   .     S
C621   H623    1.110   .     S
C621   H622    1.107   .     S
C625   H626    1.110   .     S
C625   H628    1.111   .     S
C625   H627    1.105   .     S
C629   H630    1.111   .     S
C629   H632    1.105   .     S
C629   H631    1.110   .     S
C633   H635    1.110   .     S
C633   H636    1.110   .     S
C633   H634    1.107   .     S
C637   H638    1.107   .     S
C637   H640    1.110   .     S
C637   H639    1.110   .     S
C641   H642    1.110   .     S
C641   H644    1.111   .     S
C641   H643    1.105   .     S
C645   H646    1.110   .     S
C645   H648    1.105   .     S
C645   H647    1.110   .     S
C649   H650    1.110   .     S
C649   H652    1.105   .     S
C649   H651    1.111   .     S
C653   H655    1.110   .     S
C653   H656    1.110   .     S
C653   H654    1.107   .     S
C657   H659    1.111   .     S
C657   H660    1.110   .     S
C657   H658    1.107   .     S
C661   H663    1.110   .     S
C661   H662    1.111   .     S
C661   H664    1.105   .     S
C665   H667    1.110   .     S
C665   H666    1.111   .     S
C665   H668    1.105   .     S
C669   H670    1.107   .     S
C669   H671    1.110   .     S
C669   H672    1.110   .     S
C673   H674    1.107   .     S
C673   H675    1.110   .     S
C673   H676    1.110   .     S
C677   H680    1.105   .     S
C677   H679    1.111   .     S
C677   H678    1.110   .     S
C681   H683    1.110   .     S
C681   H682    1.107   .     S
C681   H684    1.110   .     S
C685   H688    1.110   .     S
C685   H687    1.110   .     S
C685   H686    1.107   .     S
C689   H692    1.110   .     S
C689   H690    1.111   .     S
C689   H691    1.105   .     S
C693   H695    1.111   .     S
C693   H694    1.110   .     S
C693   H696    1.105   .     S
C697   H698    1.107   .     S
C697   H700    1.110   .     S
C697   H699    1.110   .     S
C701   H703    1.110   .     S
C701   H702    1.107   .     S
C701   H704    1.110   .     S
C705   H707    1.105   .     S
C705   H708    1.110   .     S
C705   H706    1.110   .     S
C709   H711    1.111   .     S
C709   H710    1.110   .     S
C709   H712    1.105   .     S
C713   H716    1.110   .     S
C713   H715    1.110   .     S
C713   H714    1.107   .     S
C717   H718    1.110   .     S
C717   H720    1.110   .     S
C717   H719    1.105   .     S
C721   H723    1.105   .     S
C721   H722    1.111   .     S
C721   H724    1.110   .     S
C725   H727    1.110   .     S
C725   H726    1.107   .     S
C725   H728    1.111   .     S
C729   H732    1.111   .     S
C729   H730    1.110   .     S
C729   H731    1.111   .     S
C733   H734    1.111   .     S
C733   H736    1.110   .     S
C733   H735    1.111   .     S
C737   H739    1.111   .     S
C737   H740    1.110   .     S
C737   H738    1.111   .     S
C741   H744    1.110   .     S
C741   H743    1.111   .     S
C741   H742    1.111   .     S
C745   H746    1.110   .     S
C745   H748    1.111   .     S
C745   H747    1.111   .     S
C749   H751    1.111   .     S
C749   H750    1.110   .     S
C749   H752    1.111   .     S
C753   H754    1.111   .     S
C753   H756    1.110   .     S
C753   H755    1.111   .     S
C757   H760    1.111   .     S
C757   H759    1.111   .     S
C757   H758    1.110   .     S
C761   H762    1.111   .     S
C761   H764    1.111   .     S
C761   H763    1.110   .     S
C765   H768    1.111   .     S
C765   H767    1.111   .     S
C765   H766    1.110   .     S
C769   H772    1.111   .     S
C769   H771    1.111   .     S
C769   H770    1.110   .     S
C773   H776    1.111   .     S
C773   H775    1.111   .     S
C773   H774    1.110   .     S
C777   H778    1.110   .     S
C777   H780    1.111   .     S
C777   H779    1.111   .     S
C781   H783    1.111   .     S
C781   H782    1.110   .     S
C781   H784    1.111   .     S
C785   H786    1.110   .     S
C785   H787    1.111   .     S
C785   H788    1.111   .     S
C789   H790    1.110   .     S
C789   H792    1.111   .     S
C789   H791    1.111   .     S
Zn793  O857    1.941   .     S
Zn793  O872    1.937   .     S
Zn793  O903    1.930   .     S
Zn794  O858    1.941   .     S
Zn794  O871    1.937   .     S
Zn794  O899    1.930   .     S
Zn795  O1297   1.931   1_455 S
Zn795  O859    1.940   .     S
Zn795  O874    1.937   .     S
Zn795  O894    1.931   .     S
Zn796  O860    1.940   .     S
Zn796  O873    1.937   .     S
Zn796  O902    1.931   .     S
Zn796  O1289   1.931   1_455 S
Zn797  O876    1.937   .     S
Zn797  O857    1.941   .     S
Zn797  O896    1.930   .     S
Zn798  O875    1.937   .     S
Zn798  O858    1.941   .     S
Zn798  O908    1.930   .     S
Zn799  O859    1.940   .     S
Zn799  O870    1.937   .     S
Zn799  O905    1.931   .     S
Zn799  O1294   1.931   1_455 S
Zn800  O897    1.931   .     S
Zn800  O869    1.937   .     S
Zn800  O860    1.940   .     S
Zn800  O1302   1.931   1_455 S
Zn801  O887    1.930   .     S
Zn801  O864    1.937   .     S
Zn801  O884    1.930   .     S
Zn801  O1256   1.941   .     S
Zn802  O863    1.937   .     S
Zn802  O883    1.930   .     S
Zn802  O859    1.941   .     S
Zn802  O888    1.930   .     S
Zn803  O878    1.931   .     S
Zn803  O866    1.937   .     S
Zn803  O885    1.931   .     S
Zn803  O66     1.940   1_565 S
Zn804  O865    1.937   .     S
Zn804  O886    1.931   .     S
Zn804  O877    1.931   .     S
Zn804  O857    1.940   .     S
Zn805  O891    1.930   .     S
Zn805  O860    1.941   .     S
Zn805  O868    1.937   .     S
Zn805  O880    1.930   .     S
Zn806  O892    1.930   .     S
Zn806  O867    1.937   .     S
Zn806  O879    1.930   .     S
Zn806  O1255   1.941   .     S
Zn807  O889    1.931   .     S
Zn807  O862    1.937   .     S
Zn807  O882    1.931   .     S
Zn807  O858    1.940   .     S
Zn808  O881    1.931   .     S
Zn808  O890    1.931   .     S
Zn808  O65     1.940   1_565 S
Zn808  O861    1.937   .     S
C809   C841    1.398   .     A
C809   C117    1.399   1_565 A
C809   H825    1.084   .     S
C810   H826    1.084   .     S
C810   C118    1.399   1_565 A
C810   C842    1.398   .     A
C811   H827    1.084   .     S
C811   C1307   1.399   .     A
C811   C843    1.398   .     A
C812   H828    1.084   .     S
C812   C844    1.398   .     A
C812   C912    1.399   .     S
C813   H829    1.084   .     S
C813   C845    1.398   .     A
C813   C909    1.399   .     S
C814   H830    1.084   .     S
C814   C846    1.398   .     A
C814   C910    1.399   .     S
C815   C847    1.398   .     A
C815   H831    1.084   .     S
C815   C911    1.399   .     S
C816   C1308   1.399   .     A
C816   C848    1.398   .     A
C816   H832    1.084   .     S
C817   C849    1.398   .     A
C817   H833    1.084   .     S
C817   C1309   1.399   .     A
C818   H834    1.084   .     S
C818   C850    1.398   .     A
C818   C914    1.399   .     S
C819   H835    1.084   .     S
C819   C123    1.399   1_565 A
C819   C851    1.398   .     A
C820   H836    1.084   .     S
C820   C852    1.398   .     A
C820   C916    1.399   .     S
C821   H837    1.084   .     S
C821   C853    1.398   .     A
C821   C913    1.399   .     S
C822   C1310   1.399   .     A
C822   H838    1.084   .     S
C822   C854    1.398   .     A
C823   C855    1.398   .     A
C823   H839    1.084   .     S
C823   C915    1.399   .     S
C824   C856    1.398   .     A
C824   H840    1.084   .     S
C824   C124    1.399   1_565 A
C841   C1125   1.509   .     S
C841   C197    1.414   1_565 A
C842   C198    1.414   1_565 A
C842   C1129   1.509   .     S
C843   C1133   1.509   .     S
C843   C1387   1.414   .     A
C844   C1137   1.509   .     S
C844   C992    1.414   .     S
C845   C1141   1.509   .     S
C845   C989    1.414   .     S
C846   C1145   1.509   .     S
C846   C990    1.414   .     S
C847   C1149   1.509   .     S
C847   C991    1.414   .     S
C848   C1388   1.414   .     A
C848   C1153   1.509   .     S
C849   C1389   1.414   .     A
C849   C1157   1.509   .     S
C850   C1161   1.509   .     S
C850   C994    1.414   .     S
C851   C1165   1.509   .     S
C851   C203    1.414   1_565 A
C852   C996    1.414   .     A
C852   C1169   1.509   .     S
C853   C1173   1.509   .     S
C853   C993    1.414   .     S
C854   C1177   1.509   .     S
C854   C1390   1.414   .     A
C855   C1181   1.509   .     S
C855   C995    1.414   .     S
C856   C1185   1.509   .     S
C856   C204    1.414   1_565 S
O859   Zn1202  1.941   1_455 S
O860   Zn1197  1.941   1_455 S
O861   C125    1.276   1_565 S
O862   C918    1.276   .     S
O863   C919    1.277   .     A
O864   C1316   1.277   .     A
O865   C917    1.276   .     A
O866   C126    1.276   1_565 A
O867   C1315   1.277   .     S
O868   C920    1.277   .     S
O869   C921    1.276   .     A
O870   C922    1.276   .     S
O871   C923    1.277   .     A
O872   C924    1.277   .     A
O873   C921    1.276   .     A
O874   C922    1.276   .     S
O875   C923    1.277   .     A
O876   C924    1.277   .     A
O877   C925    1.273   .     A
O878   C926    1.274   .     A
O879   C927    1.274   .     A
O880   C928    1.275   .     A
O881   C929    1.273   .     A
O882   C930    1.274   .     A
O883   C931    1.274   .     A
O884   C932    1.275   .     A
O885   C933    1.273   .     A
O886   C934    1.274   .     A
O887   C935    1.274   .     A
O888   C936    1.275   .     A
O889   C937    1.273   .     A
O890   C938    1.274   .     A
O891   C939    1.274   .     A
O892   C940    1.275   .     A
O893   C935    1.274   .     A
O893   Zn1192  1.931   .     S
O894   C936    1.273   .     A
O895   C933    1.275   .     A
O895   Zn6     1.930   1_565 S
O896   C934    1.274   .     A
O897   C939    1.274   .     A
O898   C940    1.273   .     A
O898   Zn1195  1.931   .     S
O899   C937    1.275   .     A
O900   C938    1.274   .     A
O900   Zn1     1.930   1_565 S
O901   C927    1.274   .     A
O901   Zn1191  1.931   .     S
O902   C928    1.273   .     A
O903   C925    1.275   .     A
O904   Zn2     1.930   1_565 S
O904   C926    1.274   .     A
O905   C931    1.274   .     A
O906   C932    1.273   .     A
O906   Zn1196  1.931   .     S
O907   C929    1.275   .     A
O907   Zn5     1.930   1_565 S
O908   C930    1.274   .     A
C909   C910    1.468   1_554 S
C910   C909    1.468   1_556 S
C911   C1207   1.399   1_455 A
C911   C912    1.469   1_554 S
C912   C1212   1.399   1_455 A
C912   C911    1.469   1_556 S
C913   C1213   1.399   1_455 A
C913   C914    1.468   .     S
C914   C1218   1.399   1_455 A
C915   C916    1.469   .     S
C917   C996    1.461   .     S
C918   C995    1.461   .     S
C919   O1263   1.277   1_455 S
C919   C994    1.462   .     S
C920   O1260   1.277   1_455 A
C920   C993    1.462   .     S
C921   C992    1.461   .     S
C922   C991    1.461   .     S
C923   C990    1.462   .     S
C924   C989    1.462   .     S
C925   C975    1.453   .     S
C926   C976    1.453   .     S
C927   C977    1.453   .     S
C928   C978    1.453   .     S
C929   C979    1.453   .     S
C930   C980    1.453   .     S
C931   C973    1.453   .     S
C932   C974    1.453   .     S
C933   C983    1.453   .     S
C934   C984    1.453   .     S
C935   C985    1.453   .     S
C936   C986    1.453   .     S
C937   C987    1.453   .     S
C938   C988    1.453   .     S
C939   C981    1.453   .     S
C940   C982    1.453   .     S
C941   C988    1.414   .     A
C941   C956    1.410   .     A
C941   C997    1.521   .     S
C942   C955    1.410   .     A
C942   C987    1.414   .     A
C942   C1001   1.523   .     S
C943   C1005   1.523   .     S
C943   C986    1.414   .     A
C943   C954    1.410   .     A
C944   C953    1.410   .     A
C944   C1009   1.521   .     S
C944   C985    1.414   .     A
C945   C952    1.410   .     A
C945   C1013   1.521   .     S
C945   C984    1.414   .     A
C946   C983    1.415   .     A
C946   C1017   1.521   .     S
C946   C951    1.410   .     A
C947   C950    1.410   .     A
C947   C982    1.414   .     A
C947   C1021   1.523   .     S
C948   C981    1.413   .     A
C948   C949    1.410   .     A
C948   C1025   1.522   .     S
C949   C980    1.414   .     A
C949   C1029   1.521   .     S
C950   C979    1.415   .     A
C950   C1033   1.521   .     S
C951   C978    1.414   .     A
C951   C1037   1.523   .     S
C952   C977    1.413   .     A
C952   C1041   1.522   .     S
C953   C976    1.413   .     A
C953   C1045   1.522   .     S
C954   C975    1.415   .     A
C954   C1049   1.521   .     S
C955   C1053   1.521   .     S
C955   C974    1.415   .     A
C956   C973    1.413   .     A
C956   C1057   1.522   .     S
C957   C1061   1.523   .     S
C957   C974    1.414   .     A
C957   C972    1.410   .     A
C958   C973    1.414   .     A
C958   C1065   1.521   .     S
C958   C971    1.410   .     A
C959   C970    1.410   .     A
C959   C1069   1.521   .     S
C959   C976    1.414   .     A
C960   C1073   1.523   .     S
C960   C975    1.414   .     A
C960   C969    1.410   .     A
C961   C968    1.410   .     A
C961   C1077   1.521   .     S
C961   C978    1.415   .     A
C962   C977    1.414   .     A
C962   C1081   1.521   .     S
C962   C967    1.410   .     A
C963   C980    1.413   .     A
C963   C966    1.410   .     A
C963   C1085   1.522   .     S
C964   C1089   1.523   .     S
C964   C979    1.414   .     A
C964   C965    1.410   .     A
C965   C982    1.415   .     A
C965   C1093   1.521   .     S
C966   C981    1.414   .     A
C966   C1097   1.521   .     S
C967   C1101   1.522   .     S
C967   C984    1.413   .     A
C968   C1105   1.523   .     S
C968   C983    1.414   .     A
C969   C986    1.415   .     A
C969   C1109   1.521   .     S
C970   C1113   1.522   .     S
C970   C985    1.413   .     A
C971   C1117   1.522   .     S
C971   C988    1.413   .     A
C972   C1121   1.521   .     S
C972   C987    1.415   .     A
C991   C1239   1.414   1_455 A
C992   C1244   1.414   1_455 A
C993   C1245   1.414   1_455 A
C994   C1250   1.414   1_455 A
C997   H998    1.107   .     S
C997   H1000   1.110   .     S
C997   H999    1.110   .     S
C1001  H1002   1.111   .     S
C1001  H1004   1.110   .     S
C1001  H1003   1.105   .     S
C1005  H1007   1.105   .     S
C1005  H1006   1.110   .     S
C1005  H1008   1.111   .     S
C1009  H1010   1.107   .     S
C1009  H1012   1.110   .     S
C1009  H1011   1.110   .     S
C1013  H1014   1.107   .     S
C1013  H1016   1.110   .     S
C1013  H1015   1.110   .     S
C1017  H1020   1.110   .     S
C1017  H1019   1.110   .     S
C1017  H1018   1.107   .     S
C1021  H1022   1.110   .     S
C1021  H1024   1.111   .     S
C1021  H1023   1.105   .     S
C1025  H1026   1.111   .     S
C1025  H1028   1.105   .     S
C1025  H1027   1.110   .     S
C1029  H1031   1.110   .     S
C1029  H1032   1.110   .     S
C1029  H1030   1.107   .     S
C1033  H1034   1.107   .     S
C1033  H1036   1.110   .     S
C1033  H1035   1.110   .     S
C1037  H1038   1.110   .     S
C1037  H1040   1.111   .     S
C1037  H1039   1.105   .     S
C1041  H1042   1.110   .     S
C1041  H1044   1.105   .     S
C1041  H1043   1.110   .     S
C1045  H1046   1.110   .     S
C1045  H1048   1.105   .     S
C1045  H1047   1.111   .     S
C1049  H1051   1.110   .     S
C1049  H1052   1.110   .     S
C1049  H1050   1.107   .     S
C1053  H1055   1.111   .     S
C1053  H1056   1.110   .     S
C1053  H1054   1.107   .     S
C1057  H1059   1.110   .     S
C1057  H1058   1.111   .     S
C1057  H1060   1.105   .     S
C1061  H1063   1.110   .     S
C1061  H1062   1.111   .     S
C1061  H1064   1.105   .     S
C1065  H1066   1.107   .     S
C1065  H1067   1.110   .     S
C1065  H1068   1.110   .     S
C1069  H1070   1.107   .     S
C1069  H1071   1.110   .     S
C1069  H1072   1.110   .     S
C1073  H1076   1.105   .     S
C1073  H1075   1.111   .     S
C1073  H1074   1.110   .     S
C1077  H1079   1.110   .     S
C1077  H1078   1.107   .     S
C1077  H1080   1.110   .     S
C1081  H1084   1.110   .     S
C1081  H1083   1.110   .     S
C1081  H1082   1.107   .     S
C1085  H1088   1.110   .     S
C1085  H1086   1.111   .     S
C1085  H1087   1.105   .     S
C1089  H1091   1.111   .     S
C1089  H1090   1.110   .     S
C1089  H1092   1.105   .     S
C1093  H1094   1.107   .     S
C1093  H1096   1.110   .     S
C1093  H1095   1.110   .     S
C1097  H1099   1.110   .     S
C1097  H1098   1.107   .     S
C1097  H1100   1.110   .     S
C1101  H1103   1.105   .     S
C1101  H1104   1.110   .     S
C1101  H1102   1.110   .     S
C1105  H1107   1.111   .     S
C1105  H1106   1.110   .     S
C1105  H1108   1.105   .     S
C1109  H1112   1.110   .     S
C1109  H1111   1.110   .     S
C1109  H1110   1.107   .     S
C1113  H1114   1.110   .     S
C1113  H1116   1.110   .     S
C1113  H1115   1.105   .     S
C1117  H1119   1.105   .     S
C1117  H1118   1.111   .     S
C1117  H1120   1.110   .     S
C1121  H1123   1.110   .     S
C1121  H1122   1.107   .     S
C1121  H1124   1.111   .     S
C1125  H1128   1.111   .     S
C1125  H1126   1.110   .     S
C1125  H1127   1.111   .     S
C1129  H1130   1.111   .     S
C1129  H1132   1.110   .     S
C1129  H1131   1.111   .     S
C1133  H1135   1.111   .     S
C1133  H1136   1.110   .     S
C1133  H1134   1.111   .     S
C1137  H1140   1.110   .     S
C1137  H1139   1.111   .     S
C1137  H1138   1.111   .     S
C1141  H1142   1.110   .     S
C1141  H1144   1.111   .     S
C1141  H1143   1.111   .     S
C1145  H1147   1.111   .     S
C1145  H1146   1.110   .     S
C1145  H1148   1.111   .     S
C1149  H1150   1.111   .     S
C1149  H1152   1.110   .     S
C1149  H1151   1.111   .     S
C1153  H1156   1.111   .     S
C1153  H1155   1.111   .     S
C1153  H1154   1.110   .     S
C1157  H1158   1.111   .     S
C1157  H1160   1.111   .     S
C1157  H1159   1.110   .     S
C1161  H1164   1.111   .     S
C1161  H1163   1.111   .     S
C1161  H1162   1.110   .     S
C1165  H1168   1.111   .     S
C1165  H1167   1.111   .     S
C1165  H1166   1.110   .     S
C1169  H1172   1.111   .     S
C1169  H1171   1.111   .     S
C1169  H1170   1.110   .     S
C1173  H1174   1.110   .     S
C1173  H1176   1.111   .     S
C1173  H1175   1.111   .     S
C1177  H1179   1.111   .     S
C1177  H1178   1.110   .     S
C1177  H1180   1.111   .     S
C1181  H1182   1.110   .     S
C1181  H1183   1.111   .     S
C1181  H1184   1.111   .     S
C1185  H1186   1.110   .     S
C1185  H1188   1.111   .     S
C1185  H1187   1.111   .     S
Zn1189 O1253   1.941   .     S
Zn1189 O1268   1.937   .     S
Zn1189 O1299   1.930   .     S
Zn1190 O1254   1.941   .     S
Zn1190 O1267   1.937   .     S
Zn1190 O1295   1.930   .     S
Zn1191 O1255   1.940   .     S
Zn1191 O1270   1.937   .     S
Zn1191 O1290   1.931   .     S
Zn1192 O1256   1.940   .     S
Zn1192 O1269   1.937   .     S
Zn1192 O1298   1.931   .     S
Zn1193 O1272   1.937   .     S
Zn1193 O1253   1.941   .     S
Zn1193 O1292   1.930   .     S
Zn1194 O1271   1.937   .     S
Zn1194 O1254   1.941   .     S
Zn1194 O1304   1.930   .     S
Zn1195 O1255   1.940   .     S
Zn1195 O1266   1.937   .     S
Zn1195 O1301   1.931   .     S
Zn1196 O1293   1.931   .     S
Zn1196 O1265   1.937   .     S
Zn1196 O1256   1.940   .     S
Zn1197 O1283   1.930   .     S
Zn1197 O1260   1.937   .     S
Zn1197 O1280   1.930   .     S
Zn1197 O860    1.941   1_655 S
Zn1198 O1259   1.937   .     S
Zn1198 O1279   1.930   .     S
Zn1198 O1255   1.941   .     S
Zn1198 O1284   1.930   .     S
Zn1199 O1274   1.931   .     S
Zn1199 O1262   1.937   .     S
Zn1199 O1281   1.931   .     S
Zn1199 O462    1.940   1_565 S
Zn1200 O1261   1.937   .     S
Zn1200 O1282   1.931   .     S
Zn1200 O1273   1.931   .     S
Zn1200 O1253   1.940   .     S
Zn1201 O1287   1.930   .     S
Zn1201 O1256   1.941   .     S
Zn1201 O1264   1.937   .     S
Zn1201 O1276   1.930   .     S
Zn1202 O1288   1.930   .     S
Zn1202 O1263   1.937   .     S
Zn1202 O1275   1.930   .     S
Zn1202 O859    1.941   1_655 S
Zn1203 O1285   1.931   .     S
Zn1203 O1258   1.937   .     S
Zn1203 O1278   1.931   .     S
Zn1203 O1254   1.940   .     S
Zn1204 O1277   1.931   .     S
Zn1204 O1286   1.931   .     S
Zn1204 O461    1.940   1_565 S
Zn1204 O1257   1.937   .     S
C1205  C1237   1.398   .     A
C1205  C513    1.399   1_565 A
C1205  H1221   1.084   .     S
C1206  H1222   1.084   .     S
C1206  C514    1.399   1_565 A
C1206  C1238   1.398   .     A
C1207  H1223   1.084   .     S
C1207  C911    1.399   1_655 A
C1207  C1239   1.398   .     A
C1208  H1224   1.084   .     S
C1208  C1240   1.398   .     A
C1208  C1308   1.399   .     S
C1209  H1225   1.084   .     S
C1209  C1241   1.398   .     A
C1209  C1305   1.399   .     S
C1210  H1226   1.084   .     S
C1210  C1242   1.398   .     A
C1210  C1306   1.399   .     S
C1211  C1243   1.398   .     A
C1211  H1227   1.084   .     S
C1211  C1307   1.399   .     S
C1212  C912    1.399   1_655 A
C1212  C1244   1.398   .     A
C1212  H1228   1.084   .     S
C1213  C1245   1.398   .     A
C1213  H1229   1.084   .     S
C1213  C913    1.399   1_655 A
C1214  H1230   1.084   .     S
C1214  C1246   1.398   .     A
C1214  C1310   1.399   .     S
C1215  H1231   1.084   .     S
C1215  C519    1.399   1_565 A
C1215  C1247   1.398   .     A
C1216  H1232   1.084   .     S
C1216  C1248   1.398   .     A
C1216  C1312   1.399   .     S
C1217  H1233   1.084   .     S
C1217  C1249   1.398   .     A
C1217  C1309   1.399   .     S
C1218  C914    1.399   1_655 A
C1218  H1234   1.084   .     S
C1218  C1250   1.398   .     A
C1219  C1251   1.398   .     A
C1219  H1235   1.084   .     S
C1219  C1311   1.399   .     S
C1220  C1252   1.398   .     A
C1220  H1236   1.084   .     S
C1220  C520    1.399   1_565 A
C1237  C1521   1.509   .     S
C1237  C593    1.414   1_565 A
C1238  C594    1.414   1_565 A
C1238  C1525   1.509   .     S
C1239  C1529   1.509   .     S
C1239  C991    1.414   1_655 A
C1240  C1533   1.509   .     S
C1240  C1388   1.414   .     S
C1241  C1537   1.509   .     S
C1241  C1385   1.414   .     S
C1242  C1541   1.509   .     S
C1242  C1386   1.414   .     S
C1243  C1545   1.509   .     S
C1243  C1387   1.414   .     S
C1244  C992    1.414   1_655 A
C1244  C1549   1.509   .     S
C1245  C993    1.414   1_655 A
C1245  C1553   1.509   .     S
C1246  C1557   1.509   .     S
C1246  C1390   1.414   .     S
C1247  C1561   1.509   .     S
C1247  C599    1.414   1_565 A
C1248  C1392   1.414   .     A
C1248  C1565   1.509   .     S
C1249  C1569   1.509   .     S
C1249  C1389   1.414   .     S
C1250  C1573   1.509   .     S
C1250  C994    1.414   1_655 A
C1251  C1577   1.509   .     S
C1251  C1391   1.414   .     S
C1252  C1581   1.509   .     S
C1252  C600    1.414   1_565 S
O1257  C521    1.276   1_565 S
O1258  C1314   1.276   .     S
O1259  C1315   1.277   .     A
O1260  C920    1.277   1_655 A
O1261  C1313   1.276   .     A
O1262  C522    1.276   1_565 A
O1263  C919    1.277   1_655 S
O1264  C1316   1.277   .     S
O1265  C1317   1.276   .     A
O1266  C1318   1.276   .     S
O1267  C1319   1.277   .     A
O1268  C1320   1.277   .     A
O1269  C1317   1.276   .     A
O1270  C1318   1.276   .     S
O1271  C1319   1.277   .     A
O1272  C1320   1.277   .     A
O1273  C1321   1.273   .     A
O1274  C1322   1.274   .     A
O1275  C1323   1.274   .     A
O1276  C1324   1.275   .     A
O1277  C1325   1.273   .     A
O1278  C1326   1.274   .     A
O1279  C1327   1.274   .     A
O1280  C1328   1.275   .     A
O1281  C1329   1.273   .     A
O1282  C1330   1.274   .     A
O1283  C1331   1.274   .     A
O1284  C1332   1.275   .     A
O1285  C1333   1.273   .     A
O1286  C1334   1.274   .     A
O1287  C1335   1.274   .     A
O1288  C1336   1.275   .     A
O1289  C1331   1.274   .     A
O1289  Zn796   1.931   1_655 S
O1290  C1332   1.273   .     A
O1291  C1329   1.275   .     A
O1291  Zn402   1.930   1_565 S
O1292  C1330   1.274   .     A
O1293  C1335   1.274   .     A
O1294  C1336   1.273   .     A
O1294  Zn799   1.931   1_655 S
O1295  C1333   1.275   .     A
O1296  C1334   1.274   .     A
O1296  Zn397   1.930   1_565 S
O1297  C1323   1.274   .     A
O1297  Zn795   1.931   1_655 S
O1298  C1324   1.273   .     A
O1299  C1321   1.275   .     A
O1300  Zn398   1.930   1_565 S
O1300  C1322   1.274   .     A
O1301  C1327   1.274   .     A
O1302  C1328   1.273   .     A
O1302  Zn800   1.931   1_655 S
O1303  C1325   1.275   .     A
O1303  Zn401   1.930   1_565 S
O1304  C1326   1.274   .     A
C1305  C1306   1.468   1_554 S
C1306  C1305   1.468   1_556 S
C1307  C1308   1.469   1_554 S
C1308  C1307   1.469   1_556 S
C1309  C1310   1.468   .     S
C1311  C1312   1.469   .     S
C1313  C1392   1.461   .     S
C1314  C1391   1.461   .     S
C1315  C1390   1.462   .     S
C1316  C1389   1.462   .     S
C1317  C1388   1.461   .     S
C1318  C1387   1.461   .     S
C1319  C1386   1.462   .     S
C1320  C1385   1.462   .     S
C1321  C1371   1.453   .     S
C1322  C1372   1.453   .     S
C1323  C1373   1.453   .     S
C1324  C1374   1.453   .     S
C1325  C1375   1.453   .     S
C1326  C1376   1.453   .     S
C1327  C1369   1.453   .     S
C1328  C1370   1.453   .     S
C1329  C1379   1.453   .     S
C1330  C1380   1.453   .     S
C1331  C1381   1.453   .     S
C1332  C1382   1.453   .     S
C1333  C1383   1.453   .     S
C1334  C1384   1.453   .     S
C1335  C1377   1.453   .     S
C1336  C1378   1.453   .     S
C1337  C1384   1.414   .     A
C1337  C1352   1.410   .     A
C1337  C1393   1.521   .     S
C1338  C1351   1.410   .     A
C1338  C1383   1.414   .     A
C1338  C1397   1.523   .     S
C1339  C1401   1.523   .     S
C1339  C1382   1.414   .     A
C1339  C1350   1.410   .     A
C1340  C1349   1.410   .     A
C1340  C1405   1.521   .     S
C1340  C1381   1.414   .     A
C1341  C1348   1.410   .     A
C1341  C1409   1.521   .     S
C1341  C1380   1.414   .     A
C1342  C1379   1.415   .     A
C1342  C1413   1.521   .     S
C1342  C1347   1.410   .     A
C1343  C1346   1.410   .     A
C1343  C1378   1.414   .     A
C1343  C1417   1.523   .     S
C1344  C1377   1.413   .     A
C1344  C1345   1.410   .     A
C1344  C1421   1.522   .     S
C1345  C1376   1.414   .     A
C1345  C1425   1.521   .     S
C1346  C1375   1.415   .     A
C1346  C1429   1.521   .     S
C1347  C1374   1.414   .     A
C1347  C1433   1.523   .     S
C1348  C1373   1.413   .     A
C1348  C1437   1.522   .     S
C1349  C1372   1.413   .     A
C1349  C1441   1.522   .     S
C1350  C1371   1.415   .     A
C1350  C1445   1.521   .     S
C1351  C1449   1.521   .     S
C1351  C1370   1.415   .     A
C1352  C1369   1.413   .     A
C1352  C1453   1.522   .     S
C1353  C1457   1.523   .     S
C1353  C1370   1.414   .     A
C1353  C1368   1.410   .     A
C1354  C1369   1.414   .     A
C1354  C1461   1.521   .     S
C1354  C1367   1.410   .     A
C1355  C1366   1.410   .     A
C1355  C1465   1.521   .     S
C1355  C1372   1.414   .     A
C1356  C1469   1.523   .     S
C1356  C1371   1.414   .     A
C1356  C1365   1.410   .     A
C1357  C1364   1.410   .     A
C1357  C1473   1.521   .     S
C1357  C1374   1.415   .     A
C1358  C1373   1.414   .     A
C1358  C1477   1.521   .     S
C1358  C1363   1.410   .     A
C1359  C1376   1.413   .     A
C1359  C1362   1.410   .     A
C1359  C1481   1.522   .     S
C1360  C1485   1.523   .     S
C1360  C1375   1.414   .     A
C1360  C1361   1.410   .     A
C1361  C1378   1.415   .     A
C1361  C1489   1.521   .     S
C1362  C1377   1.414   .     A
C1362  C1493   1.521   .     S
C1363  C1497   1.522   .     S
C1363  C1380   1.413   .     A
C1364  C1501   1.523   .     S
C1364  C1379   1.414   .     A
C1365  C1382   1.415   .     A
C1365  C1505   1.521   .     S
C1366  C1509   1.522   .     S
C1366  C1381   1.413   .     A
C1367  C1513   1.522   .     S
C1367  C1384   1.413   .     A
C1368  C1517   1.521   .     S
C1368  C1383   1.415   .     A
C1393  H1394   1.107   .     S
C1393  H1396   1.110   .     S
C1393  H1395   1.110   .     S
C1397  H1398   1.111   .     S
C1397  H1400   1.110   .     S
C1397  H1399   1.105   .     S
C1401  H1403   1.105   .     S
C1401  H1402   1.110   .     S
C1401  H1404   1.111   .     S
C1405  H1406   1.107   .     S
C1405  H1408   1.110   .     S
C1405  H1407   1.110   .     S
C1409  H1410   1.107   .     S
C1409  H1412   1.110   .     S
C1409  H1411   1.110   .     S
C1413  H1416   1.110   .     S
C1413  H1415   1.110   .     S
C1413  H1414   1.107   .     S
C1417  H1418   1.110   .     S
C1417  H1420   1.111   .     S
C1417  H1419   1.105   .     S
C1421  H1422   1.111   .     S
C1421  H1424   1.105   .     S
C1421  H1423   1.110   .     S
C1425  H1427   1.110   .     S
C1425  H1428   1.110   .     S
C1425  H1426   1.107   .     S
C1429  H1430   1.107   .     S
C1429  H1432   1.110   .     S
C1429  H1431   1.110   .     S
C1433  H1434   1.110   .     S
C1433  H1436   1.111   .     S
C1433  H1435   1.105   .     S
C1437  H1438   1.110   .     S
C1437  H1440   1.105   .     S
C1437  H1439   1.110   .     S
C1441  H1442   1.110   .     S
C1441  H1444   1.105   .     S
C1441  H1443   1.111   .     S
C1445  H1447   1.110   .     S
C1445  H1448   1.110   .     S
C1445  H1446   1.107   .     S
C1449  H1451   1.111   .     S
C1449  H1452   1.110   .     S
C1449  H1450   1.107   .     S
C1453  H1455   1.110   .     S
C1453  H1454   1.111   .     S
C1453  H1456   1.105   .     S
C1457  H1459   1.110   .     S
C1457  H1458   1.111   .     S
C1457  H1460   1.105   .     S
C1461  H1462   1.107   .     S
C1461  H1463   1.110   .     S
C1461  H1464   1.110   .     S
C1465  H1466   1.107   .     S
C1465  H1467   1.110   .     S
C1465  H1468   1.110   .     S
C1469  H1472   1.105   .     S
C1469  H1471   1.111   .     S
C1469  H1470   1.110   .     S
C1473  H1475   1.110   .     S
C1473  H1474   1.107   .     S
C1473  H1476   1.110   .     S
C1477  H1480   1.110   .     S
C1477  H1479   1.110   .     S
C1477  H1478   1.107   .     S
C1481  H1484   1.110   .     S
C1481  H1482   1.111   .     S
C1481  H1483   1.105   .     S
C1485  H1487   1.111   .     S
C1485  H1486   1.110   .     S
C1485  H1488   1.105   .     S
C1489  H1490   1.107   .     S
C1489  H1492   1.110   .     S
C1489  H1491   1.110   .     S
C1493  H1495   1.110   .     S
C1493  H1494   1.107   .     S
C1493  H1496   1.110   .     S
C1497  H1499   1.105   .     S
C1497  H1500   1.110   .     S
C1497  H1498   1.110   .     S
C1501  H1503   1.111   .     S
C1501  H1502   1.110   .     S
C1501  H1504   1.105   .     S
C1505  H1508   1.110   .     S
C1505  H1507   1.110   .     S
C1505  H1506   1.107   .     S
C1509  H1510   1.110   .     S
C1509  H1512   1.110   .     S
C1509  H1511   1.105   .     S
C1513  H1515   1.105   .     S
C1513  H1514   1.111   .     S
C1513  H1516   1.110   .     S
C1517  H1519   1.110   .     S
C1517  H1518   1.107   .     S
C1517  H1520   1.111   .     S
C1521  H1524   1.111   .     S
C1521  H1522   1.110   .     S
C1521  H1523   1.111   .     S
C1525  H1526   1.111   .     S
C1525  H1528   1.110   .     S
C1525  H1527   1.111   .     S
C1529  H1531   1.111   .     S
C1529  H1532   1.110   .     S
C1529  H1530   1.111   .     S
C1533  H1536   1.110   .     S
C1533  H1535   1.111   .     S
C1533  H1534   1.111   .     S
C1537  H1538   1.110   .     S
C1537  H1540   1.111   .     S
C1537  H1539   1.111   .     S
C1541  H1543   1.111   .     S
C1541  H1542   1.110   .     S
C1541  H1544   1.111   .     S
C1545  H1546   1.111   .     S
C1545  H1548   1.110   .     S
C1545  H1547   1.111   .     S
C1549  H1552   1.111   .     S
C1549  H1551   1.111   .     S
C1549  H1550   1.110   .     S
C1553  H1554   1.111   .     S
C1553  H1556   1.111   .     S
C1553  H1555   1.110   .     S
C1557  H1560   1.111   .     S
C1557  H1559   1.111   .     S
C1557  H1558   1.110   .     S
C1561  H1564   1.111   .     S
C1561  H1563   1.111   .     S
C1561  H1562   1.110   .     S
C1565  H1568   1.111   .     S
C1565  H1567   1.111   .     S
C1565  H1566   1.110   .     S
C1569  H1570   1.110   .     S
C1569  H1572   1.111   .     S
C1569  H1571   1.111   .     S
C1573  H1575   1.111   .     S
C1573  H1574   1.110   .     S
C1573  H1576   1.111   .     S
C1577  H1578   1.110   .     S
C1577  H1579   1.111   .     S
C1577  H1580   1.111   .     S
C1581  H1582   1.110   .     S
C1581  H1584   1.111   .     S
C1581  H1583   1.111   .     S
