data_str_m3_o2_o10_pcu_sym.123
_audit_creation_date              2020-01-03
_audit_creation_method            'Materials Studio'
_symmetry_space_group_name_H-M    'P1'
_symmetry_Int_Tables_number       1
_symmetry_cell_setting            triclinic
loop_
_symmetry_equiv_pos_as_xyz
  x,y,z
_cell_length_a                    25.1180
_cell_length_b                    30.0257
_cell_length_c                    28.2954
_cell_angle_alpha                 90.0037
_cell_angle_beta                  98.8604
_cell_angle_gamma                 89.9986
loop_
_atom_site_label
_atom_site_type_symbol
_atom_site_fract_x
_atom_site_fract_y
_atom_site_fract_z
_atom_site_U_iso_or_equiv
_atom_site_adp_type
_atom_site_occupancy
C1     C     0.16667   0.16385   0.25000   0.00000  Uiso   1.00
C2     C     0.16666   0.33613   0.25000   0.00000  Uiso   1.00
C3     C     0.15142   0.21193   0.05038   0.00000  Uiso   1.00
C4     C     0.15113   0.28797   0.44543   0.00000  Uiso   1.00
C5     C     0.15159   0.21267   0.10008   0.00000  Uiso   1.00
C6     C     0.15123   0.28723   0.39575   0.00000  Uiso   1.00
C7     C     0.18209   0.28721   0.10426   0.00000  Uiso   1.00
C8     C     0.18174   0.21269   0.39991   0.00000  Uiso   1.00
C9     C     0.18219   0.28796   0.05459   0.00000  Uiso   1.00
C10    C     0.18192   0.21194   0.44961   0.00000  Uiso   1.00
C11    C     0.16671   0.24997   0.02664   0.00000  Uiso   1.00
C12    C     0.16662   0.24997   0.47336   0.00000  Uiso   1.00
C13    C     0.06764   0.24163   0.23769   0.00000  Uiso   1.00
C14    C     0.26569   0.24164   0.26231   0.00000  Uiso   1.00
C15    C     0.01343   0.22366   0.23109   0.00000  Uiso   1.00
C16    C     0.31990   0.22366   0.26892   0.00000  Uiso   1.00
C17    C     0.18514   0.04706   0.29236   0.00000  Uiso   1.00
C18    C     0.18592   0.45296   0.21308   0.00000  Uiso   1.00
C19    C     0.18482   0.09303   0.29244   0.00000  Uiso   1.00
C20    C     0.18562   0.40698   0.21292   0.00000  Uiso   1.00
C21    C     0.16667   0.11600   0.25000   0.00000  Uiso   1.00
C22    C     0.16666   0.38401   0.25000   0.00000  Uiso   1.00
C23    C     0.14852   0.09303   0.20756   0.00000  Uiso   1.00
C24    C     0.14771   0.40699   0.28708   0.00000  Uiso   1.00
C25    C     0.14819   0.04706   0.20764   0.00000  Uiso   1.00
C26    C     0.14740   0.45297   0.28692   0.00000  Uiso   1.00
C27    C     0.16666   0.02406   0.25000   0.00000  Uiso   1.00
C28    C     0.16666   0.47596   0.25000   0.00000  Uiso   1.00
H29    H     0.20021   0.02948   0.32513   0.00000  Uiso   1.00
H30    H     0.20160   0.47055   0.18475   0.00000  Uiso   1.00
H31    H     0.19936   0.11054   0.32538   0.00000  Uiso   1.00
H32    H     0.20083   0.38945   0.18430   0.00000  Uiso   1.00
H33    H     0.13398   0.11053   0.17462   0.00000  Uiso   1.00
H34    H     0.13249   0.38946   0.31569   0.00000  Uiso   1.00
H35    H     0.13312   0.02947   0.17487   0.00000  Uiso   1.00
H36    H     0.13172   0.47056   0.31525   0.00000  Uiso   1.00
H37    H     0.13858   0.18193   0.03065   0.00000  Uiso   1.00
H38    H     0.13818   0.31792   0.46167   0.00000  Uiso   1.00
H39    H     0.13956   0.18322   0.11764   0.00000  Uiso   1.00
H40    H     0.13872   0.31655   0.37478   0.00000  Uiso   1.00
H41    H     0.19461   0.31653   0.12523   0.00000  Uiso   1.00
H42    H     0.19378   0.18324   0.38234   0.00000  Uiso   1.00
H43    H     0.19514   0.31791   0.03835   0.00000  Uiso   1.00
H44    H     0.19475   0.18194   0.46933   0.00000  Uiso   1.00
N45    N     0.16667   0.24999   0.12624   0.00000  Uiso   1.00
N46    N     0.16667   0.25001   0.37377   0.00000  Uiso   1.00
O47    O     0.16667   0.18454   0.28974   0.00000  Uiso   1.00
O48    O     0.16666   0.31547   0.21026   0.00000  Uiso   1.00
O49    O     0.16667   0.18453   0.21026   0.00000  Uiso   1.00
O50    O     0.16666   0.31547   0.28974   0.00000  Uiso   1.00
O51    O     0.09058   0.25000   0.28045   0.00000  Uiso   1.00
O52    O     0.24275   0.25000   0.21956   0.00000  Uiso   1.00
O53    O     0.09058   0.25000   0.20097   0.00000  Uiso   1.00
O54    O     0.24275   0.25001   0.29904   0.00000  Uiso   1.00
Zn55   Zn    0.16667   0.25001   0.30307   0.00000  Uiso   1.00
Zn56   Zn    0.16667   0.25000   0.19693   0.00000  Uiso   1.00
C57    C     0.32242   0.20513   0.18223   0.00000  Uiso   1.00
C58    C     0.02200   0.16603   0.16764   0.00000  Uiso   1.00
H59    H     0.06217   0.17711   0.16085   0.00000  Uiso   1.00
H60    H     0.02709   0.14019   0.19610   0.00000  Uiso   1.00
H61    H     0.00068   0.15090   0.13417   0.00000  Uiso   1.00
H62    H     0.28134   0.19160   0.18248   0.00000  Uiso   1.00
H63    H     0.31999   0.23185   0.15481   0.00000  Uiso   1.00
C64    C     0.01091   0.20514   0.31777   0.00000  Uiso   1.00
C65    C     0.31134   0.16603   0.33236   0.00000  Uiso   1.00
H66    H     0.27116   0.17711   0.33912   0.00000  Uiso   1.00
H67    H     0.30627   0.14019   0.30390   0.00000  Uiso   1.00
H68    H     0.33264   0.15093   0.36583   0.00000  Uiso   1.00
H69    H     0.05200   0.19161   0.31752   0.00000  Uiso   1.00
H70    H     0.01334   0.23186   0.34519   0.00000  Uiso   1.00
C71    C     0.50000   0.16385   0.25000   0.00000  Uiso   1.00
C72    C     0.50000   0.33613   0.25000   0.00000  Uiso   1.00
C73    C     0.48475   0.21193   0.05038   0.00000  Uiso   1.00
C74    C     0.48447   0.28797   0.44543   0.00000  Uiso   1.00
C75    C     0.48493   0.21267   0.10008   0.00000  Uiso   1.00
C76    C     0.48457   0.28723   0.39575   0.00000  Uiso   1.00
C77    C     0.51543   0.28721   0.10426   0.00000  Uiso   1.00
C78    C     0.51508   0.21269   0.39991   0.00000  Uiso   1.00
C79    C     0.51553   0.28796   0.05459   0.00000  Uiso   1.00
C80    C     0.51525   0.21194   0.44961   0.00000  Uiso   1.00
C81    C     0.50005   0.24997   0.02664   0.00000  Uiso   1.00
C82    C     0.49995   0.24997   0.47336   0.00000  Uiso   1.00
C83    C     0.40098   0.24163   0.23769   0.00000  Uiso   1.00
C84    C     0.59902   0.24164   0.26231   0.00000  Uiso   1.00
C85    C     0.34676   0.22366   0.23109   0.00000  Uiso   1.00
C86    C     0.65324   0.22366   0.26892   0.00000  Uiso   1.00
C87    C     0.51847   0.04706   0.29236   0.00000  Uiso   1.00
C88    C     0.51925   0.45296   0.21308   0.00000  Uiso   1.00
C89    C     0.51815   0.09303   0.29244   0.00000  Uiso   1.00
C90    C     0.51895   0.40698   0.21292   0.00000  Uiso   1.00
C91    C     0.50000   0.11600   0.25000   0.00000  Uiso   1.00
C92    C     0.49999   0.38401   0.25000   0.00000  Uiso   1.00
C93    C     0.48185   0.09303   0.20756   0.00000  Uiso   1.00
C94    C     0.48104   0.40699   0.28708   0.00000  Uiso   1.00
C95    C     0.48152   0.04706   0.20764   0.00000  Uiso   1.00
C96    C     0.48074   0.45297   0.28692   0.00000  Uiso   1.00
C97    C     0.50000   0.02406   0.25000   0.00000  Uiso   1.00
C98    C     0.50000   0.47596   0.25000   0.00000  Uiso   1.00
H99    H     0.53355   0.02948   0.32513   0.00000  Uiso   1.00
H100   H     0.53493   0.47055   0.18475   0.00000  Uiso   1.00
H101   H     0.53270   0.11054   0.32538   0.00000  Uiso   1.00
H102   H     0.53417   0.38945   0.18430   0.00000  Uiso   1.00
H103   H     0.46731   0.11053   0.17462   0.00000  Uiso   1.00
H104   H     0.46582   0.38946   0.31569   0.00000  Uiso   1.00
H105   H     0.46645   0.02947   0.17487   0.00000  Uiso   1.00
H106   H     0.46506   0.47056   0.31525   0.00000  Uiso   1.00
H107   H     0.47192   0.18193   0.03065   0.00000  Uiso   1.00
H108   H     0.47151   0.31792   0.46167   0.00000  Uiso   1.00
H109   H     0.47290   0.18322   0.11764   0.00000  Uiso   1.00
H110   H     0.47205   0.31655   0.37478   0.00000  Uiso   1.00
H111   H     0.52794   0.31653   0.12523   0.00000  Uiso   1.00
H112   H     0.52711   0.18324   0.38234   0.00000  Uiso   1.00
H113   H     0.52848   0.31791   0.03835   0.00000  Uiso   1.00
H114   H     0.52809   0.18194   0.46933   0.00000  Uiso   1.00
N115   N     0.50000   0.24999   0.12624   0.00000  Uiso   1.00
N116   N     0.50000   0.25001   0.37377   0.00000  Uiso   1.00
O117   O     0.50000   0.18454   0.28974   0.00000  Uiso   1.00
O118   O     0.50000   0.31547   0.21026   0.00000  Uiso   1.00
O119   O     0.50000   0.18453   0.21026   0.00000  Uiso   1.00
O120   O     0.50000   0.31547   0.28974   0.00000  Uiso   1.00
O121   O     0.42392   0.25000   0.28045   0.00000  Uiso   1.00
O122   O     0.57608   0.25000   0.21956   0.00000  Uiso   1.00
O123   O     0.42392   0.25000   0.20097   0.00000  Uiso   1.00
O124   O     0.57608   0.25001   0.29904   0.00000  Uiso   1.00
Zn125  Zn    0.50000   0.25001   0.30307   0.00000  Uiso   1.00
Zn126  Zn    0.50000   0.25000   0.19693   0.00000  Uiso   1.00
C127   C     0.65576   0.20513   0.18223   0.00000  Uiso   1.00
C128   C     0.35533   0.16603   0.16764   0.00000  Uiso   1.00
H129   H     0.39550   0.17711   0.16085   0.00000  Uiso   1.00
H130   H     0.36043   0.14019   0.19610   0.00000  Uiso   1.00
H131   H     0.33402   0.15090   0.13417   0.00000  Uiso   1.00
H132   H     0.61467   0.19160   0.18248   0.00000  Uiso   1.00
H133   H     0.65332   0.23185   0.15481   0.00000  Uiso   1.00
C134   C     0.34424   0.20514   0.31777   0.00000  Uiso   1.00
C135   C     0.64467   0.16603   0.33236   0.00000  Uiso   1.00
H136   H     0.60449   0.17711   0.33912   0.00000  Uiso   1.00
H137   H     0.63961   0.14019   0.30390   0.00000  Uiso   1.00
H138   H     0.66598   0.15093   0.36583   0.00000  Uiso   1.00
H139   H     0.38533   0.19161   0.31752   0.00000  Uiso   1.00
H140   H     0.34667   0.23186   0.34519   0.00000  Uiso   1.00
C141   C     0.83334   0.16385   0.25000   0.00000  Uiso   1.00
C142   C     0.83333   0.33613   0.25000   0.00000  Uiso   1.00
C143   C     0.81808   0.21193   0.05038   0.00000  Uiso   1.00
C144   C     0.81780   0.28797   0.44543   0.00000  Uiso   1.00
C145   C     0.81826   0.21267   0.10008   0.00000  Uiso   1.00
C146   C     0.81790   0.28723   0.39575   0.00000  Uiso   1.00
C147   C     0.84876   0.28721   0.10426   0.00000  Uiso   1.00
C148   C     0.84841   0.21269   0.39991   0.00000  Uiso   1.00
C149   C     0.84886   0.28796   0.05459   0.00000  Uiso   1.00
C150   C     0.84858   0.21194   0.44961   0.00000  Uiso   1.00
C151   C     0.83338   0.24997   0.02664   0.00000  Uiso   1.00
C152   C     0.83328   0.24997   0.47336   0.00000  Uiso   1.00
C153   C     0.73431   0.24163   0.23769   0.00000  Uiso   1.00
C154   C     0.93236   0.24164   0.26231   0.00000  Uiso   1.00
C155   C     0.68010   0.22366   0.23109   0.00000  Uiso   1.00
C156   C     0.98657   0.22366   0.26892   0.00000  Uiso   1.00
C157   C     0.85181   0.04706   0.29236   0.00000  Uiso   1.00
C158   C     0.85259   0.45296   0.21308   0.00000  Uiso   1.00
C159   C     0.85148   0.09303   0.29244   0.00000  Uiso   1.00
C160   C     0.85228   0.40698   0.21292   0.00000  Uiso   1.00
C161   C     0.83334   0.11600   0.25000   0.00000  Uiso   1.00
C162   C     0.83333   0.38401   0.25000   0.00000  Uiso   1.00
C163   C     0.81519   0.09303   0.20756   0.00000  Uiso   1.00
C164   C     0.81437   0.40699   0.28708   0.00000  Uiso   1.00
C165   C     0.81486   0.04706   0.20764   0.00000  Uiso   1.00
C166   C     0.81407   0.45297   0.28692   0.00000  Uiso   1.00
C167   C     0.83333   0.02406   0.25000   0.00000  Uiso   1.00
C168   C     0.83333   0.47596   0.25000   0.00000  Uiso   1.00
H169   H     0.86688   0.02948   0.32513   0.00000  Uiso   1.00
H170   H     0.86827   0.47055   0.18475   0.00000  Uiso   1.00
H171   H     0.86603   0.11054   0.32538   0.00000  Uiso   1.00
H172   H     0.86750   0.38945   0.18430   0.00000  Uiso   1.00
H173   H     0.80064   0.11053   0.17462   0.00000  Uiso   1.00
H174   H     0.79916   0.38946   0.31569   0.00000  Uiso   1.00
H175   H     0.79978   0.02947   0.17487   0.00000  Uiso   1.00
H176   H     0.79839   0.47056   0.31525   0.00000  Uiso   1.00
H177   H     0.80525   0.18193   0.03065   0.00000  Uiso   1.00
H178   H     0.80485   0.31792   0.46167   0.00000  Uiso   1.00
H179   H     0.80623   0.18322   0.11764   0.00000  Uiso   1.00
H180   H     0.80539   0.31655   0.37478   0.00000  Uiso   1.00
H181   H     0.86127   0.31653   0.12523   0.00000  Uiso   1.00
H182   H     0.86044   0.18324   0.38234   0.00000  Uiso   1.00
H183   H     0.86181   0.31791   0.03835   0.00000  Uiso   1.00
H184   H     0.86142   0.18194   0.46933   0.00000  Uiso   1.00
N185   N     0.83333   0.24999   0.12624   0.00000  Uiso   1.00
N186   N     0.83333   0.25001   0.37377   0.00000  Uiso   1.00
O187   O     0.83334   0.18454   0.28974   0.00000  Uiso   1.00
O188   O     0.83333   0.31547   0.21026   0.00000  Uiso   1.00
O189   O     0.83334   0.18453   0.21026   0.00000  Uiso   1.00
O190   O     0.83333   0.31547   0.28974   0.00000  Uiso   1.00
O191   O     0.75725   0.25000   0.28045   0.00000  Uiso   1.00
O192   O     0.90942   0.25000   0.21956   0.00000  Uiso   1.00
O193   O     0.75725   0.25000   0.20097   0.00000  Uiso   1.00
O194   O     0.90942   0.25001   0.29904   0.00000  Uiso   1.00
Zn195  Zn    0.83333   0.25001   0.30307   0.00000  Uiso   1.00
Zn196  Zn    0.83333   0.25000   0.19693   0.00000  Uiso   1.00
C197   C     0.98909   0.20513   0.18223   0.00000  Uiso   1.00
C198   C     0.68867   0.16603   0.16764   0.00000  Uiso   1.00
H199   H     0.72883   0.17711   0.16085   0.00000  Uiso   1.00
H200   H     0.69376   0.14019   0.19610   0.00000  Uiso   1.00
H201   H     0.66735   0.15090   0.13417   0.00000  Uiso   1.00
H202   H     0.94801   0.19160   0.18248   0.00000  Uiso   1.00
H203   H     0.98665   0.23185   0.15481   0.00000  Uiso   1.00
C204   C     0.67757   0.20514   0.31777   0.00000  Uiso   1.00
C205   C     0.97801   0.16603   0.33236   0.00000  Uiso   1.00
H206   H     0.93782   0.17711   0.33912   0.00000  Uiso   1.00
H207   H     0.97294   0.14019   0.30390   0.00000  Uiso   1.00
H208   H     0.99931   0.15093   0.36583   0.00000  Uiso   1.00
H209   H     0.71866   0.19161   0.31752   0.00000  Uiso   1.00
H210   H     0.68000   0.23186   0.34519   0.00000  Uiso   1.00
C211   C     0.16667   0.66385   0.25000   0.00000  Uiso   1.00
C212   C     0.16666   0.83613   0.25000   0.00000  Uiso   1.00
C213   C     0.15142   0.71193   0.05038   0.00000  Uiso   1.00
C214   C     0.15113   0.78797   0.44543   0.00000  Uiso   1.00
C215   C     0.15159   0.71267   0.10008   0.00000  Uiso   1.00
C216   C     0.15123   0.78723   0.39575   0.00000  Uiso   1.00
C217   C     0.18209   0.78721   0.10426   0.00000  Uiso   1.00
C218   C     0.18174   0.71269   0.39991   0.00000  Uiso   1.00
C219   C     0.18219   0.78796   0.05459   0.00000  Uiso   1.00
C220   C     0.18192   0.71194   0.44961   0.00000  Uiso   1.00
C221   C     0.16671   0.74997   0.02664   0.00000  Uiso   1.00
C222   C     0.16662   0.74997   0.47336   0.00000  Uiso   1.00
C223   C     0.06764   0.74163   0.23769   0.00000  Uiso   1.00
C224   C     0.26569   0.74164   0.26231   0.00000  Uiso   1.00
C225   C     0.01343   0.72366   0.23109   0.00000  Uiso   1.00
C226   C     0.31990   0.72366   0.26892   0.00000  Uiso   1.00
C227   C     0.18514   0.54706   0.29236   0.00000  Uiso   1.00
C228   C     0.18592   0.95296   0.21308   0.00000  Uiso   1.00
C229   C     0.18482   0.59303   0.29244   0.00000  Uiso   1.00
C230   C     0.18562   0.90698   0.21292   0.00000  Uiso   1.00
C231   C     0.16667   0.61600   0.25000   0.00000  Uiso   1.00
C232   C     0.16666   0.88401   0.25000   0.00000  Uiso   1.00
C233   C     0.14852   0.59303   0.20756   0.00000  Uiso   1.00
C234   C     0.14771   0.90699   0.28708   0.00000  Uiso   1.00
C235   C     0.14819   0.54706   0.20764   0.00000  Uiso   1.00
C236   C     0.14740   0.95297   0.28692   0.00000  Uiso   1.00
C237   C     0.16666   0.52406   0.25000   0.00000  Uiso   1.00
C238   C     0.16666   0.97596   0.25000   0.00000  Uiso   1.00
H239   H     0.20021   0.52948   0.32513   0.00000  Uiso   1.00
H240   H     0.20160   0.97055   0.18475   0.00000  Uiso   1.00
H241   H     0.19936   0.61054   0.32538   0.00000  Uiso   1.00
H242   H     0.20083   0.88945   0.18430   0.00000  Uiso   1.00
H243   H     0.13398   0.61053   0.17462   0.00000  Uiso   1.00
H244   H     0.13249   0.88946   0.31569   0.00000  Uiso   1.00
H245   H     0.13312   0.52947   0.17487   0.00000  Uiso   1.00
H246   H     0.13172   0.97056   0.31525   0.00000  Uiso   1.00
H247   H     0.13858   0.68193   0.03065   0.00000  Uiso   1.00
H248   H     0.13818   0.81792   0.46167   0.00000  Uiso   1.00
H249   H     0.13956   0.68322   0.11764   0.00000  Uiso   1.00
H250   H     0.13872   0.81655   0.37478   0.00000  Uiso   1.00
H251   H     0.19461   0.81653   0.12523   0.00000  Uiso   1.00
H252   H     0.19378   0.68324   0.38234   0.00000  Uiso   1.00
H253   H     0.19514   0.81791   0.03835   0.00000  Uiso   1.00
H254   H     0.19475   0.68194   0.46933   0.00000  Uiso   1.00
N255   N     0.16667   0.74999   0.12624   0.00000  Uiso   1.00
N256   N     0.16667   0.75001   0.37377   0.00000  Uiso   1.00
O257   O     0.16667   0.68454   0.28974   0.00000  Uiso   1.00
O258   O     0.16666   0.81547   0.21026   0.00000  Uiso   1.00
O259   O     0.16667   0.68453   0.21026   0.00000  Uiso   1.00
O260   O     0.16666   0.81547   0.28974   0.00000  Uiso   1.00
O261   O     0.09058   0.75000   0.28045   0.00000  Uiso   1.00
O262   O     0.24275   0.75000   0.21956   0.00000  Uiso   1.00
O263   O     0.09058   0.75000   0.20097   0.00000  Uiso   1.00
O264   O     0.24275   0.75001   0.29904   0.00000  Uiso   1.00
Zn265  Zn    0.16667   0.75001   0.30307   0.00000  Uiso   1.00
Zn266  Zn    0.16667   0.75000   0.19693   0.00000  Uiso   1.00
C267   C     0.32242   0.70513   0.18223   0.00000  Uiso   1.00
C268   C     0.02200   0.66603   0.16764   0.00000  Uiso   1.00
H269   H     0.06217   0.67711   0.16085   0.00000  Uiso   1.00
H270   H     0.02709   0.64019   0.19610   0.00000  Uiso   1.00
H271   H     0.00068   0.65090   0.13417   0.00000  Uiso   1.00
H272   H     0.28134   0.69160   0.18248   0.00000  Uiso   1.00
H273   H     0.31999   0.73185   0.15481   0.00000  Uiso   1.00
C274   C     0.01091   0.70514   0.31777   0.00000  Uiso   1.00
C275   C     0.31134   0.66603   0.33236   0.00000  Uiso   1.00
H276   H     0.27116   0.67711   0.33912   0.00000  Uiso   1.00
H277   H     0.30627   0.64019   0.30390   0.00000  Uiso   1.00
H278   H     0.33264   0.65093   0.36583   0.00000  Uiso   1.00
H279   H     0.05200   0.69161   0.31752   0.00000  Uiso   1.00
H280   H     0.01334   0.73186   0.34519   0.00000  Uiso   1.00
C281   C     0.50000   0.66385   0.25000   0.00000  Uiso   1.00
C282   C     0.50000   0.83613   0.25000   0.00000  Uiso   1.00
C283   C     0.48475   0.71193   0.05038   0.00000  Uiso   1.00
C284   C     0.48447   0.78797   0.44543   0.00000  Uiso   1.00
C285   C     0.48493   0.71267   0.10008   0.00000  Uiso   1.00
C286   C     0.48457   0.78723   0.39575   0.00000  Uiso   1.00
C287   C     0.51543   0.78721   0.10426   0.00000  Uiso   1.00
C288   C     0.51508   0.71269   0.39991   0.00000  Uiso   1.00
C289   C     0.51553   0.78796   0.05459   0.00000  Uiso   1.00
C290   C     0.51525   0.71194   0.44961   0.00000  Uiso   1.00
C291   C     0.50005   0.74997   0.02664   0.00000  Uiso   1.00
C292   C     0.49995   0.74997   0.47336   0.00000  Uiso   1.00
C293   C     0.40098   0.74163   0.23769   0.00000  Uiso   1.00
C294   C     0.59902   0.74164   0.26231   0.00000  Uiso   1.00
C295   C     0.34676   0.72366   0.23109   0.00000  Uiso   1.00
C296   C     0.65324   0.72366   0.26892   0.00000  Uiso   1.00
C297   C     0.51847   0.54706   0.29236   0.00000  Uiso   1.00
C298   C     0.51925   0.95296   0.21308   0.00000  Uiso   1.00
C299   C     0.51815   0.59303   0.29244   0.00000  Uiso   1.00
C300   C     0.51895   0.90698   0.21292   0.00000  Uiso   1.00
C301   C     0.50000   0.61600   0.25000   0.00000  Uiso   1.00
C302   C     0.49999   0.88401   0.25000   0.00000  Uiso   1.00
C303   C     0.48185   0.59303   0.20756   0.00000  Uiso   1.00
C304   C     0.48104   0.90699   0.28708   0.00000  Uiso   1.00
C305   C     0.48152   0.54706   0.20764   0.00000  Uiso   1.00
C306   C     0.48074   0.95297   0.28692   0.00000  Uiso   1.00
C307   C     0.50000   0.52406   0.25000   0.00000  Uiso   1.00
C308   C     0.50000   0.97596   0.25000   0.00000  Uiso   1.00
H309   H     0.53355   0.52948   0.32513   0.00000  Uiso   1.00
H310   H     0.53493   0.97055   0.18475   0.00000  Uiso   1.00
H311   H     0.53270   0.61054   0.32538   0.00000  Uiso   1.00
H312   H     0.53417   0.88945   0.18430   0.00000  Uiso   1.00
H313   H     0.46731   0.61053   0.17462   0.00000  Uiso   1.00
H314   H     0.46582   0.88946   0.31569   0.00000  Uiso   1.00
H315   H     0.46645   0.52947   0.17487   0.00000  Uiso   1.00
H316   H     0.46506   0.97056   0.31525   0.00000  Uiso   1.00
H317   H     0.47192   0.68193   0.03065   0.00000  Uiso   1.00
H318   H     0.47151   0.81792   0.46167   0.00000  Uiso   1.00
H319   H     0.47290   0.68322   0.11764   0.00000  Uiso   1.00
H320   H     0.47205   0.81655   0.37478   0.00000  Uiso   1.00
H321   H     0.52794   0.81653   0.12523   0.00000  Uiso   1.00
H322   H     0.52711   0.68324   0.38234   0.00000  Uiso   1.00
H323   H     0.52848   0.81791   0.03835   0.00000  Uiso   1.00
H324   H     0.52809   0.68194   0.46933   0.00000  Uiso   1.00
N325   N     0.50000   0.74999   0.12624   0.00000  Uiso   1.00
N326   N     0.50000   0.75001   0.37377   0.00000  Uiso   1.00
O327   O     0.50000   0.68454   0.28974   0.00000  Uiso   1.00
O328   O     0.50000   0.81547   0.21026   0.00000  Uiso   1.00
O329   O     0.50000   0.68453   0.21026   0.00000  Uiso   1.00
O330   O     0.50000   0.81547   0.28974   0.00000  Uiso   1.00
O331   O     0.42392   0.75000   0.28045   0.00000  Uiso   1.00
O332   O     0.57608   0.75000   0.21956   0.00000  Uiso   1.00
O333   O     0.42392   0.75000   0.20097   0.00000  Uiso   1.00
O334   O     0.57608   0.75001   0.29904   0.00000  Uiso   1.00
Zn335  Zn    0.50000   0.75001   0.30307   0.00000  Uiso   1.00
Zn336  Zn    0.50000   0.75000   0.19693   0.00000  Uiso   1.00
C337   C     0.65576   0.70513   0.18223   0.00000  Uiso   1.00
C338   C     0.35533   0.66603   0.16764   0.00000  Uiso   1.00
H339   H     0.39550   0.67711   0.16085   0.00000  Uiso   1.00
H340   H     0.36043   0.64019   0.19610   0.00000  Uiso   1.00
H341   H     0.33402   0.65090   0.13417   0.00000  Uiso   1.00
H342   H     0.61467   0.69160   0.18248   0.00000  Uiso   1.00
H343   H     0.65332   0.73185   0.15481   0.00000  Uiso   1.00
C344   C     0.34424   0.70514   0.31777   0.00000  Uiso   1.00
C345   C     0.64467   0.66603   0.33236   0.00000  Uiso   1.00
H346   H     0.60449   0.67711   0.33912   0.00000  Uiso   1.00
H347   H     0.63961   0.64019   0.30390   0.00000  Uiso   1.00
H348   H     0.66598   0.65093   0.36583   0.00000  Uiso   1.00
H349   H     0.38533   0.69161   0.31752   0.00000  Uiso   1.00
H350   H     0.34667   0.73186   0.34519   0.00000  Uiso   1.00
C351   C     0.83334   0.66385   0.25000   0.00000  Uiso   1.00
C352   C     0.83333   0.83613   0.25000   0.00000  Uiso   1.00
C353   C     0.81808   0.71193   0.05038   0.00000  Uiso   1.00
C354   C     0.81780   0.78797   0.44543   0.00000  Uiso   1.00
C355   C     0.81826   0.71267   0.10008   0.00000  Uiso   1.00
C356   C     0.81790   0.78723   0.39575   0.00000  Uiso   1.00
C357   C     0.84876   0.78721   0.10426   0.00000  Uiso   1.00
C358   C     0.84841   0.71269   0.39991   0.00000  Uiso   1.00
C359   C     0.84886   0.78796   0.05459   0.00000  Uiso   1.00
C360   C     0.84858   0.71194   0.44961   0.00000  Uiso   1.00
C361   C     0.83338   0.74997   0.02664   0.00000  Uiso   1.00
C362   C     0.83328   0.74997   0.47336   0.00000  Uiso   1.00
C363   C     0.73431   0.74163   0.23769   0.00000  Uiso   1.00
C364   C     0.93236   0.74164   0.26231   0.00000  Uiso   1.00
C365   C     0.68010   0.72366   0.23109   0.00000  Uiso   1.00
C366   C     0.98657   0.72366   0.26892   0.00000  Uiso   1.00
C367   C     0.85181   0.54706   0.29236   0.00000  Uiso   1.00
C368   C     0.85259   0.95296   0.21308   0.00000  Uiso   1.00
C369   C     0.85148   0.59303   0.29244   0.00000  Uiso   1.00
C370   C     0.85228   0.90698   0.21292   0.00000  Uiso   1.00
C371   C     0.83334   0.61600   0.25000   0.00000  Uiso   1.00
C372   C     0.83333   0.88401   0.25000   0.00000  Uiso   1.00
C373   C     0.81519   0.59303   0.20756   0.00000  Uiso   1.00
C374   C     0.81437   0.90699   0.28708   0.00000  Uiso   1.00
C375   C     0.81486   0.54706   0.20764   0.00000  Uiso   1.00
C376   C     0.81407   0.95297   0.28692   0.00000  Uiso   1.00
C377   C     0.83333   0.52406   0.25000   0.00000  Uiso   1.00
C378   C     0.83333   0.97596   0.25000   0.00000  Uiso   1.00
H379   H     0.86688   0.52948   0.32513   0.00000  Uiso   1.00
H380   H     0.86827   0.97055   0.18475   0.00000  Uiso   1.00
H381   H     0.86603   0.61054   0.32538   0.00000  Uiso   1.00
H382   H     0.86750   0.88945   0.18430   0.00000  Uiso   1.00
H383   H     0.80064   0.61053   0.17462   0.00000  Uiso   1.00
H384   H     0.79916   0.88946   0.31569   0.00000  Uiso   1.00
H385   H     0.79978   0.52947   0.17487   0.00000  Uiso   1.00
H386   H     0.79839   0.97056   0.31525   0.00000  Uiso   1.00
H387   H     0.80525   0.68193   0.03065   0.00000  Uiso   1.00
H388   H     0.80485   0.81792   0.46167   0.00000  Uiso   1.00
H389   H     0.80623   0.68322   0.11764   0.00000  Uiso   1.00
H390   H     0.80539   0.81655   0.37478   0.00000  Uiso   1.00
H391   H     0.86127   0.81653   0.12523   0.00000  Uiso   1.00
H392   H     0.86044   0.68324   0.38234   0.00000  Uiso   1.00
H393   H     0.86181   0.81791   0.03835   0.00000  Uiso   1.00
H394   H     0.86142   0.68194   0.46933   0.00000  Uiso   1.00
N395   N     0.83333   0.74999   0.12624   0.00000  Uiso   1.00
N396   N     0.83333   0.75001   0.37377   0.00000  Uiso   1.00
O397   O     0.83334   0.68454   0.28974   0.00000  Uiso   1.00
O398   O     0.83333   0.81547   0.21026   0.00000  Uiso   1.00
O399   O     0.83334   0.68453   0.21026   0.00000  Uiso   1.00
O400   O     0.83333   0.81547   0.28974   0.00000  Uiso   1.00
O401   O     0.75725   0.75000   0.28045   0.00000  Uiso   1.00
O402   O     0.90942   0.75000   0.21956   0.00000  Uiso   1.00
O403   O     0.75725   0.75000   0.20097   0.00000  Uiso   1.00
O404   O     0.90942   0.75001   0.29904   0.00000  Uiso   1.00
Zn405  Zn    0.83333   0.75001   0.30307   0.00000  Uiso   1.00
Zn406  Zn    0.83333   0.75000   0.19693   0.00000  Uiso   1.00
C407   C     0.98909   0.70513   0.18223   0.00000  Uiso   1.00
C408   C     0.68867   0.66603   0.16764   0.00000  Uiso   1.00
H409   H     0.72883   0.67711   0.16085   0.00000  Uiso   1.00
H410   H     0.69376   0.64019   0.19610   0.00000  Uiso   1.00
H411   H     0.66735   0.65090   0.13417   0.00000  Uiso   1.00
H412   H     0.94801   0.69160   0.18248   0.00000  Uiso   1.00
H413   H     0.98665   0.73185   0.15481   0.00000  Uiso   1.00
C414   C     0.67757   0.70514   0.31777   0.00000  Uiso   1.00
C415   C     0.97801   0.66603   0.33236   0.00000  Uiso   1.00
H416   H     0.93782   0.67711   0.33912   0.00000  Uiso   1.00
H417   H     0.97294   0.64019   0.30390   0.00000  Uiso   1.00
H418   H     0.99931   0.65093   0.36583   0.00000  Uiso   1.00
H419   H     0.71866   0.69161   0.31752   0.00000  Uiso   1.00
H420   H     0.68000   0.73186   0.34519   0.00000  Uiso   1.00
C421   C     0.16667   0.16385   0.75000   0.00000  Uiso   1.00
C422   C     0.16666   0.33613   0.75000   0.00000  Uiso   1.00
C423   C     0.15142   0.21193   0.55038   0.00000  Uiso   1.00
C424   C     0.15113   0.28797   0.94543   0.00000  Uiso   1.00
C425   C     0.15159   0.21267   0.60008   0.00000  Uiso   1.00
C426   C     0.15123   0.28723   0.89575   0.00000  Uiso   1.00
C427   C     0.18209   0.28721   0.60426   0.00000  Uiso   1.00
C428   C     0.18174   0.21269   0.89991   0.00000  Uiso   1.00
C429   C     0.18219   0.28796   0.55459   0.00000  Uiso   1.00
C430   C     0.18192   0.21194   0.94961   0.00000  Uiso   1.00
C431   C     0.16671   0.24997   0.52664   0.00000  Uiso   1.00
C432   C     0.16662   0.24997   0.97336   0.00000  Uiso   1.00
C433   C     0.06764   0.24163   0.73769   0.00000  Uiso   1.00
C434   C     0.26569   0.24164   0.76231   0.00000  Uiso   1.00
C435   C     0.01343   0.22366   0.73109   0.00000  Uiso   1.00
C436   C     0.31990   0.22366   0.76892   0.00000  Uiso   1.00
C437   C     0.18514   0.04706   0.79236   0.00000  Uiso   1.00
C438   C     0.18592   0.45296   0.71308   0.00000  Uiso   1.00
C439   C     0.18482   0.09303   0.79244   0.00000  Uiso   1.00
C440   C     0.18562   0.40698   0.71292   0.00000  Uiso   1.00
C441   C     0.16667   0.11600   0.75000   0.00000  Uiso   1.00
C442   C     0.16666   0.38401   0.75000   0.00000  Uiso   1.00
C443   C     0.14852   0.09303   0.70756   0.00000  Uiso   1.00
C444   C     0.14771   0.40699   0.78708   0.00000  Uiso   1.00
C445   C     0.14819   0.04706   0.70764   0.00000  Uiso   1.00
C446   C     0.14740   0.45297   0.78692   0.00000  Uiso   1.00
C447   C     0.16666   0.02406   0.75000   0.00000  Uiso   1.00
C448   C     0.16666   0.47596   0.75000   0.00000  Uiso   1.00
H449   H     0.20021   0.02948   0.82513   0.00000  Uiso   1.00
H450   H     0.20160   0.47055   0.68475   0.00000  Uiso   1.00
H451   H     0.19936   0.11054   0.82538   0.00000  Uiso   1.00
H452   H     0.20083   0.38945   0.68430   0.00000  Uiso   1.00
H453   H     0.13398   0.11053   0.67462   0.00000  Uiso   1.00
H454   H     0.13249   0.38946   0.81569   0.00000  Uiso   1.00
H455   H     0.13312   0.02947   0.67487   0.00000  Uiso   1.00
H456   H     0.13172   0.47056   0.81525   0.00000  Uiso   1.00
H457   H     0.13858   0.18193   0.53065   0.00000  Uiso   1.00
H458   H     0.13818   0.31792   0.96167   0.00000  Uiso   1.00
H459   H     0.13956   0.18322   0.61764   0.00000  Uiso   1.00
H460   H     0.13872   0.31655   0.87478   0.00000  Uiso   1.00
H461   H     0.19461   0.31653   0.62523   0.00000  Uiso   1.00
H462   H     0.19378   0.18324   0.88234   0.00000  Uiso   1.00
H463   H     0.19514   0.31791   0.53835   0.00000  Uiso   1.00
H464   H     0.19475   0.18194   0.96933   0.00000  Uiso   1.00
N465   N     0.16667   0.24999   0.62624   0.00000  Uiso   1.00
N466   N     0.16667   0.25001   0.87377   0.00000  Uiso   1.00
O467   O     0.16667   0.18454   0.78974   0.00000  Uiso   1.00
O468   O     0.16666   0.31547   0.71026   0.00000  Uiso   1.00
O469   O     0.16667   0.18453   0.71026   0.00000  Uiso   1.00
O470   O     0.16666   0.31547   0.78974   0.00000  Uiso   1.00
O471   O     0.09058   0.25000   0.78045   0.00000  Uiso   1.00
O472   O     0.24275   0.25000   0.71956   0.00000  Uiso   1.00
O473   O     0.09058   0.25000   0.70097   0.00000  Uiso   1.00
O474   O     0.24275   0.25001   0.79904   0.00000  Uiso   1.00
Zn475  Zn    0.16667   0.25001   0.80307   0.00000  Uiso   1.00
Zn476  Zn    0.16667   0.25000   0.69693   0.00000  Uiso   1.00
C477   C     0.32242   0.20513   0.68223   0.00000  Uiso   1.00
C478   C     0.02200   0.16603   0.66764   0.00000  Uiso   1.00
H479   H     0.06217   0.17711   0.66085   0.00000  Uiso   1.00
H480   H     0.02709   0.14019   0.69610   0.00000  Uiso   1.00
H481   H     0.00068   0.15090   0.63417   0.00000  Uiso   1.00
H482   H     0.28134   0.19160   0.68248   0.00000  Uiso   1.00
H483   H     0.31999   0.23185   0.65481   0.00000  Uiso   1.00
C484   C     0.01091   0.20514   0.81777   0.00000  Uiso   1.00
C485   C     0.31134   0.16603   0.83236   0.00000  Uiso   1.00
H486   H     0.27116   0.17711   0.83912   0.00000  Uiso   1.00
H487   H     0.30627   0.14019   0.80390   0.00000  Uiso   1.00
H488   H     0.33264   0.15093   0.86583   0.00000  Uiso   1.00
H489   H     0.05200   0.19161   0.81752   0.00000  Uiso   1.00
H490   H     0.01334   0.23186   0.84519   0.00000  Uiso   1.00
C491   C     0.50000   0.16385   0.75000   0.00000  Uiso   1.00
C492   C     0.50000   0.33613   0.75000   0.00000  Uiso   1.00
C493   C     0.48475   0.21193   0.55038   0.00000  Uiso   1.00
C494   C     0.48447   0.28797   0.94543   0.00000  Uiso   1.00
C495   C     0.48493   0.21267   0.60008   0.00000  Uiso   1.00
C496   C     0.48457   0.28723   0.89575   0.00000  Uiso   1.00
C497   C     0.51543   0.28721   0.60426   0.00000  Uiso   1.00
C498   C     0.51508   0.21269   0.89991   0.00000  Uiso   1.00
C499   C     0.51553   0.28796   0.55459   0.00000  Uiso   1.00
C500   C     0.51525   0.21194   0.94961   0.00000  Uiso   1.00
C501   C     0.50005   0.24997   0.52664   0.00000  Uiso   1.00
C502   C     0.49995   0.24997   0.97336   0.00000  Uiso   1.00
C503   C     0.40098   0.24163   0.73769   0.00000  Uiso   1.00
C504   C     0.59902   0.24164   0.76231   0.00000  Uiso   1.00
C505   C     0.34676   0.22366   0.73109   0.00000  Uiso   1.00
C506   C     0.65324   0.22366   0.76892   0.00000  Uiso   1.00
C507   C     0.51847   0.04706   0.79236   0.00000  Uiso   1.00
C508   C     0.51925   0.45296   0.71308   0.00000  Uiso   1.00
C509   C     0.51815   0.09303   0.79244   0.00000  Uiso   1.00
C510   C     0.51895   0.40698   0.71292   0.00000  Uiso   1.00
C511   C     0.50000   0.11600   0.75000   0.00000  Uiso   1.00
C512   C     0.49999   0.38401   0.75000   0.00000  Uiso   1.00
C513   C     0.48185   0.09303   0.70756   0.00000  Uiso   1.00
C514   C     0.48104   0.40699   0.78708   0.00000  Uiso   1.00
C515   C     0.48152   0.04706   0.70764   0.00000  Uiso   1.00
C516   C     0.48074   0.45297   0.78692   0.00000  Uiso   1.00
C517   C     0.50000   0.02406   0.75000   0.00000  Uiso   1.00
C518   C     0.50000   0.47596   0.75000   0.00000  Uiso   1.00
H519   H     0.53355   0.02948   0.82513   0.00000  Uiso   1.00
H520   H     0.53493   0.47055   0.68475   0.00000  Uiso   1.00
H521   H     0.53270   0.11054   0.82538   0.00000  Uiso   1.00
H522   H     0.53417   0.38945   0.68430   0.00000  Uiso   1.00
H523   H     0.46731   0.11053   0.67462   0.00000  Uiso   1.00
H524   H     0.46582   0.38946   0.81569   0.00000  Uiso   1.00
H525   H     0.46645   0.02947   0.67487   0.00000  Uiso   1.00
H526   H     0.46506   0.47056   0.81525   0.00000  Uiso   1.00
H527   H     0.47192   0.18193   0.53065   0.00000  Uiso   1.00
H528   H     0.47151   0.31792   0.96167   0.00000  Uiso   1.00
H529   H     0.47290   0.18322   0.61764   0.00000  Uiso   1.00
H530   H     0.47205   0.31655   0.87478   0.00000  Uiso   1.00
H531   H     0.52794   0.31653   0.62523   0.00000  Uiso   1.00
H532   H     0.52711   0.18324   0.88234   0.00000  Uiso   1.00
H533   H     0.52848   0.31791   0.53835   0.00000  Uiso   1.00
H534   H     0.52809   0.18194   0.96933   0.00000  Uiso   1.00
N535   N     0.50000   0.24999   0.62624   0.00000  Uiso   1.00
N536   N     0.50000   0.25001   0.87377   0.00000  Uiso   1.00
O537   O     0.50000   0.18454   0.78974   0.00000  Uiso   1.00
O538   O     0.50000   0.31547   0.71026   0.00000  Uiso   1.00
O539   O     0.50000   0.18453   0.71026   0.00000  Uiso   1.00
O540   O     0.50000   0.31547   0.78974   0.00000  Uiso   1.00
O541   O     0.42392   0.25000   0.78045   0.00000  Uiso   1.00
O542   O     0.57608   0.25000   0.71956   0.00000  Uiso   1.00
O543   O     0.42392   0.25000   0.70097   0.00000  Uiso   1.00
O544   O     0.57608   0.25001   0.79904   0.00000  Uiso   1.00
Zn545  Zn    0.50000   0.25001   0.80307   0.00000  Uiso   1.00
Zn546  Zn    0.50000   0.25000   0.69693   0.00000  Uiso   1.00
C547   C     0.65576   0.20513   0.68223   0.00000  Uiso   1.00
C548   C     0.35533   0.16603   0.66764   0.00000  Uiso   1.00
H549   H     0.39550   0.17711   0.66085   0.00000  Uiso   1.00
H550   H     0.36043   0.14019   0.69610   0.00000  Uiso   1.00
H551   H     0.33402   0.15090   0.63417   0.00000  Uiso   1.00
H552   H     0.61467   0.19160   0.68248   0.00000  Uiso   1.00
H553   H     0.65332   0.23185   0.65481   0.00000  Uiso   1.00
C554   C     0.34424   0.20514   0.81777   0.00000  Uiso   1.00
C555   C     0.64467   0.16603   0.83236   0.00000  Uiso   1.00
H556   H     0.60449   0.17711   0.83912   0.00000  Uiso   1.00
H557   H     0.63961   0.14019   0.80390   0.00000  Uiso   1.00
H558   H     0.66598   0.15093   0.86583   0.00000  Uiso   1.00
H559   H     0.38533   0.19161   0.81752   0.00000  Uiso   1.00
H560   H     0.34667   0.23186   0.84519   0.00000  Uiso   1.00
C561   C     0.83334   0.16385   0.75000   0.00000  Uiso   1.00
C562   C     0.83333   0.33613   0.75000   0.00000  Uiso   1.00
C563   C     0.81808   0.21193   0.55038   0.00000  Uiso   1.00
C564   C     0.81780   0.28797   0.94543   0.00000  Uiso   1.00
C565   C     0.81826   0.21267   0.60008   0.00000  Uiso   1.00
C566   C     0.81790   0.28723   0.89575   0.00000  Uiso   1.00
C567   C     0.84876   0.28721   0.60426   0.00000  Uiso   1.00
C568   C     0.84841   0.21269   0.89991   0.00000  Uiso   1.00
C569   C     0.84886   0.28796   0.55459   0.00000  Uiso   1.00
C570   C     0.84858   0.21194   0.94961   0.00000  Uiso   1.00
C571   C     0.83338   0.24997   0.52664   0.00000  Uiso   1.00
C572   C     0.83328   0.24997   0.97336   0.00000  Uiso   1.00
C573   C     0.73431   0.24163   0.73769   0.00000  Uiso   1.00
C574   C     0.93236   0.24164   0.76231   0.00000  Uiso   1.00
C575   C     0.68010   0.22366   0.73109   0.00000  Uiso   1.00
C576   C     0.98657   0.22366   0.76892   0.00000  Uiso   1.00
C577   C     0.85181   0.04706   0.79236   0.00000  Uiso   1.00
C578   C     0.85259   0.45296   0.71308   0.00000  Uiso   1.00
C579   C     0.85148   0.09303   0.79244   0.00000  Uiso   1.00
C580   C     0.85228   0.40698   0.71292   0.00000  Uiso   1.00
C581   C     0.83334   0.11600   0.75000   0.00000  Uiso   1.00
C582   C     0.83333   0.38401   0.75000   0.00000  Uiso   1.00
C583   C     0.81519   0.09303   0.70756   0.00000  Uiso   1.00
C584   C     0.81437   0.40699   0.78708   0.00000  Uiso   1.00
C585   C     0.81486   0.04706   0.70764   0.00000  Uiso   1.00
C586   C     0.81407   0.45297   0.78692   0.00000  Uiso   1.00
C587   C     0.83333   0.02406   0.75000   0.00000  Uiso   1.00
C588   C     0.83333   0.47596   0.75000   0.00000  Uiso   1.00
H589   H     0.86688   0.02948   0.82513   0.00000  Uiso   1.00
H590   H     0.86827   0.47055   0.68475   0.00000  Uiso   1.00
H591   H     0.86603   0.11054   0.82538   0.00000  Uiso   1.00
H592   H     0.86750   0.38945   0.68430   0.00000  Uiso   1.00
H593   H     0.80064   0.11053   0.67462   0.00000  Uiso   1.00
H594   H     0.79916   0.38946   0.81569   0.00000  Uiso   1.00
H595   H     0.79978   0.02947   0.67487   0.00000  Uiso   1.00
H596   H     0.79839   0.47056   0.81525   0.00000  Uiso   1.00
H597   H     0.80525   0.18193   0.53065   0.00000  Uiso   1.00
H598   H     0.80485   0.31792   0.96167   0.00000  Uiso   1.00
H599   H     0.80623   0.18322   0.61764   0.00000  Uiso   1.00
H600   H     0.80539   0.31655   0.87478   0.00000  Uiso   1.00
H601   H     0.86127   0.31653   0.62523   0.00000  Uiso   1.00
H602   H     0.86044   0.18324   0.88234   0.00000  Uiso   1.00
H603   H     0.86181   0.31791   0.53835   0.00000  Uiso   1.00
H604   H     0.86142   0.18194   0.96933   0.00000  Uiso   1.00
N605   N     0.83333   0.24999   0.62624   0.00000  Uiso   1.00
N606   N     0.83333   0.25001   0.87377   0.00000  Uiso   1.00
O607   O     0.83334   0.18454   0.78974   0.00000  Uiso   1.00
O608   O     0.83333   0.31547   0.71026   0.00000  Uiso   1.00
O609   O     0.83334   0.18453   0.71026   0.00000  Uiso   1.00
O610   O     0.83333   0.31547   0.78974   0.00000  Uiso   1.00
O611   O     0.75725   0.25000   0.78045   0.00000  Uiso   1.00
O612   O     0.90942   0.25000   0.71956   0.00000  Uiso   1.00
O613   O     0.75725   0.25000   0.70097   0.00000  Uiso   1.00
O614   O     0.90942   0.25001   0.79904   0.00000  Uiso   1.00
Zn615  Zn    0.83333   0.25001   0.80307   0.00000  Uiso   1.00
Zn616  Zn    0.83333   0.25000   0.69693   0.00000  Uiso   1.00
C617   C     0.98909   0.20513   0.68223   0.00000  Uiso   1.00
C618   C     0.68867   0.16603   0.66764   0.00000  Uiso   1.00
H619   H     0.72883   0.17711   0.66085   0.00000  Uiso   1.00
H620   H     0.69376   0.14019   0.69610   0.00000  Uiso   1.00
H621   H     0.66735   0.15090   0.63417   0.00000  Uiso   1.00
H622   H     0.94801   0.19160   0.68248   0.00000  Uiso   1.00
H623   H     0.98665   0.23185   0.65481   0.00000  Uiso   1.00
C624   C     0.67757   0.20514   0.81777   0.00000  Uiso   1.00
C625   C     0.97801   0.16603   0.83236   0.00000  Uiso   1.00
H626   H     0.93782   0.17711   0.83912   0.00000  Uiso   1.00
H627   H     0.97294   0.14019   0.80390   0.00000  Uiso   1.00
H628   H     0.99931   0.15093   0.86583   0.00000  Uiso   1.00
H629   H     0.71866   0.19161   0.81752   0.00000  Uiso   1.00
H630   H     0.68000   0.23186   0.84519   0.00000  Uiso   1.00
C631   C     0.16667   0.66385   0.75000   0.00000  Uiso   1.00
C632   C     0.16666   0.83613   0.75000   0.00000  Uiso   1.00
C633   C     0.15142   0.71193   0.55038   0.00000  Uiso   1.00
C634   C     0.15113   0.78797   0.94543   0.00000  Uiso   1.00
C635   C     0.15159   0.71267   0.60008   0.00000  Uiso   1.00
C636   C     0.15123   0.78723   0.89575   0.00000  Uiso   1.00
C637   C     0.18209   0.78721   0.60426   0.00000  Uiso   1.00
C638   C     0.18174   0.71269   0.89991   0.00000  Uiso   1.00
C639   C     0.18219   0.78796   0.55459   0.00000  Uiso   1.00
C640   C     0.18192   0.71194   0.94961   0.00000  Uiso   1.00
C641   C     0.16671   0.74997   0.52664   0.00000  Uiso   1.00
C642   C     0.16662   0.74997   0.97336   0.00000  Uiso   1.00
C643   C     0.06764   0.74163   0.73769   0.00000  Uiso   1.00
C644   C     0.26569   0.74164   0.76231   0.00000  Uiso   1.00
C645   C     0.01343   0.72366   0.73109   0.00000  Uiso   1.00
C646   C     0.31990   0.72366   0.76892   0.00000  Uiso   1.00
C647   C     0.18514   0.54706   0.79236   0.00000  Uiso   1.00
C648   C     0.18592   0.95296   0.71308   0.00000  Uiso   1.00
C649   C     0.18482   0.59303   0.79244   0.00000  Uiso   1.00
C650   C     0.18562   0.90698   0.71292   0.00000  Uiso   1.00
C651   C     0.16667   0.61600   0.75000   0.00000  Uiso   1.00
C652   C     0.16666   0.88401   0.75000   0.00000  Uiso   1.00
C653   C     0.14852   0.59303   0.70756   0.00000  Uiso   1.00
C654   C     0.14771   0.90699   0.78708   0.00000  Uiso   1.00
C655   C     0.14819   0.54706   0.70764   0.00000  Uiso   1.00
C656   C     0.14740   0.95297   0.78692   0.00000  Uiso   1.00
C657   C     0.16666   0.52406   0.75000   0.00000  Uiso   1.00
C658   C     0.16666   0.97596   0.75000   0.00000  Uiso   1.00
H659   H     0.20021   0.52948   0.82513   0.00000  Uiso   1.00
H660   H     0.20160   0.97055   0.68475   0.00000  Uiso   1.00
H661   H     0.19936   0.61054   0.82538   0.00000  Uiso   1.00
H662   H     0.20083   0.88945   0.68430   0.00000  Uiso   1.00
H663   H     0.13398   0.61053   0.67462   0.00000  Uiso   1.00
H664   H     0.13249   0.88946   0.81569   0.00000  Uiso   1.00
H665   H     0.13312   0.52947   0.67487   0.00000  Uiso   1.00
H666   H     0.13172   0.97056   0.81525   0.00000  Uiso   1.00
H667   H     0.13858   0.68193   0.53065   0.00000  Uiso   1.00
H668   H     0.13818   0.81792   0.96167   0.00000  Uiso   1.00
H669   H     0.13956   0.68322   0.61764   0.00000  Uiso   1.00
H670   H     0.13872   0.81655   0.87478   0.00000  Uiso   1.00
H671   H     0.19461   0.81653   0.62523   0.00000  Uiso   1.00
H672   H     0.19378   0.68324   0.88234   0.00000  Uiso   1.00
H673   H     0.19514   0.81791   0.53835   0.00000  Uiso   1.00
H674   H     0.19475   0.68194   0.96933   0.00000  Uiso   1.00
N675   N     0.16667   0.74999   0.62624   0.00000  Uiso   1.00
N676   N     0.16667   0.75001   0.87377   0.00000  Uiso   1.00
O677   O     0.16667   0.68454   0.78974   0.00000  Uiso   1.00
O678   O     0.16666   0.81547   0.71026   0.00000  Uiso   1.00
O679   O     0.16667   0.68453   0.71026   0.00000  Uiso   1.00
O680   O     0.16666   0.81547   0.78974   0.00000  Uiso   1.00
O681   O     0.09058   0.75000   0.78045   0.00000  Uiso   1.00
O682   O     0.24275   0.75000   0.71956   0.00000  Uiso   1.00
O683   O     0.09058   0.75000   0.70097   0.00000  Uiso   1.00
O684   O     0.24275   0.75001   0.79904   0.00000  Uiso   1.00
Zn685  Zn    0.16667   0.75001   0.80307   0.00000  Uiso   1.00
Zn686  Zn    0.16667   0.75000   0.69693   0.00000  Uiso   1.00
C687   C     0.32242   0.70513   0.68223   0.00000  Uiso   1.00
C688   C     0.02200   0.66603   0.66764   0.00000  Uiso   1.00
H689   H     0.06217   0.67711   0.66085   0.00000  Uiso   1.00
H690   H     0.02709   0.64019   0.69610   0.00000  Uiso   1.00
H691   H     0.00068   0.65090   0.63417   0.00000  Uiso   1.00
H692   H     0.28134   0.69160   0.68248   0.00000  Uiso   1.00
H693   H     0.31999   0.73185   0.65481   0.00000  Uiso   1.00
C694   C     0.01091   0.70514   0.81777   0.00000  Uiso   1.00
C695   C     0.31134   0.66603   0.83236   0.00000  Uiso   1.00
H696   H     0.27116   0.67711   0.83912   0.00000  Uiso   1.00
H697   H     0.30627   0.64019   0.80390   0.00000  Uiso   1.00
H698   H     0.33264   0.65093   0.86583   0.00000  Uiso   1.00
H699   H     0.05200   0.69161   0.81752   0.00000  Uiso   1.00
H700   H     0.01334   0.73186   0.84519   0.00000  Uiso   1.00
C701   C     0.50000   0.66385   0.75000   0.00000  Uiso   1.00
C702   C     0.50000   0.83613   0.75000   0.00000  Uiso   1.00
C703   C     0.48475   0.71193   0.55038   0.00000  Uiso   1.00
C704   C     0.48447   0.78797   0.94543   0.00000  Uiso   1.00
C705   C     0.48493   0.71267   0.60008   0.00000  Uiso   1.00
C706   C     0.48457   0.78723   0.89575   0.00000  Uiso   1.00
C707   C     0.51543   0.78721   0.60426   0.00000  Uiso   1.00
C708   C     0.51508   0.71269   0.89991   0.00000  Uiso   1.00
C709   C     0.51553   0.78796   0.55459   0.00000  Uiso   1.00
C710   C     0.51525   0.71194   0.94961   0.00000  Uiso   1.00
C711   C     0.50005   0.74997   0.52664   0.00000  Uiso   1.00
C712   C     0.49995   0.74997   0.97336   0.00000  Uiso   1.00
C713   C     0.40098   0.74163   0.73769   0.00000  Uiso   1.00
C714   C     0.59902   0.74164   0.76231   0.00000  Uiso   1.00
C715   C     0.34676   0.72366   0.73109   0.00000  Uiso   1.00
C716   C     0.65324   0.72366   0.76892   0.00000  Uiso   1.00
C717   C     0.51847   0.54706   0.79236   0.00000  Uiso   1.00
C718   C     0.51925   0.95296   0.71308   0.00000  Uiso   1.00
C719   C     0.51815   0.59303   0.79244   0.00000  Uiso   1.00
C720   C     0.51895   0.90698   0.71292   0.00000  Uiso   1.00
C721   C     0.50000   0.61600   0.75000   0.00000  Uiso   1.00
C722   C     0.49999   0.88401   0.75000   0.00000  Uiso   1.00
C723   C     0.48185   0.59303   0.70756   0.00000  Uiso   1.00
C724   C     0.48104   0.90699   0.78708   0.00000  Uiso   1.00
C725   C     0.48152   0.54706   0.70764   0.00000  Uiso   1.00
C726   C     0.48074   0.95297   0.78692   0.00000  Uiso   1.00
C727   C     0.50000   0.52406   0.75000   0.00000  Uiso   1.00
C728   C     0.50000   0.97596   0.75000   0.00000  Uiso   1.00
H729   H     0.53355   0.52948   0.82513   0.00000  Uiso   1.00
H730   H     0.53493   0.97055   0.68475   0.00000  Uiso   1.00
H731   H     0.53270   0.61054   0.82538   0.00000  Uiso   1.00
H732   H     0.53417   0.88945   0.68430   0.00000  Uiso   1.00
H733   H     0.46731   0.61053   0.67462   0.00000  Uiso   1.00
H734   H     0.46582   0.88946   0.81569   0.00000  Uiso   1.00
H735   H     0.46645   0.52947   0.67487   0.00000  Uiso   1.00
H736   H     0.46506   0.97056   0.81525   0.00000  Uiso   1.00
H737   H     0.47192   0.68193   0.53065   0.00000  Uiso   1.00
H738   H     0.47151   0.81792   0.96167   0.00000  Uiso   1.00
H739   H     0.47290   0.68322   0.61764   0.00000  Uiso   1.00
H740   H     0.47205   0.81655   0.87478   0.00000  Uiso   1.00
H741   H     0.52794   0.81653   0.62523   0.00000  Uiso   1.00
H742   H     0.52711   0.68324   0.88234   0.00000  Uiso   1.00
H743   H     0.52848   0.81791   0.53835   0.00000  Uiso   1.00
H744   H     0.52809   0.68194   0.96933   0.00000  Uiso   1.00
N745   N     0.50000   0.74999   0.62624   0.00000  Uiso   1.00
N746   N     0.50000   0.75001   0.87377   0.00000  Uiso   1.00
O747   O     0.50000   0.68454   0.78974   0.00000  Uiso   1.00
O748   O     0.50000   0.81547   0.71026   0.00000  Uiso   1.00
O749   O     0.50000   0.68453   0.71026   0.00000  Uiso   1.00
O750   O     0.50000   0.81547   0.78974   0.00000  Uiso   1.00
O751   O     0.42392   0.75000   0.78045   0.00000  Uiso   1.00
O752   O     0.57608   0.75000   0.71956   0.00000  Uiso   1.00
O753   O     0.42392   0.75000   0.70097   0.00000  Uiso   1.00
O754   O     0.57608   0.75001   0.79904   0.00000  Uiso   1.00
Zn755  Zn    0.50000   0.75001   0.80307   0.00000  Uiso   1.00
Zn756  Zn    0.50000   0.75000   0.69693   0.00000  Uiso   1.00
C757   C     0.65576   0.70513   0.68223   0.00000  Uiso   1.00
C758   C     0.35533   0.66603   0.66764   0.00000  Uiso   1.00
H759   H     0.39550   0.67711   0.66085   0.00000  Uiso   1.00
H760   H     0.36043   0.64019   0.69610   0.00000  Uiso   1.00
H761   H     0.33402   0.65090   0.63417   0.00000  Uiso   1.00
H762   H     0.61467   0.69160   0.68248   0.00000  Uiso   1.00
H763   H     0.65332   0.73185   0.65481   0.00000  Uiso   1.00
C764   C     0.34424   0.70514   0.81777   0.00000  Uiso   1.00
C765   C     0.64467   0.66603   0.83236   0.00000  Uiso   1.00
H766   H     0.60449   0.67711   0.83912   0.00000  Uiso   1.00
H767   H     0.63961   0.64019   0.80390   0.00000  Uiso   1.00
H768   H     0.66598   0.65093   0.86583   0.00000  Uiso   1.00
H769   H     0.38533   0.69161   0.81752   0.00000  Uiso   1.00
H770   H     0.34667   0.73186   0.84519   0.00000  Uiso   1.00
C771   C     0.83334   0.66385   0.75000   0.00000  Uiso   1.00
C772   C     0.83333   0.83613   0.75000   0.00000  Uiso   1.00
C773   C     0.81808   0.71193   0.55038   0.00000  Uiso   1.00
C774   C     0.81780   0.78797   0.94543   0.00000  Uiso   1.00
C775   C     0.81826   0.71267   0.60008   0.00000  Uiso   1.00
C776   C     0.81790   0.78723   0.89575   0.00000  Uiso   1.00
C777   C     0.84876   0.78721   0.60426   0.00000  Uiso   1.00
C778   C     0.84841   0.71269   0.89991   0.00000  Uiso   1.00
C779   C     0.84886   0.78796   0.55459   0.00000  Uiso   1.00
C780   C     0.84858   0.71194   0.94961   0.00000  Uiso   1.00
C781   C     0.83338   0.74997   0.52664   0.00000  Uiso   1.00
C782   C     0.83328   0.74997   0.97336   0.00000  Uiso   1.00
C783   C     0.73431   0.74163   0.73769   0.00000  Uiso   1.00
C784   C     0.93236   0.74164   0.76231   0.00000  Uiso   1.00
C785   C     0.68010   0.72366   0.73109   0.00000  Uiso   1.00
C786   C     0.98657   0.72366   0.76892   0.00000  Uiso   1.00
C787   C     0.85181   0.54706   0.79236   0.00000  Uiso   1.00
C788   C     0.85259   0.95296   0.71308   0.00000  Uiso   1.00
C789   C     0.85148   0.59303   0.79244   0.00000  Uiso   1.00
C790   C     0.85228   0.90698   0.71292   0.00000  Uiso   1.00
C791   C     0.83334   0.61600   0.75000   0.00000  Uiso   1.00
C792   C     0.83333   0.88401   0.75000   0.00000  Uiso   1.00
C793   C     0.81519   0.59303   0.70756   0.00000  Uiso   1.00
C794   C     0.81437   0.90699   0.78708   0.00000  Uiso   1.00
C795   C     0.81486   0.54706   0.70764   0.00000  Uiso   1.00
C796   C     0.81407   0.95297   0.78692   0.00000  Uiso   1.00
C797   C     0.83333   0.52406   0.75000   0.00000  Uiso   1.00
C798   C     0.83333   0.97596   0.75000   0.00000  Uiso   1.00
H799   H     0.86688   0.52948   0.82513   0.00000  Uiso   1.00
H800   H     0.86827   0.97055   0.68475   0.00000  Uiso   1.00
H801   H     0.86603   0.61054   0.82538   0.00000  Uiso   1.00
H802   H     0.86750   0.88945   0.68430   0.00000  Uiso   1.00
H803   H     0.80064   0.61053   0.67462   0.00000  Uiso   1.00
H804   H     0.79916   0.88946   0.81569   0.00000  Uiso   1.00
H805   H     0.79978   0.52947   0.67487   0.00000  Uiso   1.00
H806   H     0.79839   0.97056   0.81525   0.00000  Uiso   1.00
H807   H     0.80525   0.68193   0.53065   0.00000  Uiso   1.00
H808   H     0.80485   0.81792   0.96167   0.00000  Uiso   1.00
H809   H     0.80623   0.68322   0.61764   0.00000  Uiso   1.00
H810   H     0.80539   0.81655   0.87478   0.00000  Uiso   1.00
H811   H     0.86127   0.81653   0.62523   0.00000  Uiso   1.00
H812   H     0.86044   0.68324   0.88234   0.00000  Uiso   1.00
H813   H     0.86181   0.81791   0.53835   0.00000  Uiso   1.00
H814   H     0.86142   0.68194   0.96933   0.00000  Uiso   1.00
N815   N     0.83333   0.74999   0.62624   0.00000  Uiso   1.00
N816   N     0.83333   0.75001   0.87377   0.00000  Uiso   1.00
O817   O     0.83334   0.68454   0.78974   0.00000  Uiso   1.00
O818   O     0.83333   0.81547   0.71026   0.00000  Uiso   1.00
O819   O     0.83334   0.68453   0.71026   0.00000  Uiso   1.00
O820   O     0.83333   0.81547   0.78974   0.00000  Uiso   1.00
O821   O     0.75725   0.75000   0.78045   0.00000  Uiso   1.00
O822   O     0.90942   0.75000   0.71956   0.00000  Uiso   1.00
O823   O     0.75725   0.75000   0.70097   0.00000  Uiso   1.00
O824   O     0.90942   0.75001   0.79904   0.00000  Uiso   1.00
Zn825  Zn    0.83333   0.75001   0.80307   0.00000  Uiso   1.00
Zn826  Zn    0.83333   0.75000   0.69693   0.00000  Uiso   1.00
C827   C     0.98909   0.70513   0.68223   0.00000  Uiso   1.00
C828   C     0.68867   0.66603   0.66764   0.00000  Uiso   1.00
H829   H     0.72883   0.67711   0.66085   0.00000  Uiso   1.00
H830   H     0.69376   0.64019   0.69610   0.00000  Uiso   1.00
H831   H     0.66735   0.65090   0.63417   0.00000  Uiso   1.00
H832   H     0.94801   0.69160   0.68248   0.00000  Uiso   1.00
H833   H     0.98665   0.73185   0.65481   0.00000  Uiso   1.00
C834   C     0.67757   0.70514   0.81777   0.00000  Uiso   1.00
C835   C     0.97801   0.66603   0.83236   0.00000  Uiso   1.00
H836   H     0.93782   0.67711   0.83912   0.00000  Uiso   1.00
H837   H     0.97294   0.64019   0.80390   0.00000  Uiso   1.00
H838   H     0.99931   0.65093   0.86583   0.00000  Uiso   1.00
H839   H     0.71866   0.69161   0.81752   0.00000  Uiso   1.00
H840   H     0.68000   0.73186   0.84519   0.00000  Uiso   1.00
loop_
_geom_bond_atom_site_label_1
_geom_bond_atom_site_label_2
_geom_bond_distance
_geom_bond_site_symmetry_2
_ccdc_geom_bond_type
C1     C21     1.437   .     S
C1     O47     1.285   .     A
C1     O49     1.284   .     A
C2     C22     1.438   .     S
C2     O50     1.284   .     A
C2     O48     1.284   .     A
C3     C11     1.408   .     A
C3     H37     1.082   .     S
C3     C5      1.406   .     A
C4     C6      1.406   .     A
C4     C12     1.408   .     A
C4     H38     1.082   .     S
C5     H39     1.080   .     S
C5     N45     1.364   .     A
C6     N46     1.364   .     A
C6     H40     1.081   .     S
C7     N45     1.364   .     A
C7     C9      1.406   .     A
C7     H41     1.081   .     S
C8     H42     1.080   .     S
C8     N46     1.364   .     A
C8     C10     1.406   .     A
C9     C11     1.408   .     A
C9     H43     1.082   .     S
C10    C12     1.408   .     A
C10    H44     1.082   .     S
C11    C432    1.507   1_554 S
C12    C431    1.507   .     S
C13    C15     1.450   .     S
C13    O53     1.288   .     A
C13    O51     1.282   .     A
C14    O52     1.282   .     A
C14    O54     1.288   .     A
C14    C16     1.450   .     S
C15    C156    1.350   1_455 S
C15    C197    1.528   1_455 S
C16    C85     1.350   .     S
C16    C134    1.528   .     S
C17    H29     1.083   .     S
C17    C27     1.399   .     A
C17    C19     1.380   .     A
C18    H30     1.083   .     S
C18    C28     1.399   .     A
C18    C20     1.381   .     A
C19    C21     1.399   .     A
C19    H31     1.083   .     S
C20    H32     1.083   .     S
C20    C22     1.399   .     A
C21    C23     1.399   .     A
C22    C24     1.399   .     A
C23    H33     1.083   .     S
C23    C25     1.380   .     A
C24    C26     1.381   .     A
C24    H34     1.083   .     S
C25    C27     1.399   .     A
C25    H35     1.083   .     S
C26    C28     1.399   .     A
C26    H36     1.083   .     S
C27    C238    1.444   1_545 S
C28    C237    1.444   .     S
N45    Zn56    2.000   .     S
N46    Zn55    2.000   .     S
O47    Zn55    2.002   .     S
O48    Zn56    2.002   .     S
O49    Zn56    2.002   .     S
O50    Zn55    2.002   .     S
O51    Zn55    1.920   .     S
O52    Zn56    1.920   .     S
O53    Zn56    1.932   .     S
O54    Zn55    1.932   .     S
C57    H62     1.110   .     S
C57    H63     1.111   .     S
C57    C85     1.528   .     S
C57    C128    1.529   .     S
C58    H61     1.111   .     S
C58    H60     1.111   .     S
C58    H59     1.107   .     S
C58    C197    1.529   1_455 S
C64    H70     1.111   .     S
C64    H69     1.110   .     S
C64    C156    1.528   1_455 S
C64    C205    1.529   1_455 S
C65    H68     1.111   .     S
C65    H66     1.107   .     S
C65    H67     1.111   .     S
C65    C134    1.529   .     S
C71    C91     1.437   .     S
C71    O117    1.285   .     A
C71    O119    1.284   .     A
C72    C92     1.438   .     S
C72    O120    1.284   .     A
C72    O118    1.284   .     A
C73    C81     1.408   .     A
C73    H107    1.082   .     S
C73    C75     1.406   .     A
C74    C76     1.406   .     A
C74    C82     1.408   .     A
C74    H108    1.082   .     S
C75    H109    1.080   .     S
C75    N115    1.364   .     A
C76    N116    1.364   .     A
C76    H110    1.081   .     S
C77    N115    1.364   .     A
C77    C79     1.406   .     A
C77    H111    1.081   .     S
C78    H112    1.080   .     S
C78    N116    1.364   .     A
C78    C80     1.406   .     A
C79    C81     1.408   .     A
C79    H113    1.082   .     S
C80    C82     1.408   .     A
C80    H114    1.082   .     S
C81    C502    1.507   1_554 S
C82    C501    1.507   .     S
C83    C85     1.450   .     S
C83    O123    1.288   .     A
C83    O121    1.282   .     A
C84    O122    1.282   .     A
C84    O124    1.288   .     A
C84    C86     1.450   .     S
C86    C155    1.350   .     S
C86    C204    1.528   .     S
C87    H99     1.083   .     S
C87    C97     1.399   .     A
C87    C89     1.380   .     A
C88    H100    1.083   .     S
C88    C98     1.399   .     A
C88    C90     1.381   .     A
C89    C91     1.399   .     A
C89    H101    1.083   .     S
C90    H102    1.083   .     S
C90    C92     1.399   .     A
C91    C93     1.399   .     A
C92    C94     1.399   .     A
C93    H103    1.083   .     S
C93    C95     1.380   .     A
C94    C96     1.381   .     A
C94    H104    1.083   .     S
C95    C97     1.399   .     A
C95    H105    1.083   .     S
C96    C98     1.399   .     A
C96    H106    1.083   .     S
C97    C308    1.444   1_545 S
C98    C307    1.444   .     S
N115   Zn126   2.000   .     S
N116   Zn125   2.000   .     S
O117   Zn125   2.002   .     S
O118   Zn126   2.002   .     S
O119   Zn126   2.002   .     S
O120   Zn125   2.002   .     S
O121   Zn125   1.920   .     S
O122   Zn126   1.920   .     S
O123   Zn126   1.932   .     S
O124   Zn125   1.932   .     S
C127   H132    1.110   .     S
C127   H133    1.111   .     S
C127   C155    1.528   .     S
C127   C198    1.529   .     S
C128   H131    1.111   .     S
C128   H130    1.111   .     S
C128   H129    1.107   .     S
C134   H140    1.111   .     S
C134   H139    1.110   .     S
C135   H138    1.111   .     S
C135   H136    1.107   .     S
C135   H137    1.111   .     S
C135   C204    1.529   .     S
C141   C161    1.437   .     S
C141   O187    1.285   .     A
C141   O189    1.284   .     A
C142   C162    1.438   .     S
C142   O190    1.284   .     A
C142   O188    1.284   .     A
C143   C151    1.408   .     A
C143   H177    1.082   .     S
C143   C145    1.406   .     A
C144   C146    1.406   .     A
C144   C152    1.408   .     A
C144   H178    1.082   .     S
C145   H179    1.080   .     S
C145   N185    1.364   .     A
C146   N186    1.364   .     A
C146   H180    1.081   .     S
C147   N185    1.364   .     A
C147   C149    1.406   .     A
C147   H181    1.081   .     S
C148   H182    1.080   .     S
C148   N186    1.364   .     A
C148   C150    1.406   .     A
C149   C151    1.408   .     A
C149   H183    1.082   .     S
C150   C152    1.408   .     A
C150   H184    1.082   .     S
C151   C572    1.507   1_554 S
C152   C571    1.507   .     S
C153   C155    1.450   .     S
C153   O193    1.288   .     A
C153   O191    1.282   .     A
C154   O192    1.282   .     A
C154   O194    1.288   .     A
C154   C156    1.450   .     S
C156   C15     1.350   1_655 S
C156   C64     1.528   1_655 S
C157   H169    1.083   .     S
C157   C167    1.399   .     A
C157   C159    1.380   .     A
C158   H170    1.083   .     S
C158   C168    1.399   .     A
C158   C160    1.381   .     A
C159   C161    1.399   .     A
C159   H171    1.083   .     S
C160   H172    1.083   .     S
C160   C162    1.399   .     A
C161   C163    1.399   .     A
C162   C164    1.399   .     A
C163   H173    1.083   .     S
C163   C165    1.380   .     A
C164   C166    1.381   .     A
C164   H174    1.083   .     S
C165   C167    1.399   .     A
C165   H175    1.083   .     S
C166   C168    1.399   .     A
C166   H176    1.083   .     S
C167   C378    1.444   1_545 S
C168   C377    1.444   .     S
N185   Zn196   2.000   .     S
N186   Zn195   2.000   .     S
O187   Zn195   2.002   .     S
O188   Zn196   2.002   .     S
O189   Zn196   2.002   .     S
O190   Zn195   2.002   .     S
O191   Zn195   1.920   .     S
O192   Zn196   1.920   .     S
O193   Zn196   1.932   .     S
O194   Zn195   1.932   .     S
C197   H202    1.110   .     S
C197   H203    1.111   .     S
C197   C15     1.528   1_655 S
C197   C58     1.529   1_655 S
C198   H201    1.111   .     S
C198   H200    1.111   .     S
C198   H199    1.107   .     S
C204   H210    1.111   .     S
C204   H209    1.110   .     S
C205   H208    1.111   .     S
C205   H206    1.107   .     S
C205   H207    1.111   .     S
C205   C64     1.529   1_655 S
C211   C231    1.437   .     S
C211   O257    1.285   .     A
C211   O259    1.284   .     A
C212   C232    1.438   .     S
C212   O260    1.284   .     A
C212   O258    1.284   .     A
C213   C221    1.408   .     A
C213   H247    1.082   .     S
C213   C215    1.406   .     A
C214   C216    1.406   .     A
C214   C222    1.408   .     A
C214   H248    1.082   .     S
C215   H249    1.080   .     S
C215   N255    1.364   .     A
C216   N256    1.364   .     A
C216   H250    1.081   .     S
C217   N255    1.364   .     A
C217   C219    1.406   .     A
C217   H251    1.081   .     S
C218   H252    1.080   .     S
C218   N256    1.364   .     A
C218   C220    1.406   .     A
C219   C221    1.408   .     A
C219   H253    1.082   .     S
C220   C222    1.408   .     A
C220   H254    1.082   .     S
C221   C642    1.507   1_554 S
C222   C641    1.507   .     S
C223   C225    1.450   .     S
C223   O263    1.288   .     A
C223   O261    1.282   .     A
C224   O262    1.282   .     A
C224   O264    1.288   .     A
C224   C226    1.450   .     S
C225   C366    1.350   1_455 S
C225   C407    1.528   1_455 S
C226   C295    1.350   .     S
C226   C344    1.528   .     S
C227   H239    1.083   .     S
C227   C237    1.399   .     A
C227   C229    1.380   .     A
C228   H240    1.083   .     S
C228   C238    1.399   .     A
C228   C230    1.381   .     A
C229   C231    1.399   .     A
C229   H241    1.083   .     S
C230   H242    1.083   .     S
C230   C232    1.399   .     A
C231   C233    1.399   .     A
C232   C234    1.399   .     A
C233   H243    1.083   .     S
C233   C235    1.380   .     A
C234   C236    1.381   .     A
C234   H244    1.083   .     S
C235   C237    1.399   .     A
C235   H245    1.083   .     S
C236   C238    1.399   .     A
C236   H246    1.083   .     S
C238   C27     1.444   1_565 S
N255   Zn266   2.000   .     S
N256   Zn265   2.000   .     S
O257   Zn265   2.002   .     S
O258   Zn266   2.002   .     S
O259   Zn266   2.002   .     S
O260   Zn265   2.002   .     S
O261   Zn265   1.920   .     S
O262   Zn266   1.920   .     S
O263   Zn266   1.932   .     S
O264   Zn265   1.932   .     S
C267   H272    1.110   .     S
C267   H273    1.111   .     S
C267   C295    1.528   .     S
C267   C338    1.529   .     S
C268   H271    1.111   .     S
C268   H270    1.111   .     S
C268   H269    1.107   .     S
C268   C407    1.529   1_455 S
C274   H280    1.111   .     S
C274   H279    1.110   .     S
C274   C366    1.528   1_455 S
C274   C415    1.529   1_455 S
C275   H278    1.111   .     S
C275   H276    1.107   .     S
C275   H277    1.111   .     S
C275   C344    1.529   .     S
C281   C301    1.437   .     S
C281   O327    1.285   .     A
C281   O329    1.284   .     A
C282   C302    1.438   .     S
C282   O330    1.284   .     A
C282   O328    1.284   .     A
C283   C291    1.408   .     A
C283   H317    1.082   .     S
C283   C285    1.406   .     A
C284   C286    1.406   .     A
C284   C292    1.408   .     A
C284   H318    1.082   .     S
C285   H319    1.080   .     S
C285   N325    1.364   .     A
C286   N326    1.364   .     A
C286   H320    1.081   .     S
C287   N325    1.364   .     A
C287   C289    1.406   .     A
C287   H321    1.081   .     S
C288   H322    1.080   .     S
C288   N326    1.364   .     A
C288   C290    1.406   .     A
C289   C291    1.408   .     A
C289   H323    1.082   .     S
C290   C292    1.408   .     A
C290   H324    1.082   .     S
C291   C712    1.507   1_554 S
C292   C711    1.507   .     S
C293   C295    1.450   .     S
C293   O333    1.288   .     A
C293   O331    1.282   .     A
C294   O332    1.282   .     A
C294   O334    1.288   .     A
C294   C296    1.450   .     S
C296   C365    1.350   .     S
C296   C414    1.528   .     S
C297   H309    1.083   .     S
C297   C307    1.399   .     A
C297   C299    1.380   .     A
C298   H310    1.083   .     S
C298   C308    1.399   .     A
C298   C300    1.381   .     A
C299   C301    1.399   .     A
C299   H311    1.083   .     S
C300   H312    1.083   .     S
C300   C302    1.399   .     A
C301   C303    1.399   .     A
C302   C304    1.399   .     A
C303   H313    1.083   .     S
C303   C305    1.380   .     A
C304   C306    1.381   .     A
C304   H314    1.083   .     S
C305   C307    1.399   .     A
C305   H315    1.083   .     S
C306   C308    1.399   .     A
C306   H316    1.083   .     S
C308   C97     1.444   1_565 S
N325   Zn336   2.000   .     S
N326   Zn335   2.000   .     S
O327   Zn335   2.002   .     S
O328   Zn336   2.002   .     S
O329   Zn336   2.002   .     S
O330   Zn335   2.002   .     S
O331   Zn335   1.920   .     S
O332   Zn336   1.920   .     S
O333   Zn336   1.932   .     S
O334   Zn335   1.932   .     S
C337   H342    1.110   .     S
C337   H343    1.111   .     S
C337   C365    1.528   .     S
C337   C408    1.529   .     S
C338   H341    1.111   .     S
C338   H340    1.111   .     S
C338   H339    1.107   .     S
C344   H350    1.111   .     S
C344   H349    1.110   .     S
C345   H348    1.111   .     S
C345   H346    1.107   .     S
C345   H347    1.111   .     S
C345   C414    1.529   .     S
C351   C371    1.437   .     S
C351   O397    1.285   .     A
C351   O399    1.284   .     A
C352   C372    1.438   .     S
C352   O400    1.284   .     A
C352   O398    1.284   .     A
C353   C361    1.408   .     A
C353   H387    1.082   .     S
C353   C355    1.406   .     A
C354   C356    1.406   .     A
C354   C362    1.408   .     A
C354   H388    1.082   .     S
C355   H389    1.080   .     S
C355   N395    1.364   .     A
C356   N396    1.364   .     A
C356   H390    1.081   .     S
C357   N395    1.364   .     A
C357   C359    1.406   .     A
C357   H391    1.081   .     S
C358   H392    1.080   .     S
C358   N396    1.364   .     A
C358   C360    1.406   .     A
C359   C361    1.408   .     A
C359   H393    1.082   .     S
C360   C362    1.408   .     A
C360   H394    1.082   .     S
C361   C782    1.507   1_554 S
C362   C781    1.507   .     S
C363   C365    1.450   .     S
C363   O403    1.288   .     A
C363   O401    1.282   .     A
C364   O402    1.282   .     A
C364   O404    1.288   .     A
C364   C366    1.450   .     S
C366   C225    1.350   1_655 S
C366   C274    1.528   1_655 S
C367   H379    1.083   .     S
C367   C377    1.399   .     A
C367   C369    1.380   .     A
C368   H380    1.083   .     S
C368   C378    1.399   .     A
C368   C370    1.381   .     A
C369   C371    1.399   .     A
C369   H381    1.083   .     S
C370   H382    1.083   .     S
C370   C372    1.399   .     A
C371   C373    1.399   .     A
C372   C374    1.399   .     A
C373   H383    1.083   .     S
C373   C375    1.380   .     A
C374   C376    1.381   .     A
C374   H384    1.083   .     S
C375   C377    1.399   .     A
C375   H385    1.083   .     S
C376   C378    1.399   .     A
C376   H386    1.083   .     S
C378   C167    1.444   1_565 S
N395   Zn406   2.000   .     S
N396   Zn405   2.000   .     S
O397   Zn405   2.002   .     S
O398   Zn406   2.002   .     S
O399   Zn406   2.002   .     S
O400   Zn405   2.002   .     S
O401   Zn405   1.920   .     S
O402   Zn406   1.920   .     S
O403   Zn406   1.932   .     S
O404   Zn405   1.932   .     S
C407   H412    1.110   .     S
C407   H413    1.111   .     S
C407   C225    1.528   1_655 S
C407   C268    1.529   1_655 S
C408   H411    1.111   .     S
C408   H410    1.111   .     S
C408   H409    1.107   .     S
C414   H420    1.111   .     S
C414   H419    1.110   .     S
C415   H418    1.111   .     S
C415   H416    1.107   .     S
C415   H417    1.111   .     S
C415   C274    1.529   1_655 S
C421   C441    1.437   .     S
C421   O467    1.285   .     A
C421   O469    1.284   .     A
C422   C442    1.438   .     S
C422   O470    1.284   .     A
C422   O468    1.284   .     A
C423   C431    1.408   .     A
C423   H457    1.082   .     S
C423   C425    1.406   .     A
C424   C426    1.406   .     A
C424   C432    1.408   .     A
C424   H458    1.082   .     S
C425   H459    1.080   .     S
C425   N465    1.364   .     A
C426   N466    1.364   .     A
C426   H460    1.081   .     S
C427   N465    1.364   .     A
C427   C429    1.406   .     A
C427   H461    1.081   .     S
C428   H462    1.080   .     S
C428   N466    1.364   .     A
C428   C430    1.406   .     A
C429   C431    1.408   .     A
C429   H463    1.082   .     S
C430   C432    1.408   .     A
C430   H464    1.082   .     S
C432   C11     1.507   1_556 S
C433   C435    1.450   .     S
C433   O473    1.288   .     A
C433   O471    1.282   .     A
C434   O472    1.282   .     A
C434   O474    1.288   .     A
C434   C436    1.450   .     S
C435   C576    1.350   1_455 S
C435   C617    1.528   1_455 S
C436   C505    1.350   .     S
C436   C554    1.528   .     S
C437   H449    1.083   .     S
C437   C447    1.399   .     A
C437   C439    1.380   .     A
C438   H450    1.083   .     S
C438   C448    1.399   .     A
C438   C440    1.381   .     A
C439   C441    1.399   .     A
C439   H451    1.083   .     S
C440   H452    1.083   .     S
C440   C442    1.399   .     A
C441   C443    1.399   .     A
C442   C444    1.399   .     A
C443   H453    1.083   .     S
C443   C445    1.380   .     A
C444   C446    1.381   .     A
C444   H454    1.083   .     S
C445   C447    1.399   .     A
C445   H455    1.083   .     S
C446   C448    1.399   .     A
C446   H456    1.083   .     S
C447   C658    1.444   1_545 S
C448   C657    1.444   .     S
N465   Zn476   2.000   .     S
N466   Zn475   2.000   .     S
O467   Zn475   2.002   .     S
O468   Zn476   2.002   .     S
O469   Zn476   2.002   .     S
O470   Zn475   2.002   .     S
O471   Zn475   1.920   .     S
O472   Zn476   1.920   .     S
O473   Zn476   1.932   .     S
O474   Zn475   1.932   .     S
C477   H482    1.110   .     S
C477   H483    1.111   .     S
C477   C505    1.528   .     S
C477   C548    1.529   .     S
C478   H481    1.111   .     S
C478   H480    1.111   .     S
C478   H479    1.107   .     S
C478   C617    1.529   1_455 S
C484   H490    1.111   .     S
C484   H489    1.110   .     S
C484   C576    1.528   1_455 S
C484   C625    1.529   1_455 S
C485   H488    1.111   .     S
C485   H486    1.107   .     S
C485   H487    1.111   .     S
C485   C554    1.529   .     S
C491   C511    1.437   .     S
C491   O537    1.285   .     A
C491   O539    1.284   .     A
C492   C512    1.438   .     S
C492   O540    1.284   .     A
C492   O538    1.284   .     A
C493   C501    1.408   .     A
C493   H527    1.082   .     S
C493   C495    1.406   .     A
C494   C496    1.406   .     A
C494   C502    1.408   .     A
C494   H528    1.082   .     S
C495   H529    1.080   .     S
C495   N535    1.364   .     A
C496   N536    1.364   .     A
C496   H530    1.081   .     S
C497   N535    1.364   .     A
C497   C499    1.406   .     A
C497   H531    1.081   .     S
C498   H532    1.080   .     S
C498   N536    1.364   .     A
C498   C500    1.406   .     A
C499   C501    1.408   .     A
C499   H533    1.082   .     S
C500   C502    1.408   .     A
C500   H534    1.082   .     S
C502   C81     1.507   1_556 S
C503   C505    1.450   .     S
C503   O543    1.288   .     A
C503   O541    1.282   .     A
C504   O542    1.282   .     A
C504   O544    1.288   .     A
C504   C506    1.450   .     S
C506   C575    1.350   .     S
C506   C624    1.528   .     S
C507   H519    1.083   .     S
C507   C517    1.399   .     A
C507   C509    1.380   .     A
C508   H520    1.083   .     S
C508   C518    1.399   .     A
C508   C510    1.381   .     A
C509   C511    1.399   .     A
C509   H521    1.083   .     S
C510   H522    1.083   .     S
C510   C512    1.399   .     A
C511   C513    1.399   .     A
C512   C514    1.399   .     A
C513   H523    1.083   .     S
C513   C515    1.380   .     A
C514   C516    1.381   .     A
C514   H524    1.083   .     S
C515   C517    1.399   .     A
C515   H525    1.083   .     S
C516   C518    1.399   .     A
C516   H526    1.083   .     S
C517   C728    1.444   1_545 S
C518   C727    1.444   .     S
N535   Zn546   2.000   .     S
N536   Zn545   2.000   .     S
O537   Zn545   2.002   .     S
O538   Zn546   2.002   .     S
O539   Zn546   2.002   .     S
O540   Zn545   2.002   .     S
O541   Zn545   1.920   .     S
O542   Zn546   1.920   .     S
O543   Zn546   1.932   .     S
O544   Zn545   1.932   .     S
C547   H552    1.110   .     S
C547   H553    1.111   .     S
C547   C575    1.528   .     S
C547   C618    1.529   .     S
C548   H551    1.111   .     S
C548   H550    1.111   .     S
C548   H549    1.107   .     S
C554   H560    1.111   .     S
C554   H559    1.110   .     S
C555   H558    1.111   .     S
C555   H556    1.107   .     S
C555   H557    1.111   .     S
C555   C624    1.529   .     S
C561   C581    1.437   .     S
C561   O607    1.285   .     A
C561   O609    1.284   .     A
C562   C582    1.438   .     S
C562   O610    1.284   .     A
C562   O608    1.284   .     A
C563   C571    1.408   .     A
C563   H597    1.082   .     S
C563   C565    1.406   .     A
C564   C566    1.406   .     A
C564   C572    1.408   .     A
C564   H598    1.082   .     S
C565   H599    1.080   .     S
C565   N605    1.364   .     A
C566   N606    1.364   .     A
C566   H600    1.081   .     S
C567   N605    1.364   .     A
C567   C569    1.406   .     A
C567   H601    1.081   .     S
C568   H602    1.080   .     S
C568   N606    1.364   .     A
C568   C570    1.406   .     A
C569   C571    1.408   .     A
C569   H603    1.082   .     S
C570   C572    1.408   .     A
C570   H604    1.082   .     S
C572   C151    1.507   1_556 S
C573   C575    1.450   .     S
C573   O613    1.288   .     A
C573   O611    1.282   .     A
C574   O612    1.282   .     A
C574   O614    1.288   .     A
C574   C576    1.450   .     S
C576   C435    1.350   1_655 S
C576   C484    1.528   1_655 S
C577   H589    1.083   .     S
C577   C587    1.399   .     A
C577   C579    1.380   .     A
C578   H590    1.083   .     S
C578   C588    1.399   .     A
C578   C580    1.381   .     A
C579   C581    1.399   .     A
C579   H591    1.083   .     S
C580   H592    1.083   .     S
C580   C582    1.399   .     A
C581   C583    1.399   .     A
C582   C584    1.399   .     A
C583   H593    1.083   .     S
C583   C585    1.380   .     A
C584   C586    1.381   .     A
C584   H594    1.083   .     S
C585   C587    1.399   .     A
C585   H595    1.083   .     S
C586   C588    1.399   .     A
C586   H596    1.083   .     S
C587   C798    1.444   1_545 S
C588   C797    1.444   .     S
N605   Zn616   2.000   .     S
N606   Zn615   2.000   .     S
O607   Zn615   2.002   .     S
O608   Zn616   2.002   .     S
O609   Zn616   2.002   .     S
O610   Zn615   2.002   .     S
O611   Zn615   1.920   .     S
O612   Zn616   1.920   .     S
O613   Zn616   1.932   .     S
O614   Zn615   1.932   .     S
C617   H622    1.110   .     S
C617   H623    1.111   .     S
C617   C435    1.528   1_655 S
C617   C478    1.529   1_655 S
C618   H621    1.111   .     S
C618   H620    1.111   .     S
C618   H619    1.107   .     S
C624   H630    1.111   .     S
C624   H629    1.110   .     S
C625   H628    1.111   .     S
C625   H626    1.107   .     S
C625   H627    1.111   .     S
C625   C484    1.529   1_655 S
C631   C651    1.437   .     S
C631   O677    1.285   .     A
C631   O679    1.284   .     A
C632   C652    1.438   .     S
C632   O680    1.284   .     A
C632   O678    1.284   .     A
C633   C641    1.408   .     A
C633   H667    1.082   .     S
C633   C635    1.406   .     A
C634   C636    1.406   .     A
C634   C642    1.408   .     A
C634   H668    1.082   .     S
C635   H669    1.080   .     S
C635   N675    1.364   .     A
C636   N676    1.364   .     A
C636   H670    1.081   .     S
C637   N675    1.364   .     A
C637   C639    1.406   .     A
C637   H671    1.081   .     S
C638   H672    1.080   .     S
C638   N676    1.364   .     A
C638   C640    1.406   .     A
C639   C641    1.408   .     A
C639   H673    1.082   .     S
C640   C642    1.408   .     A
C640   H674    1.082   .     S
C642   C221    1.507   1_556 S
C643   C645    1.450   .     S
C643   O683    1.288   .     A
C643   O681    1.282   .     A
C644   O682    1.282   .     A
C644   O684    1.288   .     A
C644   C646    1.450   .     S
C645   C786    1.350   1_455 S
C645   C827    1.528   1_455 S
C646   C715    1.350   .     S
C646   C764    1.528   .     S
C647   H659    1.083   .     S
C647   C657    1.399   .     A
C647   C649    1.380   .     A
C648   H660    1.083   .     S
C648   C658    1.399   .     A
C648   C650    1.381   .     A
C649   C651    1.399   .     A
C649   H661    1.083   .     S
C650   H662    1.083   .     S
C650   C652    1.399   .     A
C651   C653    1.399   .     A
C652   C654    1.399   .     A
C653   H663    1.083   .     S
C653   C655    1.380   .     A
C654   C656    1.381   .     A
C654   H664    1.083   .     S
C655   C657    1.399   .     A
C655   H665    1.083   .     S
C656   C658    1.399   .     A
C656   H666    1.083   .     S
C658   C447    1.444   1_565 S
N675   Zn686   2.000   .     S
N676   Zn685   2.000   .     S
O677   Zn685   2.002   .     S
O678   Zn686   2.002   .     S
O679   Zn686   2.002   .     S
O680   Zn685   2.002   .     S
O681   Zn685   1.920   .     S
O682   Zn686   1.920   .     S
O683   Zn686   1.932   .     S
O684   Zn685   1.932   .     S
C687   H692    1.110   .     S
C687   H693    1.111   .     S
C687   C715    1.528   .     S
C687   C758    1.529   .     S
C688   H691    1.111   .     S
C688   H690    1.111   .     S
C688   H689    1.107   .     S
C688   C827    1.529   1_455 S
C694   H700    1.111   .     S
C694   H699    1.110   .     S
C694   C786    1.528   1_455 S
C694   C835    1.529   1_455 S
C695   H698    1.111   .     S
C695   H696    1.107   .     S
C695   H697    1.111   .     S
C695   C764    1.529   .     S
C701   C721    1.437   .     S
C701   O747    1.285   .     A
C701   O749    1.284   .     A
C702   C722    1.438   .     S
C702   O750    1.284   .     A
C702   O748    1.284   .     A
C703   C711    1.408   .     A
C703   H737    1.082   .     S
C703   C705    1.406   .     A
C704   C706    1.406   .     A
C704   C712    1.408   .     A
C704   H738    1.082   .     S
C705   H739    1.080   .     S
C705   N745    1.364   .     A
C706   N746    1.364   .     A
C706   H740    1.081   .     S
C707   N745    1.364   .     A
C707   C709    1.406   .     A
C707   H741    1.081   .     S
C708   H742    1.080   .     S
C708   N746    1.364   .     A
C708   C710    1.406   .     A
C709   C711    1.408   .     A
C709   H743    1.082   .     S
C710   C712    1.408   .     A
C710   H744    1.082   .     S
C712   C291    1.507   1_556 S
C713   C715    1.450   .     S
C713   O753    1.288   .     A
C713   O751    1.282   .     A
C714   O752    1.282   .     A
C714   O754    1.288   .     A
C714   C716    1.450   .     S
C716   C785    1.350   .     S
C716   C834    1.528   .     S
C717   H729    1.083   .     S
C717   C727    1.399   .     A
C717   C719    1.380   .     A
C718   H730    1.083   .     S
C718   C728    1.399   .     A
C718   C720    1.381   .     A
C719   C721    1.399   .     A
C719   H731    1.083   .     S
C720   H732    1.083   .     S
C720   C722    1.399   .     A
C721   C723    1.399   .     A
C722   C724    1.399   .     A
C723   H733    1.083   .     S
C723   C725    1.380   .     A
C724   C726    1.381   .     A
C724   H734    1.083   .     S
C725   C727    1.399   .     A
C725   H735    1.083   .     S
C726   C728    1.399   .     A
C726   H736    1.083   .     S
C728   C517    1.444   1_565 S
N745   Zn756   2.000   .     S
N746   Zn755   2.000   .     S
O747   Zn755   2.002   .     S
O748   Zn756   2.002   .     S
O749   Zn756   2.002   .     S
O750   Zn755   2.002   .     S
O751   Zn755   1.920   .     S
O752   Zn756   1.920   .     S
O753   Zn756   1.932   .     S
O754   Zn755   1.932   .     S
C757   H762    1.110   .     S
C757   H763    1.111   .     S
C757   C785    1.528   .     S
C757   C828    1.529   .     S
C758   H761    1.111   .     S
C758   H760    1.111   .     S
C758   H759    1.107   .     S
C764   H770    1.111   .     S
C764   H769    1.110   .     S
C765   H768    1.111   .     S
C765   H766    1.107   .     S
C765   H767    1.111   .     S
C765   C834    1.529   .     S
C771   C791    1.437   .     S
C771   O817    1.285   .     A
C771   O819    1.284   .     A
C772   C792    1.438   .     S
C772   O820    1.284   .     A
C772   O818    1.284   .     A
C773   C781    1.408   .     A
C773   H807    1.082   .     S
C773   C775    1.406   .     A
C774   C776    1.406   .     A
C774   C782    1.408   .     A
C774   H808    1.082   .     S
C775   H809    1.080   .     S
C775   N815    1.364   .     A
C776   N816    1.364   .     A
C776   H810    1.081   .     S
C777   N815    1.364   .     A
C777   C779    1.406   .     A
C777   H811    1.081   .     S
C778   H812    1.080   .     S
C778   N816    1.364   .     A
C778   C780    1.406   .     A
C779   C781    1.408   .     A
C779   H813    1.082   .     S
C780   C782    1.408   .     A
C780   H814    1.082   .     S
C782   C361    1.507   1_556 S
C783   C785    1.450   .     S
C783   O823    1.288   .     A
C783   O821    1.282   .     A
C784   O822    1.282   .     A
C784   O824    1.288   .     A
C784   C786    1.450   .     S
C786   C645    1.350   1_655 S
C786   C694    1.528   1_655 S
C787   H799    1.083   .     S
C787   C797    1.399   .     A
C787   C789    1.380   .     A
C788   H800    1.083   .     S
C788   C798    1.399   .     A
C788   C790    1.381   .     A
C789   C791    1.399   .     A
C789   H801    1.083   .     S
C790   H802    1.083   .     S
C790   C792    1.399   .     A
C791   C793    1.399   .     A
C792   C794    1.399   .     A
C793   H803    1.083   .     S
C793   C795    1.380   .     A
C794   C796    1.381   .     A
C794   H804    1.083   .     S
C795   C797    1.399   .     A
C795   H805    1.083   .     S
C796   C798    1.399   .     A
C796   H806    1.083   .     S
C798   C587    1.444   1_565 S
N815   Zn826   2.000   .     S
N816   Zn825   2.000   .     S
O817   Zn825   2.002   .     S
O818   Zn826   2.002   .     S
O819   Zn826   2.002   .     S
O820   Zn825   2.002   .     S
O821   Zn825   1.920   .     S
O822   Zn826   1.920   .     S
O823   Zn826   1.932   .     S
O824   Zn825   1.932   .     S
C827   H832    1.110   .     S
C827   H833    1.111   .     S
C827   C645    1.528   1_655 S
C827   C688    1.529   1_655 S
C828   H831    1.111   .     S
C828   H830    1.111   .     S
C828   H829    1.107   .     S
C834   H840    1.111   .     S
C834   H839    1.110   .     S
C835   H838    1.111   .     S
C835   H836    1.107   .     S
C835   H837    1.111   .     S
C835   C694    1.529   1_655 S
