data_str_m2_o1_o2_pcu_sym.80
_audit_creation_date              2020-01-03
_audit_creation_method            'Materials Studio'
_symmetry_space_group_name_H-M    'P1'
_symmetry_Int_Tables_number       1
_symmetry_cell_setting            triclinic
loop_
_symmetry_equiv_pos_as_xyz
  x,y,z
_cell_length_a                    32.9389
_cell_length_b                    28.8135
_cell_length_c                    30.4454
_cell_angle_alpha                 89.9989
_cell_angle_beta                  95.3559
_cell_angle_gamma                 89.9999
loop_
_atom_site_label
_atom_site_type_symbol
_atom_site_fract_x
_atom_site_fract_y
_atom_site_fract_z
_atom_site_U_iso_or_equiv
_atom_site_adp_type
_atom_site_occupancy
C1     C     0.08749   0.16668   0.25098   0.00000  Uiso   1.00
C2     C     0.31197   0.20923   0.24922   0.00000  Uiso   1.00
C3     C     0.31194   0.12426   0.24849   0.00000  Uiso   1.00
C4     C     0.02137   0.20923   0.25078   0.00000  Uiso   1.00
C5     C     0.17988   0.20833   0.04871   0.00000  Uiso   1.00
C6     C     0.17265   0.12745   0.45298   0.00000  Uiso   1.00
C7     C     0.15344   0.20832   0.45129   0.00000  Uiso   1.00
C8     C     0.16068   0.12745   0.04702   0.00000  Uiso   1.00
C9     C     0.18342   0.20773   0.09476   0.00000  Uiso   1.00
C10    C     0.16641   0.12514   0.40749   0.00000  Uiso   1.00
C11    C     0.14991   0.20772   0.40524   0.00000  Uiso   1.00
C12    C     0.24585   0.16668   0.24902   0.00000  Uiso   1.00
C13    C     0.16693   0.12514   0.09251   0.00000  Uiso   1.00
C14    C     0.17434   0.16634   0.11741   0.00000  Uiso   1.00
C15    C     0.15899   0.16634   0.38259   0.00000  Uiso   1.00
C16    C     0.16800   0.16848   0.02440   0.00000  Uiso   1.00
C17    C     0.16532   0.16848   0.47560   0.00000  Uiso   1.00
C18    C     0.29051   0.16674   0.24790   0.00000  Uiso   1.00
C19    C     0.04282   0.16674   0.25210   0.00000  Uiso   1.00
C20    C     0.16966   0.16660   0.16538   0.00000  Uiso   1.00
C21    C     0.16367   0.16660   0.33462   0.00000  Uiso   1.00
C22    C     0.14043   0.02473   0.22068   0.00000  Uiso   1.00
C23    C     0.19253   0.30858   0.27970   0.00000  Uiso   1.00
C24    C     0.19290   0.02473   0.27932   0.00000  Uiso   1.00
C25    C     0.14080   0.30858   0.22030   0.00000  Uiso   1.00
C26    C     0.02140   0.12426   0.25151   0.00000  Uiso   1.00
Cu27   Cu    0.16667   0.21355   0.25000   0.00000  Uiso   1.00
Cu28   Cu    0.16667   0.11978   0.25000   0.00000  Uiso   1.00
H29    H     0.18775   0.23987   0.03213   0.00000  Uiso   1.00
H30    H     0.30673   0.27340   0.26759   0.00000  Uiso   1.00
H31    H     0.30559   0.05964   0.26487   0.00000  Uiso   1.00
H32    H     0.02660   0.27341   0.23241   0.00000  Uiso   1.00
H33    H     0.18222   0.09601   0.47037   0.00000  Uiso   1.00
H34    H     0.14557   0.23986   0.46786   0.00000  Uiso   1.00
H35    H     0.15112   0.09600   0.02964   0.00000  Uiso   1.00
H36    H     0.21548   0.23848   0.14239   0.00000  Uiso   1.00
H37    H     0.14198   0.07916   0.36809   0.00000  Uiso   1.00
H38    H     0.11784   0.23847   0.35761   0.00000  Uiso   1.00
H39    H     0.19137   0.07917   0.13192   0.00000  Uiso   1.00
H40    H     0.02774   0.05965   0.23512   0.00000  Uiso   1.00
I41    I     0.09752   0.05960   0.17442   0.00000  Uiso   1.00
I42    I     0.23317   0.27364   0.32832   0.00000  Uiso   1.00
I43    I     0.23581   0.05960   0.32558   0.00000  Uiso   1.00
I44    I     0.10016   0.27365   0.17168   0.00000  Uiso   1.00
N45    N     0.16667   0.28402   0.25000   0.00000  Uiso   1.00
N46    N     0.16667   0.04931   0.25000   0.00000  Uiso   1.00
O47    O     0.10655   0.20625   0.25000   0.00000  Uiso   1.00
O48    O     0.16688   0.08170   0.38893   0.00000  Uiso   1.00
O49    O     0.13609   0.24767   0.38388   0.00000  Uiso   1.00
O50    O     0.16647   0.08170   0.11108   0.00000  Uiso   1.00
O51    O     0.04270   0.08292   0.25435   0.00000  Uiso   1.00
O52    O     0.29079   0.25063   0.24866   0.00000  Uiso   1.00
O53    O     0.29063   0.08292   0.24565   0.00000  Uiso   1.00
O54    O     0.04254   0.25063   0.25134   0.00000  Uiso   1.00
O55    O     0.22679   0.12709   0.25001   0.00000  Uiso   1.00
O56    O     0.22679   0.20625   0.25001   0.00000  Uiso   1.00
O57    O     0.10655   0.12709   0.25000   0.00000  Uiso   1.00
O58    O     0.16666   0.20626   0.18573   0.00000  Uiso   1.00
O59    O     0.16667   0.12707   0.31427   0.00000  Uiso   1.00
O60    O     0.16667   0.20626   0.31427   0.00000  Uiso   1.00
O61    O     0.16666   0.12707   0.18573   0.00000  Uiso   1.00
O62    O     0.19723   0.24767   0.11611   0.00000  Uiso   1.00
C63    C     0.42082   0.16668   0.25098   0.00000  Uiso   1.00
C64    C     0.64530   0.20923   0.24922   0.00000  Uiso   1.00
C65    C     0.64527   0.12426   0.24849   0.00000  Uiso   1.00
C66    C     0.35470   0.20923   0.25078   0.00000  Uiso   1.00
C67    C     0.51322   0.20833   0.04871   0.00000  Uiso   1.00
C68    C     0.50599   0.12745   0.45298   0.00000  Uiso   1.00
C69    C     0.48677   0.20832   0.45129   0.00000  Uiso   1.00
C70    C     0.49402   0.12745   0.04702   0.00000  Uiso   1.00
C71    C     0.51675   0.20773   0.09476   0.00000  Uiso   1.00
C72    C     0.49974   0.12514   0.40749   0.00000  Uiso   1.00
C73    C     0.48324   0.20772   0.40524   0.00000  Uiso   1.00
C74    C     0.57918   0.16668   0.24902   0.00000  Uiso   1.00
C75    C     0.50026   0.12514   0.09251   0.00000  Uiso   1.00
C76    C     0.50767   0.16634   0.11741   0.00000  Uiso   1.00
C77    C     0.49233   0.16634   0.38259   0.00000  Uiso   1.00
C78    C     0.50134   0.16848   0.02440   0.00000  Uiso   1.00
C79    C     0.49866   0.16848   0.47560   0.00000  Uiso   1.00
C80    C     0.62385   0.16674   0.24790   0.00000  Uiso   1.00
C81    C     0.37615   0.16674   0.25210   0.00000  Uiso   1.00
C82    C     0.50300   0.16660   0.16538   0.00000  Uiso   1.00
C83    C     0.49700   0.16660   0.33462   0.00000  Uiso   1.00
C84    C     0.47377   0.02473   0.22068   0.00000  Uiso   1.00
C85    C     0.52587   0.30858   0.27970   0.00000  Uiso   1.00
C86    C     0.52623   0.02473   0.27932   0.00000  Uiso   1.00
C87    C     0.47414   0.30858   0.22030   0.00000  Uiso   1.00
C88    C     0.35473   0.12426   0.25151   0.00000  Uiso   1.00
Cu89   Cu    0.50000   0.21355   0.25000   0.00000  Uiso   1.00
Cu90   Cu    0.50000   0.11978   0.25000   0.00000  Uiso   1.00
H91    H     0.52108   0.23987   0.03213   0.00000  Uiso   1.00
H92    H     0.64006   0.27340   0.26759   0.00000  Uiso   1.00
H93    H     0.63892   0.05964   0.26487   0.00000  Uiso   1.00
H94    H     0.35993   0.27341   0.23241   0.00000  Uiso   1.00
H95    H     0.51555   0.09601   0.47037   0.00000  Uiso   1.00
H96    H     0.47890   0.23986   0.46786   0.00000  Uiso   1.00
H97    H     0.48445   0.09600   0.02964   0.00000  Uiso   1.00
H98    H     0.54881   0.23848   0.14239   0.00000  Uiso   1.00
H99    H     0.47532   0.07916   0.36809   0.00000  Uiso   1.00
H100   H     0.45118   0.23847   0.35761   0.00000  Uiso   1.00
H101   H     0.52470   0.07917   0.13192   0.00000  Uiso   1.00
H102   H     0.36108   0.05965   0.23512   0.00000  Uiso   1.00
I103   I     0.43085   0.05960   0.17442   0.00000  Uiso   1.00
I104   I     0.56651   0.27364   0.32832   0.00000  Uiso   1.00
I105   I     0.56915   0.05960   0.32558   0.00000  Uiso   1.00
I106   I     0.43349   0.27365   0.17168   0.00000  Uiso   1.00
N107   N     0.50000   0.28402   0.25000   0.00000  Uiso   1.00
N108   N     0.50000   0.04931   0.25000   0.00000  Uiso   1.00
O109   O     0.43988   0.20625   0.25000   0.00000  Uiso   1.00
O110   O     0.50021   0.08170   0.38893   0.00000  Uiso   1.00
O111   O     0.46942   0.24767   0.38388   0.00000  Uiso   1.00
O112   O     0.49981   0.08170   0.11108   0.00000  Uiso   1.00
O113   O     0.37603   0.08292   0.25435   0.00000  Uiso   1.00
O114   O     0.62412   0.25063   0.24866   0.00000  Uiso   1.00
O115   O     0.62397   0.08292   0.24565   0.00000  Uiso   1.00
O116   O     0.37588   0.25063   0.25134   0.00000  Uiso   1.00
O117   O     0.56012   0.12709   0.25001   0.00000  Uiso   1.00
O118   O     0.56012   0.20625   0.25001   0.00000  Uiso   1.00
O119   O     0.43988   0.12709   0.25000   0.00000  Uiso   1.00
O120   O     0.50000   0.20626   0.18573   0.00000  Uiso   1.00
O121   O     0.50000   0.12707   0.31427   0.00000  Uiso   1.00
O122   O     0.50000   0.20626   0.31427   0.00000  Uiso   1.00
O123   O     0.50000   0.12707   0.18573   0.00000  Uiso   1.00
O124   O     0.53056   0.24767   0.11611   0.00000  Uiso   1.00
C125   C     0.75415   0.16668   0.25098   0.00000  Uiso   1.00
C126   C     0.97864   0.20923   0.24922   0.00000  Uiso   1.00
C127   C     0.97860   0.12426   0.24849   0.00000  Uiso   1.00
C128   C     0.68803   0.20923   0.25078   0.00000  Uiso   1.00
C129   C     0.84655   0.20833   0.04871   0.00000  Uiso   1.00
C130   C     0.83932   0.12745   0.45298   0.00000  Uiso   1.00
C131   C     0.82011   0.20832   0.45129   0.00000  Uiso   1.00
C132   C     0.82735   0.12745   0.04702   0.00000  Uiso   1.00
C133   C     0.85009   0.20773   0.09476   0.00000  Uiso   1.00
C134   C     0.83308   0.12514   0.40749   0.00000  Uiso   1.00
C135   C     0.81657   0.20772   0.40524   0.00000  Uiso   1.00
C136   C     0.91251   0.16668   0.24902   0.00000  Uiso   1.00
C137   C     0.83360   0.12514   0.09251   0.00000  Uiso   1.00
C138   C     0.84101   0.16634   0.11741   0.00000  Uiso   1.00
C139   C     0.82566   0.16634   0.38259   0.00000  Uiso   1.00
C140   C     0.83467   0.16848   0.02440   0.00000  Uiso   1.00
C141   C     0.83199   0.16848   0.47560   0.00000  Uiso   1.00
C142   C     0.95718   0.16674   0.24790   0.00000  Uiso   1.00
C143   C     0.70949   0.16674   0.25210   0.00000  Uiso   1.00
C144   C     0.83633   0.16660   0.16538   0.00000  Uiso   1.00
C145   C     0.83034   0.16660   0.33462   0.00000  Uiso   1.00
C146   C     0.80710   0.02473   0.22068   0.00000  Uiso   1.00
C147   C     0.85920   0.30858   0.27970   0.00000  Uiso   1.00
C148   C     0.85957   0.02473   0.27932   0.00000  Uiso   1.00
C149   C     0.80747   0.30858   0.22030   0.00000  Uiso   1.00
C150   C     0.68806   0.12426   0.25151   0.00000  Uiso   1.00
Cu151  Cu    0.83333   0.21355   0.25000   0.00000  Uiso   1.00
Cu152  Cu    0.83333   0.11978   0.25000   0.00000  Uiso   1.00
H153   H     0.85441   0.23987   0.03213   0.00000  Uiso   1.00
H154   H     0.97340   0.27340   0.26759   0.00000  Uiso   1.00
H155   H     0.97226   0.05964   0.26487   0.00000  Uiso   1.00
H156   H     0.69327   0.27341   0.23241   0.00000  Uiso   1.00
H157   H     0.84889   0.09601   0.47037   0.00000  Uiso   1.00
H158   H     0.81224   0.23986   0.46786   0.00000  Uiso   1.00
H159   H     0.81779   0.09600   0.02964   0.00000  Uiso   1.00
H160   H     0.88215   0.23848   0.14239   0.00000  Uiso   1.00
H161   H     0.80865   0.07916   0.36809   0.00000  Uiso   1.00
H162   H     0.78451   0.23847   0.35761   0.00000  Uiso   1.00
H163   H     0.85803   0.07917   0.13192   0.00000  Uiso   1.00
H164   H     0.69441   0.05965   0.23512   0.00000  Uiso   1.00
I165   I     0.76419   0.05960   0.17442   0.00000  Uiso   1.00
I166   I     0.89984   0.27364   0.32832   0.00000  Uiso   1.00
I167   I     0.90248   0.05960   0.32558   0.00000  Uiso   1.00
I168   I     0.76683   0.27365   0.17168   0.00000  Uiso   1.00
N169   N     0.83333   0.28402   0.25000   0.00000  Uiso   1.00
N170   N     0.83333   0.04931   0.25000   0.00000  Uiso   1.00
O171   O     0.77321   0.20625   0.25000   0.00000  Uiso   1.00
O172   O     0.83354   0.08170   0.38893   0.00000  Uiso   1.00
O173   O     0.80276   0.24767   0.38388   0.00000  Uiso   1.00
O174   O     0.83314   0.08170   0.11108   0.00000  Uiso   1.00
O175   O     0.70937   0.08292   0.25435   0.00000  Uiso   1.00
O176   O     0.95746   0.25063   0.24866   0.00000  Uiso   1.00
O177   O     0.95730   0.08292   0.24565   0.00000  Uiso   1.00
O178   O     0.70921   0.25063   0.25134   0.00000  Uiso   1.00
O179   O     0.89345   0.12709   0.25001   0.00000  Uiso   1.00
O180   O     0.89345   0.20625   0.25001   0.00000  Uiso   1.00
O181   O     0.77321   0.12709   0.25000   0.00000  Uiso   1.00
O182   O     0.83333   0.20626   0.18573   0.00000  Uiso   1.00
O183   O     0.83334   0.12707   0.31427   0.00000  Uiso   1.00
O184   O     0.83334   0.20626   0.31427   0.00000  Uiso   1.00
O185   O     0.83333   0.12707   0.18573   0.00000  Uiso   1.00
O186   O     0.86390   0.24767   0.11611   0.00000  Uiso   1.00
C187   C     0.08749   0.50001   0.25098   0.00000  Uiso   1.00
C188   C     0.31197   0.54256   0.24922   0.00000  Uiso   1.00
C189   C     0.31194   0.45759   0.24849   0.00000  Uiso   1.00
C190   C     0.02137   0.54256   0.25078   0.00000  Uiso   1.00
C191   C     0.17988   0.54166   0.04871   0.00000  Uiso   1.00
C192   C     0.17265   0.46079   0.45298   0.00000  Uiso   1.00
C193   C     0.15344   0.54166   0.45129   0.00000  Uiso   1.00
C194   C     0.16068   0.46078   0.04702   0.00000  Uiso   1.00
C195   C     0.18342   0.54106   0.09476   0.00000  Uiso   1.00
C196   C     0.16641   0.45847   0.40749   0.00000  Uiso   1.00
C197   C     0.14991   0.54106   0.40524   0.00000  Uiso   1.00
C198   C     0.24585   0.50001   0.24902   0.00000  Uiso   1.00
C199   C     0.16693   0.45847   0.09251   0.00000  Uiso   1.00
C200   C     0.17434   0.49968   0.11741   0.00000  Uiso   1.00
C201   C     0.15899   0.49968   0.38259   0.00000  Uiso   1.00
C202   C     0.16800   0.50181   0.02440   0.00000  Uiso   1.00
C203   C     0.16532   0.50181   0.47560   0.00000  Uiso   1.00
C204   C     0.29051   0.50007   0.24790   0.00000  Uiso   1.00
C205   C     0.04282   0.50007   0.25210   0.00000  Uiso   1.00
C206   C     0.16966   0.49994   0.16538   0.00000  Uiso   1.00
C207   C     0.16367   0.49994   0.33462   0.00000  Uiso   1.00
C208   C     0.14043   0.35807   0.22068   0.00000  Uiso   1.00
C209   C     0.19253   0.64192   0.27970   0.00000  Uiso   1.00
C210   C     0.19290   0.35807   0.27932   0.00000  Uiso   1.00
C211   C     0.14080   0.64192   0.22030   0.00000  Uiso   1.00
C212   C     0.02140   0.45759   0.25151   0.00000  Uiso   1.00
Cu213  Cu    0.16667   0.54689   0.25000   0.00000  Uiso   1.00
Cu214  Cu    0.16667   0.45311   0.25000   0.00000  Uiso   1.00
H215   H     0.18775   0.57320   0.03213   0.00000  Uiso   1.00
H216   H     0.30673   0.60674   0.26759   0.00000  Uiso   1.00
H217   H     0.30559   0.39298   0.26487   0.00000  Uiso   1.00
H218   H     0.02660   0.60674   0.23241   0.00000  Uiso   1.00
H219   H     0.18222   0.42934   0.47037   0.00000  Uiso   1.00
H220   H     0.14557   0.57320   0.46786   0.00000  Uiso   1.00
H221   H     0.15112   0.42934   0.02964   0.00000  Uiso   1.00
H222   H     0.21548   0.57181   0.14239   0.00000  Uiso   1.00
H223   H     0.14198   0.41249   0.36809   0.00000  Uiso   1.00
H224   H     0.11784   0.57180   0.35761   0.00000  Uiso   1.00
H225   H     0.19137   0.41250   0.13192   0.00000  Uiso   1.00
H226   H     0.02774   0.39298   0.23512   0.00000  Uiso   1.00
I227   I     0.09752   0.39294   0.17442   0.00000  Uiso   1.00
I228   I     0.23317   0.60698   0.32832   0.00000  Uiso   1.00
I229   I     0.23581   0.39293   0.32558   0.00000  Uiso   1.00
I230   I     0.10016   0.60698   0.17168   0.00000  Uiso   1.00
N231   N     0.16667   0.61736   0.25000   0.00000  Uiso   1.00
N232   N     0.16667   0.38264   0.25000   0.00000  Uiso   1.00
O233   O     0.10655   0.53958   0.25000   0.00000  Uiso   1.00
O234   O     0.16688   0.41503   0.38893   0.00000  Uiso   1.00
O235   O     0.13609   0.58100   0.38388   0.00000  Uiso   1.00
O236   O     0.16647   0.41503   0.11108   0.00000  Uiso   1.00
O237   O     0.04270   0.41626   0.25435   0.00000  Uiso   1.00
O238   O     0.29079   0.58397   0.24866   0.00000  Uiso   1.00
O239   O     0.29063   0.41626   0.24565   0.00000  Uiso   1.00
O240   O     0.04254   0.58397   0.25134   0.00000  Uiso   1.00
O241   O     0.22679   0.46042   0.25001   0.00000  Uiso   1.00
O242   O     0.22679   0.53958   0.25001   0.00000  Uiso   1.00
O243   O     0.10655   0.46042   0.25000   0.00000  Uiso   1.00
O244   O     0.16666   0.53959   0.18573   0.00000  Uiso   1.00
O245   O     0.16667   0.46041   0.31427   0.00000  Uiso   1.00
O246   O     0.16667   0.53959   0.31427   0.00000  Uiso   1.00
O247   O     0.16666   0.46041   0.18573   0.00000  Uiso   1.00
O248   O     0.19723   0.58101   0.11611   0.00000  Uiso   1.00
C249   C     0.42082   0.50001   0.25098   0.00000  Uiso   1.00
C250   C     0.64530   0.54256   0.24922   0.00000  Uiso   1.00
C251   C     0.64527   0.45759   0.24849   0.00000  Uiso   1.00
C252   C     0.35470   0.54256   0.25078   0.00000  Uiso   1.00
C253   C     0.51322   0.54166   0.04871   0.00000  Uiso   1.00
C254   C     0.50599   0.46079   0.45298   0.00000  Uiso   1.00
C255   C     0.48677   0.54166   0.45129   0.00000  Uiso   1.00
C256   C     0.49402   0.46078   0.04702   0.00000  Uiso   1.00
C257   C     0.51675   0.54106   0.09476   0.00000  Uiso   1.00
C258   C     0.49974   0.45847   0.40749   0.00000  Uiso   1.00
C259   C     0.48324   0.54106   0.40524   0.00000  Uiso   1.00
C260   C     0.57918   0.50001   0.24902   0.00000  Uiso   1.00
C261   C     0.50026   0.45847   0.09251   0.00000  Uiso   1.00
C262   C     0.50767   0.49968   0.11741   0.00000  Uiso   1.00
C263   C     0.49233   0.49968   0.38259   0.00000  Uiso   1.00
C264   C     0.50134   0.50181   0.02440   0.00000  Uiso   1.00
C265   C     0.49866   0.50181   0.47560   0.00000  Uiso   1.00
C266   C     0.62385   0.50007   0.24790   0.00000  Uiso   1.00
C267   C     0.37615   0.50007   0.25210   0.00000  Uiso   1.00
C268   C     0.50300   0.49994   0.16538   0.00000  Uiso   1.00
C269   C     0.49700   0.49994   0.33462   0.00000  Uiso   1.00
C270   C     0.47377   0.35807   0.22068   0.00000  Uiso   1.00
C271   C     0.52587   0.64192   0.27970   0.00000  Uiso   1.00
C272   C     0.52623   0.35807   0.27932   0.00000  Uiso   1.00
C273   C     0.47414   0.64192   0.22030   0.00000  Uiso   1.00
C274   C     0.35473   0.45759   0.25151   0.00000  Uiso   1.00
Cu275  Cu    0.50000   0.54689   0.25000   0.00000  Uiso   1.00
Cu276  Cu    0.50000   0.45311   0.25000   0.00000  Uiso   1.00
H277   H     0.52108   0.57320   0.03213   0.00000  Uiso   1.00
H278   H     0.64006   0.60674   0.26759   0.00000  Uiso   1.00
H279   H     0.63892   0.39298   0.26487   0.00000  Uiso   1.00
H280   H     0.35993   0.60674   0.23241   0.00000  Uiso   1.00
H281   H     0.51555   0.42934   0.47037   0.00000  Uiso   1.00
H282   H     0.47890   0.57320   0.46786   0.00000  Uiso   1.00
H283   H     0.48445   0.42934   0.02964   0.00000  Uiso   1.00
H284   H     0.54881   0.57181   0.14239   0.00000  Uiso   1.00
H285   H     0.47532   0.41249   0.36809   0.00000  Uiso   1.00
H286   H     0.45118   0.57180   0.35761   0.00000  Uiso   1.00
H287   H     0.52470   0.41250   0.13192   0.00000  Uiso   1.00
H288   H     0.36108   0.39298   0.23512   0.00000  Uiso   1.00
I289   I     0.43085   0.39294   0.17442   0.00000  Uiso   1.00
I290   I     0.56651   0.60698   0.32832   0.00000  Uiso   1.00
I291   I     0.56915   0.39293   0.32558   0.00000  Uiso   1.00
I292   I     0.43349   0.60698   0.17168   0.00000  Uiso   1.00
N293   N     0.50000   0.61736   0.25000   0.00000  Uiso   1.00
N294   N     0.50000   0.38264   0.25000   0.00000  Uiso   1.00
O295   O     0.43988   0.53958   0.25000   0.00000  Uiso   1.00
O296   O     0.50021   0.41503   0.38893   0.00000  Uiso   1.00
O297   O     0.46942   0.58100   0.38388   0.00000  Uiso   1.00
O298   O     0.49981   0.41503   0.11108   0.00000  Uiso   1.00
O299   O     0.37603   0.41626   0.25435   0.00000  Uiso   1.00
O300   O     0.62412   0.58397   0.24866   0.00000  Uiso   1.00
O301   O     0.62397   0.41626   0.24565   0.00000  Uiso   1.00
O302   O     0.37588   0.58397   0.25134   0.00000  Uiso   1.00
O303   O     0.56012   0.46042   0.25001   0.00000  Uiso   1.00
O304   O     0.56012   0.53958   0.25001   0.00000  Uiso   1.00
O305   O     0.43988   0.46042   0.25000   0.00000  Uiso   1.00
O306   O     0.50000   0.53959   0.18573   0.00000  Uiso   1.00
O307   O     0.50000   0.46041   0.31427   0.00000  Uiso   1.00
O308   O     0.50000   0.53959   0.31427   0.00000  Uiso   1.00
O309   O     0.50000   0.46041   0.18573   0.00000  Uiso   1.00
O310   O     0.53056   0.58101   0.11611   0.00000  Uiso   1.00
C311   C     0.75415   0.50001   0.25098   0.00000  Uiso   1.00
C312   C     0.97864   0.54256   0.24922   0.00000  Uiso   1.00
C313   C     0.97860   0.45759   0.24849   0.00000  Uiso   1.00
C314   C     0.68803   0.54256   0.25078   0.00000  Uiso   1.00
C315   C     0.84655   0.54166   0.04871   0.00000  Uiso   1.00
C316   C     0.83932   0.46079   0.45298   0.00000  Uiso   1.00
C317   C     0.82011   0.54166   0.45129   0.00000  Uiso   1.00
C318   C     0.82735   0.46078   0.04702   0.00000  Uiso   1.00
C319   C     0.85009   0.54106   0.09476   0.00000  Uiso   1.00
C320   C     0.83308   0.45847   0.40749   0.00000  Uiso   1.00
C321   C     0.81657   0.54106   0.40524   0.00000  Uiso   1.00
C322   C     0.91251   0.50001   0.24902   0.00000  Uiso   1.00
C323   C     0.83360   0.45847   0.09251   0.00000  Uiso   1.00
C324   C     0.84101   0.49968   0.11741   0.00000  Uiso   1.00
C325   C     0.82566   0.49968   0.38259   0.00000  Uiso   1.00
C326   C     0.83467   0.50181   0.02440   0.00000  Uiso   1.00
C327   C     0.83199   0.50181   0.47560   0.00000  Uiso   1.00
C328   C     0.95718   0.50007   0.24790   0.00000  Uiso   1.00
C329   C     0.70949   0.50007   0.25210   0.00000  Uiso   1.00
C330   C     0.83633   0.49994   0.16538   0.00000  Uiso   1.00
C331   C     0.83034   0.49994   0.33462   0.00000  Uiso   1.00
C332   C     0.80710   0.35807   0.22068   0.00000  Uiso   1.00
C333   C     0.85920   0.64192   0.27970   0.00000  Uiso   1.00
C334   C     0.85957   0.35807   0.27932   0.00000  Uiso   1.00
C335   C     0.80747   0.64192   0.22030   0.00000  Uiso   1.00
C336   C     0.68806   0.45759   0.25151   0.00000  Uiso   1.00
Cu337  Cu    0.83333   0.54689   0.25000   0.00000  Uiso   1.00
Cu338  Cu    0.83333   0.45311   0.25000   0.00000  Uiso   1.00
H339   H     0.85441   0.57320   0.03213   0.00000  Uiso   1.00
H340   H     0.97340   0.60674   0.26759   0.00000  Uiso   1.00
H341   H     0.97226   0.39298   0.26487   0.00000  Uiso   1.00
H342   H     0.69327   0.60674   0.23241   0.00000  Uiso   1.00
H343   H     0.84889   0.42934   0.47037   0.00000  Uiso   1.00
H344   H     0.81224   0.57320   0.46786   0.00000  Uiso   1.00
H345   H     0.81779   0.42934   0.02964   0.00000  Uiso   1.00
H346   H     0.88215   0.57181   0.14239   0.00000  Uiso   1.00
H347   H     0.80865   0.41249   0.36809   0.00000  Uiso   1.00
H348   H     0.78451   0.57180   0.35761   0.00000  Uiso   1.00
H349   H     0.85803   0.41250   0.13192   0.00000  Uiso   1.00
H350   H     0.69441   0.39298   0.23512   0.00000  Uiso   1.00
I351   I     0.76419   0.39294   0.17442   0.00000  Uiso   1.00
I352   I     0.89984   0.60698   0.32832   0.00000  Uiso   1.00
I353   I     0.90248   0.39293   0.32558   0.00000  Uiso   1.00
I354   I     0.76683   0.60698   0.17168   0.00000  Uiso   1.00
N355   N     0.83333   0.61736   0.25000   0.00000  Uiso   1.00
N356   N     0.83333   0.38264   0.25000   0.00000  Uiso   1.00
O357   O     0.77321   0.53958   0.25000   0.00000  Uiso   1.00
O358   O     0.83354   0.41503   0.38893   0.00000  Uiso   1.00
O359   O     0.80276   0.58100   0.38388   0.00000  Uiso   1.00
O360   O     0.83314   0.41503   0.11108   0.00000  Uiso   1.00
O361   O     0.70937   0.41626   0.25435   0.00000  Uiso   1.00
O362   O     0.95746   0.58397   0.24866   0.00000  Uiso   1.00
O363   O     0.95730   0.41626   0.24565   0.00000  Uiso   1.00
O364   O     0.70921   0.58397   0.25134   0.00000  Uiso   1.00
O365   O     0.89345   0.46042   0.25001   0.00000  Uiso   1.00
O366   O     0.89345   0.53958   0.25001   0.00000  Uiso   1.00
O367   O     0.77321   0.46042   0.25000   0.00000  Uiso   1.00
O368   O     0.83333   0.53959   0.18573   0.00000  Uiso   1.00
O369   O     0.83334   0.46041   0.31427   0.00000  Uiso   1.00
O370   O     0.83334   0.53959   0.31427   0.00000  Uiso   1.00
O371   O     0.83333   0.46041   0.18573   0.00000  Uiso   1.00
O372   O     0.86390   0.58101   0.11611   0.00000  Uiso   1.00
C373   C     0.08749   0.83335   0.25098   0.00000  Uiso   1.00
C374   C     0.31197   0.87590   0.24922   0.00000  Uiso   1.00
C375   C     0.31194   0.79092   0.24849   0.00000  Uiso   1.00
C376   C     0.02137   0.87590   0.25078   0.00000  Uiso   1.00
C377   C     0.17988   0.87499   0.04871   0.00000  Uiso   1.00
C378   C     0.17265   0.79412   0.45298   0.00000  Uiso   1.00
C379   C     0.15344   0.87499   0.45129   0.00000  Uiso   1.00
C380   C     0.16068   0.79412   0.04702   0.00000  Uiso   1.00
C381   C     0.18342   0.87440   0.09476   0.00000  Uiso   1.00
C382   C     0.16641   0.79180   0.40749   0.00000  Uiso   1.00
C383   C     0.14991   0.87439   0.40524   0.00000  Uiso   1.00
C384   C     0.24585   0.83335   0.24902   0.00000  Uiso   1.00
C385   C     0.16693   0.79180   0.09251   0.00000  Uiso   1.00
C386   C     0.17434   0.83301   0.11741   0.00000  Uiso   1.00
C387   C     0.15899   0.83301   0.38259   0.00000  Uiso   1.00
C388   C     0.16800   0.83515   0.02440   0.00000  Uiso   1.00
C389   C     0.16532   0.83514   0.47560   0.00000  Uiso   1.00
C390   C     0.29051   0.83340   0.24790   0.00000  Uiso   1.00
C391   C     0.04282   0.83340   0.25210   0.00000  Uiso   1.00
C392   C     0.16966   0.83327   0.16538   0.00000  Uiso   1.00
C393   C     0.16367   0.83327   0.33462   0.00000  Uiso   1.00
C394   C     0.14043   0.69140   0.22068   0.00000  Uiso   1.00
C395   C     0.19253   0.97525   0.27970   0.00000  Uiso   1.00
C396   C     0.19290   0.69140   0.27932   0.00000  Uiso   1.00
C397   C     0.14080   0.97525   0.22030   0.00000  Uiso   1.00
C398   C     0.02140   0.79092   0.25151   0.00000  Uiso   1.00
Cu399  Cu    0.16667   0.88022   0.25000   0.00000  Uiso   1.00
Cu400  Cu    0.16667   0.78645   0.25000   0.00000  Uiso   1.00
H401   H     0.18775   0.90653   0.03213   0.00000  Uiso   1.00
H402   H     0.30673   0.94007   0.26759   0.00000  Uiso   1.00
H403   H     0.30559   0.72631   0.26487   0.00000  Uiso   1.00
H404   H     0.02660   0.94007   0.23241   0.00000  Uiso   1.00
H405   H     0.18222   0.76267   0.47037   0.00000  Uiso   1.00
H406   H     0.14557   0.90653   0.46786   0.00000  Uiso   1.00
H407   H     0.15112   0.76267   0.02964   0.00000  Uiso   1.00
H408   H     0.21548   0.90515   0.14239   0.00000  Uiso   1.00
H409   H     0.14198   0.74582   0.36809   0.00000  Uiso   1.00
H410   H     0.11784   0.90513   0.35761   0.00000  Uiso   1.00
H411   H     0.19137   0.74583   0.13192   0.00000  Uiso   1.00
H412   H     0.02774   0.72631   0.23512   0.00000  Uiso   1.00
I413   I     0.09752   0.72627   0.17442   0.00000  Uiso   1.00
I414   I     0.23317   0.94031   0.32832   0.00000  Uiso   1.00
I415   I     0.23581   0.72627   0.32558   0.00000  Uiso   1.00
I416   I     0.10016   0.94031   0.17168   0.00000  Uiso   1.00
N417   N     0.16667   0.95069   0.25000   0.00000  Uiso   1.00
N418   N     0.16667   0.71598   0.25000   0.00000  Uiso   1.00
O419   O     0.10655   0.87291   0.25000   0.00000  Uiso   1.00
O420   O     0.16688   0.74836   0.38893   0.00000  Uiso   1.00
O421   O     0.13609   0.91433   0.38388   0.00000  Uiso   1.00
O422   O     0.16647   0.74836   0.11108   0.00000  Uiso   1.00
O423   O     0.04270   0.74959   0.25435   0.00000  Uiso   1.00
O424   O     0.29079   0.91730   0.24866   0.00000  Uiso   1.00
O425   O     0.29063   0.74959   0.24565   0.00000  Uiso   1.00
O426   O     0.04254   0.91730   0.25134   0.00000  Uiso   1.00
O427   O     0.22679   0.79375   0.25001   0.00000  Uiso   1.00
O428   O     0.22679   0.87291   0.25001   0.00000  Uiso   1.00
O429   O     0.10655   0.79375   0.25000   0.00000  Uiso   1.00
O430   O     0.16666   0.87293   0.18573   0.00000  Uiso   1.00
O431   O     0.16667   0.79374   0.31427   0.00000  Uiso   1.00
O432   O     0.16667   0.87293   0.31427   0.00000  Uiso   1.00
O433   O     0.16666   0.79374   0.18573   0.00000  Uiso   1.00
O434   O     0.19723   0.91434   0.11611   0.00000  Uiso   1.00
C435   C     0.42082   0.83335   0.25098   0.00000  Uiso   1.00
C436   C     0.64530   0.87590   0.24922   0.00000  Uiso   1.00
C437   C     0.64527   0.79092   0.24849   0.00000  Uiso   1.00
C438   C     0.35470   0.87590   0.25078   0.00000  Uiso   1.00
C439   C     0.51322   0.87499   0.04871   0.00000  Uiso   1.00
C440   C     0.50599   0.79412   0.45298   0.00000  Uiso   1.00
C441   C     0.48677   0.87499   0.45129   0.00000  Uiso   1.00
C442   C     0.49402   0.79412   0.04702   0.00000  Uiso   1.00
C443   C     0.51675   0.87440   0.09476   0.00000  Uiso   1.00
C444   C     0.49974   0.79180   0.40749   0.00000  Uiso   1.00
C445   C     0.48324   0.87439   0.40524   0.00000  Uiso   1.00
C446   C     0.57918   0.83335   0.24902   0.00000  Uiso   1.00
C447   C     0.50026   0.79180   0.09251   0.00000  Uiso   1.00
C448   C     0.50767   0.83301   0.11741   0.00000  Uiso   1.00
C449   C     0.49233   0.83301   0.38259   0.00000  Uiso   1.00
C450   C     0.50134   0.83515   0.02440   0.00000  Uiso   1.00
C451   C     0.49866   0.83514   0.47560   0.00000  Uiso   1.00
C452   C     0.62385   0.83340   0.24790   0.00000  Uiso   1.00
C453   C     0.37615   0.83340   0.25210   0.00000  Uiso   1.00
C454   C     0.50300   0.83327   0.16538   0.00000  Uiso   1.00
C455   C     0.49700   0.83327   0.33462   0.00000  Uiso   1.00
C456   C     0.47377   0.69140   0.22068   0.00000  Uiso   1.00
C457   C     0.52587   0.97525   0.27970   0.00000  Uiso   1.00
C458   C     0.52623   0.69140   0.27932   0.00000  Uiso   1.00
C459   C     0.47414   0.97525   0.22030   0.00000  Uiso   1.00
C460   C     0.35473   0.79092   0.25151   0.00000  Uiso   1.00
Cu461  Cu    0.50000   0.88022   0.25000   0.00000  Uiso   1.00
Cu462  Cu    0.50000   0.78645   0.25000   0.00000  Uiso   1.00
H463   H     0.52108   0.90653   0.03213   0.00000  Uiso   1.00
H464   H     0.64006   0.94007   0.26759   0.00000  Uiso   1.00
H465   H     0.63892   0.72631   0.26487   0.00000  Uiso   1.00
H466   H     0.35993   0.94007   0.23241   0.00000  Uiso   1.00
H467   H     0.51555   0.76267   0.47037   0.00000  Uiso   1.00
H468   H     0.47890   0.90653   0.46786   0.00000  Uiso   1.00
H469   H     0.48445   0.76267   0.02964   0.00000  Uiso   1.00
H470   H     0.54881   0.90515   0.14239   0.00000  Uiso   1.00
H471   H     0.47532   0.74582   0.36809   0.00000  Uiso   1.00
H472   H     0.45118   0.90513   0.35761   0.00000  Uiso   1.00
H473   H     0.52470   0.74583   0.13192   0.00000  Uiso   1.00
H474   H     0.36108   0.72631   0.23512   0.00000  Uiso   1.00
I475   I     0.43085   0.72627   0.17442   0.00000  Uiso   1.00
I476   I     0.56651   0.94031   0.32832   0.00000  Uiso   1.00
I477   I     0.56915   0.72627   0.32558   0.00000  Uiso   1.00
I478   I     0.43349   0.94031   0.17168   0.00000  Uiso   1.00
N479   N     0.50000   0.95069   0.25000   0.00000  Uiso   1.00
N480   N     0.50000   0.71598   0.25000   0.00000  Uiso   1.00
O481   O     0.43988   0.87291   0.25000   0.00000  Uiso   1.00
O482   O     0.50021   0.74836   0.38893   0.00000  Uiso   1.00
O483   O     0.46942   0.91433   0.38388   0.00000  Uiso   1.00
O484   O     0.49981   0.74836   0.11108   0.00000  Uiso   1.00
O485   O     0.37603   0.74959   0.25435   0.00000  Uiso   1.00
O486   O     0.62412   0.91730   0.24866   0.00000  Uiso   1.00
O487   O     0.62397   0.74959   0.24565   0.00000  Uiso   1.00
O488   O     0.37588   0.91730   0.25134   0.00000  Uiso   1.00
O489   O     0.56012   0.79375   0.25001   0.00000  Uiso   1.00
O490   O     0.56012   0.87291   0.25001   0.00000  Uiso   1.00
O491   O     0.43988   0.79375   0.25000   0.00000  Uiso   1.00
O492   O     0.50000   0.87293   0.18573   0.00000  Uiso   1.00
O493   O     0.50000   0.79374   0.31427   0.00000  Uiso   1.00
O494   O     0.50000   0.87293   0.31427   0.00000  Uiso   1.00
O495   O     0.50000   0.79374   0.18573   0.00000  Uiso   1.00
O496   O     0.53056   0.91434   0.11611   0.00000  Uiso   1.00
C497   C     0.75415   0.83335   0.25098   0.00000  Uiso   1.00
C498   C     0.97864   0.87590   0.24922   0.00000  Uiso   1.00
C499   C     0.97860   0.79092   0.24849   0.00000  Uiso   1.00
C500   C     0.68803   0.87590   0.25078   0.00000  Uiso   1.00
C501   C     0.84655   0.87499   0.04871   0.00000  Uiso   1.00
C502   C     0.83932   0.79412   0.45298   0.00000  Uiso   1.00
C503   C     0.82011   0.87499   0.45129   0.00000  Uiso   1.00
C504   C     0.82735   0.79412   0.04702   0.00000  Uiso   1.00
C505   C     0.85009   0.87440   0.09476   0.00000  Uiso   1.00
C506   C     0.83308   0.79180   0.40749   0.00000  Uiso   1.00
C507   C     0.81657   0.87439   0.40524   0.00000  Uiso   1.00
C508   C     0.91251   0.83335   0.24902   0.00000  Uiso   1.00
C509   C     0.83360   0.79180   0.09251   0.00000  Uiso   1.00
C510   C     0.84101   0.83301   0.11741   0.00000  Uiso   1.00
C511   C     0.82566   0.83301   0.38259   0.00000  Uiso   1.00
C512   C     0.83467   0.83515   0.02440   0.00000  Uiso   1.00
C513   C     0.83199   0.83514   0.47560   0.00000  Uiso   1.00
C514   C     0.95718   0.83340   0.24790   0.00000  Uiso   1.00
C515   C     0.70949   0.83340   0.25210   0.00000  Uiso   1.00
C516   C     0.83633   0.83327   0.16538   0.00000  Uiso   1.00
C517   C     0.83034   0.83327   0.33462   0.00000  Uiso   1.00
C518   C     0.80710   0.69140   0.22068   0.00000  Uiso   1.00
C519   C     0.85920   0.97525   0.27970   0.00000  Uiso   1.00
C520   C     0.85957   0.69140   0.27932   0.00000  Uiso   1.00
C521   C     0.80747   0.97525   0.22030   0.00000  Uiso   1.00
C522   C     0.68806   0.79092   0.25151   0.00000  Uiso   1.00
Cu523  Cu    0.83333   0.88022   0.25000   0.00000  Uiso   1.00
Cu524  Cu    0.83333   0.78645   0.25000   0.00000  Uiso   1.00
H525   H     0.85441   0.90653   0.03213   0.00000  Uiso   1.00
H526   H     0.97340   0.94007   0.26759   0.00000  Uiso   1.00
H527   H     0.97226   0.72631   0.26487   0.00000  Uiso   1.00
H528   H     0.69327   0.94007   0.23241   0.00000  Uiso   1.00
H529   H     0.84889   0.76267   0.47037   0.00000  Uiso   1.00
H530   H     0.81224   0.90653   0.46786   0.00000  Uiso   1.00
H531   H     0.81779   0.76267   0.02964   0.00000  Uiso   1.00
H532   H     0.88215   0.90515   0.14239   0.00000  Uiso   1.00
H533   H     0.80865   0.74582   0.36809   0.00000  Uiso   1.00
H534   H     0.78451   0.90513   0.35761   0.00000  Uiso   1.00
H535   H     0.85803   0.74583   0.13192   0.00000  Uiso   1.00
H536   H     0.69441   0.72631   0.23512   0.00000  Uiso   1.00
I537   I     0.76419   0.72627   0.17442   0.00000  Uiso   1.00
I538   I     0.89984   0.94031   0.32832   0.00000  Uiso   1.00
I539   I     0.90248   0.72627   0.32558   0.00000  Uiso   1.00
I540   I     0.76683   0.94031   0.17168   0.00000  Uiso   1.00
N541   N     0.83333   0.95069   0.25000   0.00000  Uiso   1.00
N542   N     0.83333   0.71598   0.25000   0.00000  Uiso   1.00
O543   O     0.77321   0.87291   0.25000   0.00000  Uiso   1.00
O544   O     0.83354   0.74836   0.38893   0.00000  Uiso   1.00
O545   O     0.80276   0.91433   0.38388   0.00000  Uiso   1.00
O546   O     0.83314   0.74836   0.11108   0.00000  Uiso   1.00
O547   O     0.70937   0.74959   0.25435   0.00000  Uiso   1.00
O548   O     0.95746   0.91730   0.24866   0.00000  Uiso   1.00
O549   O     0.95730   0.74959   0.24565   0.00000  Uiso   1.00
O550   O     0.70921   0.91730   0.25134   0.00000  Uiso   1.00
O551   O     0.89345   0.79375   0.25001   0.00000  Uiso   1.00
O552   O     0.89345   0.87291   0.25001   0.00000  Uiso   1.00
O553   O     0.77321   0.79375   0.25000   0.00000  Uiso   1.00
O554   O     0.83333   0.87293   0.18573   0.00000  Uiso   1.00
O555   O     0.83334   0.79374   0.31427   0.00000  Uiso   1.00
O556   O     0.83334   0.87293   0.31427   0.00000  Uiso   1.00
O557   O     0.83333   0.79374   0.18573   0.00000  Uiso   1.00
O558   O     0.86390   0.91434   0.11611   0.00000  Uiso   1.00
C559   C     0.08749   0.16668   0.75098   0.00000  Uiso   1.00
C560   C     0.31197   0.20923   0.74922   0.00000  Uiso   1.00
C561   C     0.31194   0.12426   0.74849   0.00000  Uiso   1.00
C562   C     0.02137   0.20923   0.75078   0.00000  Uiso   1.00
C563   C     0.17988   0.20833   0.54871   0.00000  Uiso   1.00
C564   C     0.17265   0.12745   0.95298   0.00000  Uiso   1.00
C565   C     0.15344   0.20832   0.95129   0.00000  Uiso   1.00
C566   C     0.16068   0.12745   0.54702   0.00000  Uiso   1.00
C567   C     0.18342   0.20773   0.59476   0.00000  Uiso   1.00
C568   C     0.16641   0.12514   0.90749   0.00000  Uiso   1.00
C569   C     0.14991   0.20772   0.90524   0.00000  Uiso   1.00
C570   C     0.24585   0.16668   0.74902   0.00000  Uiso   1.00
C571   C     0.16693   0.12514   0.59251   0.00000  Uiso   1.00
C572   C     0.17434   0.16634   0.61741   0.00000  Uiso   1.00
C573   C     0.15899   0.16634   0.88259   0.00000  Uiso   1.00
C574   C     0.16800   0.16848   0.52440   0.00000  Uiso   1.00
C575   C     0.16532   0.16848   0.97560   0.00000  Uiso   1.00
C576   C     0.29051   0.16674   0.74790   0.00000  Uiso   1.00
C577   C     0.04282   0.16674   0.75210   0.00000  Uiso   1.00
C578   C     0.16966   0.16660   0.66538   0.00000  Uiso   1.00
C579   C     0.16367   0.16660   0.83462   0.00000  Uiso   1.00
C580   C     0.14043   0.02473   0.72068   0.00000  Uiso   1.00
C581   C     0.19253   0.30858   0.77970   0.00000  Uiso   1.00
C582   C     0.19290   0.02473   0.77932   0.00000  Uiso   1.00
C583   C     0.14080   0.30858   0.72030   0.00000  Uiso   1.00
C584   C     0.02140   0.12426   0.75151   0.00000  Uiso   1.00
Cu585  Cu    0.16667   0.21355   0.75000   0.00000  Uiso   1.00
Cu586  Cu    0.16667   0.11978   0.75000   0.00000  Uiso   1.00
H587   H     0.18775   0.23987   0.53213   0.00000  Uiso   1.00
H588   H     0.30673   0.27340   0.76759   0.00000  Uiso   1.00
H589   H     0.30559   0.05964   0.76487   0.00000  Uiso   1.00
H590   H     0.02660   0.27341   0.73241   0.00000  Uiso   1.00
H591   H     0.18222   0.09601   0.97037   0.00000  Uiso   1.00
H592   H     0.14557   0.23986   0.96786   0.00000  Uiso   1.00
H593   H     0.15112   0.09600   0.52964   0.00000  Uiso   1.00
H594   H     0.21548   0.23848   0.64239   0.00000  Uiso   1.00
H595   H     0.14198   0.07916   0.86809   0.00000  Uiso   1.00
H596   H     0.11784   0.23847   0.85761   0.00000  Uiso   1.00
H597   H     0.19137   0.07917   0.63192   0.00000  Uiso   1.00
H598   H     0.02774   0.05965   0.73512   0.00000  Uiso   1.00
I599   I     0.09752   0.05960   0.67442   0.00000  Uiso   1.00
I600   I     0.23317   0.27364   0.82832   0.00000  Uiso   1.00
I601   I     0.23581   0.05960   0.82558   0.00000  Uiso   1.00
I602   I     0.10016   0.27365   0.67168   0.00000  Uiso   1.00
N603   N     0.16667   0.28402   0.75000   0.00000  Uiso   1.00
N604   N     0.16667   0.04931   0.75000   0.00000  Uiso   1.00
O605   O     0.10655   0.20625   0.75000   0.00000  Uiso   1.00
O606   O     0.16688   0.08170   0.88893   0.00000  Uiso   1.00
O607   O     0.13609   0.24767   0.88388   0.00000  Uiso   1.00
O608   O     0.16647   0.08170   0.61108   0.00000  Uiso   1.00
O609   O     0.04270   0.08292   0.75435   0.00000  Uiso   1.00
O610   O     0.29079   0.25063   0.74866   0.00000  Uiso   1.00
O611   O     0.29063   0.08292   0.74565   0.00000  Uiso   1.00
O612   O     0.04254   0.25063   0.75134   0.00000  Uiso   1.00
O613   O     0.22679   0.12709   0.75001   0.00000  Uiso   1.00
O614   O     0.22679   0.20625   0.75001   0.00000  Uiso   1.00
O615   O     0.10655   0.12709   0.75000   0.00000  Uiso   1.00
O616   O     0.16666   0.20626   0.68573   0.00000  Uiso   1.00
O617   O     0.16667   0.12707   0.81427   0.00000  Uiso   1.00
O618   O     0.16667   0.20626   0.81427   0.00000  Uiso   1.00
O619   O     0.16666   0.12707   0.68573   0.00000  Uiso   1.00
O620   O     0.19723   0.24767   0.61611   0.00000  Uiso   1.00
C621   C     0.42082   0.16668   0.75098   0.00000  Uiso   1.00
C622   C     0.64530   0.20923   0.74922   0.00000  Uiso   1.00
C623   C     0.64527   0.12426   0.74849   0.00000  Uiso   1.00
C624   C     0.35470   0.20923   0.75078   0.00000  Uiso   1.00
C625   C     0.51322   0.20833   0.54871   0.00000  Uiso   1.00
C626   C     0.50599   0.12745   0.95298   0.00000  Uiso   1.00
C627   C     0.48677   0.20832   0.95129   0.00000  Uiso   1.00
C628   C     0.49402   0.12745   0.54702   0.00000  Uiso   1.00
C629   C     0.51675   0.20773   0.59476   0.00000  Uiso   1.00
C630   C     0.49974   0.12514   0.90749   0.00000  Uiso   1.00
C631   C     0.48324   0.20772   0.90524   0.00000  Uiso   1.00
C632   C     0.57918   0.16668   0.74902   0.00000  Uiso   1.00
C633   C     0.50026   0.12514   0.59251   0.00000  Uiso   1.00
C634   C     0.50767   0.16634   0.61741   0.00000  Uiso   1.00
C635   C     0.49233   0.16634   0.88259   0.00000  Uiso   1.00
C636   C     0.50134   0.16848   0.52440   0.00000  Uiso   1.00
C637   C     0.49866   0.16848   0.97560   0.00000  Uiso   1.00
C638   C     0.62385   0.16674   0.74790   0.00000  Uiso   1.00
C639   C     0.37615   0.16674   0.75210   0.00000  Uiso   1.00
C640   C     0.50300   0.16660   0.66538   0.00000  Uiso   1.00
C641   C     0.49700   0.16660   0.83462   0.00000  Uiso   1.00
C642   C     0.47377   0.02473   0.72068   0.00000  Uiso   1.00
C643   C     0.52587   0.30858   0.77970   0.00000  Uiso   1.00
C644   C     0.52623   0.02473   0.77932   0.00000  Uiso   1.00
C645   C     0.47414   0.30858   0.72030   0.00000  Uiso   1.00
C646   C     0.35473   0.12426   0.75151   0.00000  Uiso   1.00
Cu647  Cu    0.50000   0.21355   0.75000   0.00000  Uiso   1.00
Cu648  Cu    0.50000   0.11978   0.75000   0.00000  Uiso   1.00
H649   H     0.52108   0.23987   0.53213   0.00000  Uiso   1.00
H650   H     0.64006   0.27340   0.76759   0.00000  Uiso   1.00
H651   H     0.63892   0.05964   0.76487   0.00000  Uiso   1.00
H652   H     0.35993   0.27341   0.73241   0.00000  Uiso   1.00
H653   H     0.51555   0.09601   0.97037   0.00000  Uiso   1.00
H654   H     0.47890   0.23986   0.96786   0.00000  Uiso   1.00
H655   H     0.48445   0.09600   0.52964   0.00000  Uiso   1.00
H656   H     0.54881   0.23848   0.64239   0.00000  Uiso   1.00
H657   H     0.47532   0.07916   0.86809   0.00000  Uiso   1.00
H658   H     0.45118   0.23847   0.85761   0.00000  Uiso   1.00
H659   H     0.52470   0.07917   0.63192   0.00000  Uiso   1.00
H660   H     0.36108   0.05965   0.73512   0.00000  Uiso   1.00
I661   I     0.43085   0.05960   0.67442   0.00000  Uiso   1.00
I662   I     0.56651   0.27364   0.82832   0.00000  Uiso   1.00
I663   I     0.56915   0.05960   0.82558   0.00000  Uiso   1.00
I664   I     0.43349   0.27365   0.67168   0.00000  Uiso   1.00
N665   N     0.50000   0.28402   0.75000   0.00000  Uiso   1.00
N666   N     0.50000   0.04931   0.75000   0.00000  Uiso   1.00
O667   O     0.43988   0.20625   0.75000   0.00000  Uiso   1.00
O668   O     0.50021   0.08170   0.88893   0.00000  Uiso   1.00
O669   O     0.46942   0.24767   0.88388   0.00000  Uiso   1.00
O670   O     0.49981   0.08170   0.61108   0.00000  Uiso   1.00
O671   O     0.37603   0.08292   0.75435   0.00000  Uiso   1.00
O672   O     0.62412   0.25063   0.74866   0.00000  Uiso   1.00
O673   O     0.62397   0.08292   0.74565   0.00000  Uiso   1.00
O674   O     0.37588   0.25063   0.75134   0.00000  Uiso   1.00
O675   O     0.56012   0.12709   0.75001   0.00000  Uiso   1.00
O676   O     0.56012   0.20625   0.75001   0.00000  Uiso   1.00
O677   O     0.43988   0.12709   0.75000   0.00000  Uiso   1.00
O678   O     0.50000   0.20626   0.68573   0.00000  Uiso   1.00
O679   O     0.50000   0.12707   0.81427   0.00000  Uiso   1.00
O680   O     0.50000   0.20626   0.81427   0.00000  Uiso   1.00
O681   O     0.50000   0.12707   0.68573   0.00000  Uiso   1.00
O682   O     0.53056   0.24767   0.61611   0.00000  Uiso   1.00
C683   C     0.75415   0.16668   0.75098   0.00000  Uiso   1.00
C684   C     0.97864   0.20923   0.74922   0.00000  Uiso   1.00
C685   C     0.97860   0.12426   0.74849   0.00000  Uiso   1.00
C686   C     0.68803   0.20923   0.75078   0.00000  Uiso   1.00
C687   C     0.84655   0.20833   0.54871   0.00000  Uiso   1.00
C688   C     0.83932   0.12745   0.95298   0.00000  Uiso   1.00
C689   C     0.82011   0.20832   0.95129   0.00000  Uiso   1.00
C690   C     0.82735   0.12745   0.54702   0.00000  Uiso   1.00
C691   C     0.85009   0.20773   0.59476   0.00000  Uiso   1.00
C692   C     0.83308   0.12514   0.90749   0.00000  Uiso   1.00
C693   C     0.81657   0.20772   0.90524   0.00000  Uiso   1.00
C694   C     0.91251   0.16668   0.74902   0.00000  Uiso   1.00
C695   C     0.83360   0.12514   0.59251   0.00000  Uiso   1.00
C696   C     0.84101   0.16634   0.61741   0.00000  Uiso   1.00
C697   C     0.82566   0.16634   0.88259   0.00000  Uiso   1.00
C698   C     0.83467   0.16848   0.52440   0.00000  Uiso   1.00
C699   C     0.83199   0.16848   0.97560   0.00000  Uiso   1.00
C700   C     0.95718   0.16674   0.74790   0.00000  Uiso   1.00
C701   C     0.70949   0.16674   0.75210   0.00000  Uiso   1.00
C702   C     0.83633   0.16660   0.66538   0.00000  Uiso   1.00
C703   C     0.83034   0.16660   0.83462   0.00000  Uiso   1.00
C704   C     0.80710   0.02473   0.72068   0.00000  Uiso   1.00
C705   C     0.85920   0.30858   0.77970   0.00000  Uiso   1.00
C706   C     0.85957   0.02473   0.77932   0.00000  Uiso   1.00
C707   C     0.80747   0.30858   0.72030   0.00000  Uiso   1.00
C708   C     0.68806   0.12426   0.75151   0.00000  Uiso   1.00
Cu709  Cu    0.83333   0.21355   0.75000   0.00000  Uiso   1.00
Cu710  Cu    0.83333   0.11978   0.75000   0.00000  Uiso   1.00
H711   H     0.85441   0.23987   0.53213   0.00000  Uiso   1.00
H712   H     0.97340   0.27340   0.76759   0.00000  Uiso   1.00
H713   H     0.97226   0.05964   0.76487   0.00000  Uiso   1.00
H714   H     0.69327   0.27341   0.73241   0.00000  Uiso   1.00
H715   H     0.84889   0.09601   0.97037   0.00000  Uiso   1.00
H716   H     0.81224   0.23986   0.96786   0.00000  Uiso   1.00
H717   H     0.81779   0.09600   0.52964   0.00000  Uiso   1.00
H718   H     0.88215   0.23848   0.64239   0.00000  Uiso   1.00
H719   H     0.80865   0.07916   0.86809   0.00000  Uiso   1.00
H720   H     0.78451   0.23847   0.85761   0.00000  Uiso   1.00
H721   H     0.85803   0.07917   0.63192   0.00000  Uiso   1.00
H722   H     0.69441   0.05965   0.73512   0.00000  Uiso   1.00
I723   I     0.76419   0.05960   0.67442   0.00000  Uiso   1.00
I724   I     0.89984   0.27364   0.82832   0.00000  Uiso   1.00
I725   I     0.90248   0.05960   0.82558   0.00000  Uiso   1.00
I726   I     0.76683   0.27365   0.67168   0.00000  Uiso   1.00
N727   N     0.83333   0.28402   0.75000   0.00000  Uiso   1.00
N728   N     0.83333   0.04931   0.75000   0.00000  Uiso   1.00
O729   O     0.77321   0.20625   0.75000   0.00000  Uiso   1.00
O730   O     0.83354   0.08170   0.88893   0.00000  Uiso   1.00
O731   O     0.80276   0.24767   0.88388   0.00000  Uiso   1.00
O732   O     0.83314   0.08170   0.61108   0.00000  Uiso   1.00
O733   O     0.70937   0.08292   0.75435   0.00000  Uiso   1.00
O734   O     0.95746   0.25063   0.74866   0.00000  Uiso   1.00
O735   O     0.95730   0.08292   0.74565   0.00000  Uiso   1.00
O736   O     0.70921   0.25063   0.75134   0.00000  Uiso   1.00
O737   O     0.89345   0.12709   0.75001   0.00000  Uiso   1.00
O738   O     0.89345   0.20625   0.75001   0.00000  Uiso   1.00
O739   O     0.77321   0.12709   0.75000   0.00000  Uiso   1.00
O740   O     0.83333   0.20626   0.68573   0.00000  Uiso   1.00
O741   O     0.83334   0.12707   0.81427   0.00000  Uiso   1.00
O742   O     0.83334   0.20626   0.81427   0.00000  Uiso   1.00
O743   O     0.83333   0.12707   0.68573   0.00000  Uiso   1.00
O744   O     0.86390   0.24767   0.61611   0.00000  Uiso   1.00
C745   C     0.08749   0.50001   0.75098   0.00000  Uiso   1.00
C746   C     0.31197   0.54256   0.74922   0.00000  Uiso   1.00
C747   C     0.31194   0.45759   0.74849   0.00000  Uiso   1.00
C748   C     0.02137   0.54256   0.75078   0.00000  Uiso   1.00
C749   C     0.17988   0.54166   0.54871   0.00000  Uiso   1.00
C750   C     0.17265   0.46079   0.95298   0.00000  Uiso   1.00
C751   C     0.15344   0.54166   0.95129   0.00000  Uiso   1.00
C752   C     0.16068   0.46078   0.54702   0.00000  Uiso   1.00
C753   C     0.18342   0.54106   0.59476   0.00000  Uiso   1.00
C754   C     0.16641   0.45847   0.90749   0.00000  Uiso   1.00
C755   C     0.14991   0.54106   0.90524   0.00000  Uiso   1.00
C756   C     0.24585   0.50001   0.74902   0.00000  Uiso   1.00
C757   C     0.16693   0.45847   0.59251   0.00000  Uiso   1.00
C758   C     0.17434   0.49968   0.61741   0.00000  Uiso   1.00
C759   C     0.15899   0.49968   0.88259   0.00000  Uiso   1.00
C760   C     0.16800   0.50181   0.52440   0.00000  Uiso   1.00
C761   C     0.16532   0.50181   0.97560   0.00000  Uiso   1.00
C762   C     0.29051   0.50007   0.74790   0.00000  Uiso   1.00
C763   C     0.04282   0.50007   0.75210   0.00000  Uiso   1.00
C764   C     0.16966   0.49994   0.66538   0.00000  Uiso   1.00
C765   C     0.16367   0.49994   0.83462   0.00000  Uiso   1.00
C766   C     0.14043   0.35807   0.72068   0.00000  Uiso   1.00
C767   C     0.19253   0.64192   0.77970   0.00000  Uiso   1.00
C768   C     0.19290   0.35807   0.77932   0.00000  Uiso   1.00
C769   C     0.14080   0.64192   0.72030   0.00000  Uiso   1.00
C770   C     0.02140   0.45759   0.75151   0.00000  Uiso   1.00
Cu771  Cu    0.16667   0.54689   0.75000   0.00000  Uiso   1.00
Cu772  Cu    0.16667   0.45311   0.75000   0.00000  Uiso   1.00
H773   H     0.18775   0.57320   0.53213   0.00000  Uiso   1.00
H774   H     0.30673   0.60674   0.76759   0.00000  Uiso   1.00
H775   H     0.30559   0.39298   0.76487   0.00000  Uiso   1.00
H776   H     0.02660   0.60674   0.73241   0.00000  Uiso   1.00
H777   H     0.18222   0.42934   0.97037   0.00000  Uiso   1.00
H778   H     0.14557   0.57320   0.96786   0.00000  Uiso   1.00
H779   H     0.15112   0.42934   0.52964   0.00000  Uiso   1.00
H780   H     0.21548   0.57181   0.64239   0.00000  Uiso   1.00
H781   H     0.14198   0.41249   0.86809   0.00000  Uiso   1.00
H782   H     0.11784   0.57180   0.85761   0.00000  Uiso   1.00
H783   H     0.19137   0.41250   0.63192   0.00000  Uiso   1.00
H784   H     0.02774   0.39298   0.73512   0.00000  Uiso   1.00
I785   I     0.09752   0.39294   0.67442   0.00000  Uiso   1.00
I786   I     0.23317   0.60698   0.82832   0.00000  Uiso   1.00
I787   I     0.23581   0.39293   0.82558   0.00000  Uiso   1.00
I788   I     0.10016   0.60698   0.67168   0.00000  Uiso   1.00
N789   N     0.16667   0.61736   0.75000   0.00000  Uiso   1.00
N790   N     0.16667   0.38264   0.75000   0.00000  Uiso   1.00
O791   O     0.10655   0.53958   0.75000   0.00000  Uiso   1.00
O792   O     0.16688   0.41503   0.88893   0.00000  Uiso   1.00
O793   O     0.13609   0.58100   0.88388   0.00000  Uiso   1.00
O794   O     0.16647   0.41503   0.61108   0.00000  Uiso   1.00
O795   O     0.04270   0.41626   0.75435   0.00000  Uiso   1.00
O796   O     0.29079   0.58397   0.74866   0.00000  Uiso   1.00
O797   O     0.29063   0.41626   0.74565   0.00000  Uiso   1.00
O798   O     0.04254   0.58397   0.75134   0.00000  Uiso   1.00
O799   O     0.22679   0.46042   0.75001   0.00000  Uiso   1.00
O800   O     0.22679   0.53958   0.75001   0.00000  Uiso   1.00
O801   O     0.10655   0.46042   0.75000   0.00000  Uiso   1.00
O802   O     0.16666   0.53959   0.68573   0.00000  Uiso   1.00
O803   O     0.16667   0.46041   0.81427   0.00000  Uiso   1.00
O804   O     0.16667   0.53959   0.81427   0.00000  Uiso   1.00
O805   O     0.16666   0.46041   0.68573   0.00000  Uiso   1.00
O806   O     0.19723   0.58101   0.61611   0.00000  Uiso   1.00
C807   C     0.42082   0.50001   0.75098   0.00000  Uiso   1.00
C808   C     0.64530   0.54256   0.74922   0.00000  Uiso   1.00
C809   C     0.64527   0.45759   0.74849   0.00000  Uiso   1.00
C810   C     0.35470   0.54256   0.75078   0.00000  Uiso   1.00
C811   C     0.51322   0.54166   0.54871   0.00000  Uiso   1.00
C812   C     0.50599   0.46079   0.95298   0.00000  Uiso   1.00
C813   C     0.48677   0.54166   0.95129   0.00000  Uiso   1.00
C814   C     0.49402   0.46078   0.54702   0.00000  Uiso   1.00
C815   C     0.51675   0.54106   0.59476   0.00000  Uiso   1.00
C816   C     0.49974   0.45847   0.90749   0.00000  Uiso   1.00
C817   C     0.48324   0.54106   0.90524   0.00000  Uiso   1.00
C818   C     0.57918   0.50001   0.74902   0.00000  Uiso   1.00
C819   C     0.50026   0.45847   0.59251   0.00000  Uiso   1.00
C820   C     0.50767   0.49968   0.61741   0.00000  Uiso   1.00
C821   C     0.49233   0.49968   0.88259   0.00000  Uiso   1.00
C822   C     0.50134   0.50181   0.52440   0.00000  Uiso   1.00
C823   C     0.49866   0.50181   0.97560   0.00000  Uiso   1.00
C824   C     0.62385   0.50007   0.74790   0.00000  Uiso   1.00
C825   C     0.37615   0.50007   0.75210   0.00000  Uiso   1.00
C826   C     0.50300   0.49994   0.66538   0.00000  Uiso   1.00
C827   C     0.49700   0.49994   0.83462   0.00000  Uiso   1.00
C828   C     0.47377   0.35807   0.72068   0.00000  Uiso   1.00
C829   C     0.52587   0.64192   0.77970   0.00000  Uiso   1.00
C830   C     0.52623   0.35807   0.77932   0.00000  Uiso   1.00
C831   C     0.47414   0.64192   0.72030   0.00000  Uiso   1.00
C832   C     0.35473   0.45759   0.75151   0.00000  Uiso   1.00
Cu833  Cu    0.50000   0.54689   0.75000   0.00000  Uiso   1.00
Cu834  Cu    0.50000   0.45311   0.75000   0.00000  Uiso   1.00
H835   H     0.52108   0.57320   0.53213   0.00000  Uiso   1.00
H836   H     0.64006   0.60674   0.76759   0.00000  Uiso   1.00
H837   H     0.63892   0.39298   0.76487   0.00000  Uiso   1.00
H838   H     0.35993   0.60674   0.73241   0.00000  Uiso   1.00
H839   H     0.51555   0.42934   0.97037   0.00000  Uiso   1.00
H840   H     0.47890   0.57320   0.96786   0.00000  Uiso   1.00
H841   H     0.48445   0.42934   0.52964   0.00000  Uiso   1.00
H842   H     0.54881   0.57181   0.64239   0.00000  Uiso   1.00
H843   H     0.47532   0.41249   0.86809   0.00000  Uiso   1.00
H844   H     0.45118   0.57180   0.85761   0.00000  Uiso   1.00
H845   H     0.52470   0.41250   0.63192   0.00000  Uiso   1.00
H846   H     0.36108   0.39298   0.73512   0.00000  Uiso   1.00
I847   I     0.43085   0.39294   0.67442   0.00000  Uiso   1.00
I848   I     0.56651   0.60698   0.82832   0.00000  Uiso   1.00
I849   I     0.56915   0.39293   0.82558   0.00000  Uiso   1.00
I850   I     0.43349   0.60698   0.67168   0.00000  Uiso   1.00
N851   N     0.50000   0.61736   0.75000   0.00000  Uiso   1.00
N852   N     0.50000   0.38264   0.75000   0.00000  Uiso   1.00
O853   O     0.43988   0.53958   0.75000   0.00000  Uiso   1.00
O854   O     0.50021   0.41503   0.88893   0.00000  Uiso   1.00
O855   O     0.46942   0.58100   0.88388   0.00000  Uiso   1.00
O856   O     0.49981   0.41503   0.61108   0.00000  Uiso   1.00
O857   O     0.37603   0.41626   0.75435   0.00000  Uiso   1.00
O858   O     0.62412   0.58397   0.74866   0.00000  Uiso   1.00
O859   O     0.62397   0.41626   0.74565   0.00000  Uiso   1.00
O860   O     0.37588   0.58397   0.75134   0.00000  Uiso   1.00
O861   O     0.56012   0.46042   0.75001   0.00000  Uiso   1.00
O862   O     0.56012   0.53958   0.75001   0.00000  Uiso   1.00
O863   O     0.43988   0.46042   0.75000   0.00000  Uiso   1.00
O864   O     0.50000   0.53959   0.68573   0.00000  Uiso   1.00
O865   O     0.50000   0.46041   0.81427   0.00000  Uiso   1.00
O866   O     0.50000   0.53959   0.81427   0.00000  Uiso   1.00
O867   O     0.50000   0.46041   0.68573   0.00000  Uiso   1.00
O868   O     0.53056   0.58101   0.61611   0.00000  Uiso   1.00
C869   C     0.75415   0.50001   0.75098   0.00000  Uiso   1.00
C870   C     0.97864   0.54256   0.74922   0.00000  Uiso   1.00
C871   C     0.97860   0.45759   0.74849   0.00000  Uiso   1.00
C872   C     0.68803   0.54256   0.75078   0.00000  Uiso   1.00
C873   C     0.84655   0.54166   0.54871   0.00000  Uiso   1.00
C874   C     0.83932   0.46079   0.95298   0.00000  Uiso   1.00
C875   C     0.82011   0.54166   0.95129   0.00000  Uiso   1.00
C876   C     0.82735   0.46078   0.54702   0.00000  Uiso   1.00
C877   C     0.85009   0.54106   0.59476   0.00000  Uiso   1.00
C878   C     0.83308   0.45847   0.90749   0.00000  Uiso   1.00
C879   C     0.81657   0.54106   0.90524   0.00000  Uiso   1.00
C880   C     0.91251   0.50001   0.74902   0.00000  Uiso   1.00
C881   C     0.83360   0.45847   0.59251   0.00000  Uiso   1.00
C882   C     0.84101   0.49968   0.61741   0.00000  Uiso   1.00
C883   C     0.82566   0.49968   0.88259   0.00000  Uiso   1.00
C884   C     0.83467   0.50181   0.52440   0.00000  Uiso   1.00
C885   C     0.83199   0.50181   0.97560   0.00000  Uiso   1.00
C886   C     0.95718   0.50007   0.74790   0.00000  Uiso   1.00
C887   C     0.70949   0.50007   0.75210   0.00000  Uiso   1.00
C888   C     0.83633   0.49994   0.66538   0.00000  Uiso   1.00
C889   C     0.83034   0.49994   0.83462   0.00000  Uiso   1.00
C890   C     0.80710   0.35807   0.72068   0.00000  Uiso   1.00
C891   C     0.85920   0.64192   0.77970   0.00000  Uiso   1.00
C892   C     0.85957   0.35807   0.77932   0.00000  Uiso   1.00
C893   C     0.80747   0.64192   0.72030   0.00000  Uiso   1.00
C894   C     0.68806   0.45759   0.75151   0.00000  Uiso   1.00
Cu895  Cu    0.83333   0.54689   0.75000   0.00000  Uiso   1.00
Cu896  Cu    0.83333   0.45311   0.75000   0.00000  Uiso   1.00
H897   H     0.85441   0.57320   0.53213   0.00000  Uiso   1.00
H898   H     0.97340   0.60674   0.76759   0.00000  Uiso   1.00
H899   H     0.97226   0.39298   0.76487   0.00000  Uiso   1.00
H900   H     0.69327   0.60674   0.73241   0.00000  Uiso   1.00
H901   H     0.84889   0.42934   0.97037   0.00000  Uiso   1.00
H902   H     0.81224   0.57320   0.96786   0.00000  Uiso   1.00
H903   H     0.81779   0.42934   0.52964   0.00000  Uiso   1.00
H904   H     0.88215   0.57181   0.64239   0.00000  Uiso   1.00
H905   H     0.80865   0.41249   0.86809   0.00000  Uiso   1.00
H906   H     0.78451   0.57180   0.85761   0.00000  Uiso   1.00
H907   H     0.85803   0.41250   0.63192   0.00000  Uiso   1.00
H908   H     0.69441   0.39298   0.73512   0.00000  Uiso   1.00
I909   I     0.76419   0.39294   0.67442   0.00000  Uiso   1.00
I910   I     0.89984   0.60698   0.82832   0.00000  Uiso   1.00
I911   I     0.90248   0.39293   0.82558   0.00000  Uiso   1.00
I912   I     0.76683   0.60698   0.67168   0.00000  Uiso   1.00
N913   N     0.83333   0.61736   0.75000   0.00000  Uiso   1.00
N914   N     0.83333   0.38264   0.75000   0.00000  Uiso   1.00
O915   O     0.77321   0.53958   0.75000   0.00000  Uiso   1.00
O916   O     0.83354   0.41503   0.88893   0.00000  Uiso   1.00
O917   O     0.80276   0.58100   0.88388   0.00000  Uiso   1.00
O918   O     0.83314   0.41503   0.61108   0.00000  Uiso   1.00
O919   O     0.70937   0.41626   0.75435   0.00000  Uiso   1.00
O920   O     0.95746   0.58397   0.74866   0.00000  Uiso   1.00
O921   O     0.95730   0.41626   0.74565   0.00000  Uiso   1.00
O922   O     0.70921   0.58397   0.75134   0.00000  Uiso   1.00
O923   O     0.89345   0.46042   0.75001   0.00000  Uiso   1.00
O924   O     0.89345   0.53958   0.75001   0.00000  Uiso   1.00
O925   O     0.77321   0.46042   0.75000   0.00000  Uiso   1.00
O926   O     0.83333   0.53959   0.68573   0.00000  Uiso   1.00
O927   O     0.83334   0.46041   0.81427   0.00000  Uiso   1.00
O928   O     0.83334   0.53959   0.81427   0.00000  Uiso   1.00
O929   O     0.83333   0.46041   0.68573   0.00000  Uiso   1.00
O930   O     0.86390   0.58101   0.61611   0.00000  Uiso   1.00
C931   C     0.08749   0.83335   0.75098   0.00000  Uiso   1.00
C932   C     0.31197   0.87590   0.74922   0.00000  Uiso   1.00
C933   C     0.31194   0.79092   0.74849   0.00000  Uiso   1.00
C934   C     0.02137   0.87590   0.75078   0.00000  Uiso   1.00
C935   C     0.17988   0.87499   0.54871   0.00000  Uiso   1.00
C936   C     0.17265   0.79412   0.95298   0.00000  Uiso   1.00
C937   C     0.15344   0.87499   0.95129   0.00000  Uiso   1.00
C938   C     0.16068   0.79412   0.54702   0.00000  Uiso   1.00
C939   C     0.18342   0.87440   0.59476   0.00000  Uiso   1.00
C940   C     0.16641   0.79180   0.90749   0.00000  Uiso   1.00
C941   C     0.14991   0.87439   0.90524   0.00000  Uiso   1.00
C942   C     0.24585   0.83335   0.74902   0.00000  Uiso   1.00
C943   C     0.16693   0.79180   0.59251   0.00000  Uiso   1.00
C944   C     0.17434   0.83301   0.61741   0.00000  Uiso   1.00
C945   C     0.15899   0.83301   0.88259   0.00000  Uiso   1.00
C946   C     0.16800   0.83515   0.52440   0.00000  Uiso   1.00
C947   C     0.16532   0.83514   0.97560   0.00000  Uiso   1.00
C948   C     0.29051   0.83340   0.74790   0.00000  Uiso   1.00
C949   C     0.04282   0.83340   0.75210   0.00000  Uiso   1.00
C950   C     0.16966   0.83327   0.66538   0.00000  Uiso   1.00
C951   C     0.16367   0.83327   0.83462   0.00000  Uiso   1.00
C952   C     0.14043   0.69140   0.72068   0.00000  Uiso   1.00
C953   C     0.19253   0.97525   0.77970   0.00000  Uiso   1.00
C954   C     0.19290   0.69140   0.77932   0.00000  Uiso   1.00
C955   C     0.14080   0.97525   0.72030   0.00000  Uiso   1.00
C956   C     0.02140   0.79092   0.75151   0.00000  Uiso   1.00
Cu957  Cu    0.16667   0.88022   0.75000   0.00000  Uiso   1.00
Cu958  Cu    0.16667   0.78645   0.75000   0.00000  Uiso   1.00
H959   H     0.18775   0.90653   0.53213   0.00000  Uiso   1.00
H960   H     0.30673   0.94007   0.76759   0.00000  Uiso   1.00
H961   H     0.30559   0.72631   0.76487   0.00000  Uiso   1.00
H962   H     0.02660   0.94007   0.73241   0.00000  Uiso   1.00
H963   H     0.18222   0.76267   0.97037   0.00000  Uiso   1.00
H964   H     0.14557   0.90653   0.96786   0.00000  Uiso   1.00
H965   H     0.15112   0.76267   0.52964   0.00000  Uiso   1.00
H966   H     0.21548   0.90515   0.64239   0.00000  Uiso   1.00
H967   H     0.14198   0.74582   0.86809   0.00000  Uiso   1.00
H968   H     0.11784   0.90513   0.85761   0.00000  Uiso   1.00
H969   H     0.19137   0.74583   0.63192   0.00000  Uiso   1.00
H970   H     0.02774   0.72631   0.73512   0.00000  Uiso   1.00
I971   I     0.09752   0.72627   0.67442   0.00000  Uiso   1.00
I972   I     0.23317   0.94031   0.82832   0.00000  Uiso   1.00
I973   I     0.23581   0.72627   0.82558   0.00000  Uiso   1.00
I974   I     0.10016   0.94031   0.67168   0.00000  Uiso   1.00
N975   N     0.16667   0.95069   0.75000   0.00000  Uiso   1.00
N976   N     0.16667   0.71598   0.75000   0.00000  Uiso   1.00
O977   O     0.10655   0.87291   0.75000   0.00000  Uiso   1.00
O978   O     0.16688   0.74836   0.88893   0.00000  Uiso   1.00
O979   O     0.13609   0.91433   0.88388   0.00000  Uiso   1.00
O980   O     0.16647   0.74836   0.61108   0.00000  Uiso   1.00
O981   O     0.04270   0.74959   0.75435   0.00000  Uiso   1.00
O982   O     0.29079   0.91730   0.74866   0.00000  Uiso   1.00
O983   O     0.29063   0.74959   0.74565   0.00000  Uiso   1.00
O984   O     0.04254   0.91730   0.75134   0.00000  Uiso   1.00
O985   O     0.22679   0.79375   0.75001   0.00000  Uiso   1.00
O986   O     0.22679   0.87291   0.75001   0.00000  Uiso   1.00
O987   O     0.10655   0.79375   0.75000   0.00000  Uiso   1.00
O988   O     0.16666   0.87293   0.68573   0.00000  Uiso   1.00
O989   O     0.16667   0.79374   0.81427   0.00000  Uiso   1.00
O990   O     0.16667   0.87293   0.81427   0.00000  Uiso   1.00
O991   O     0.16666   0.79374   0.68573   0.00000  Uiso   1.00
O992   O     0.19723   0.91434   0.61611   0.00000  Uiso   1.00
C993   C     0.42082   0.83335   0.75098   0.00000  Uiso   1.00
C994   C     0.64530   0.87590   0.74922   0.00000  Uiso   1.00
C995   C     0.64527   0.79092   0.74849   0.00000  Uiso   1.00
C996   C     0.35470   0.87590   0.75078   0.00000  Uiso   1.00
C997   C     0.51322   0.87499   0.54871   0.00000  Uiso   1.00
C998   C     0.50599   0.79412   0.95298   0.00000  Uiso   1.00
C999   C     0.48677   0.87499   0.95129   0.00000  Uiso   1.00
C1000  C     0.49402   0.79412   0.54702   0.00000  Uiso   1.00
C1001  C     0.51675   0.87440   0.59476   0.00000  Uiso   1.00
C1002  C     0.49974   0.79180   0.90749   0.00000  Uiso   1.00
C1003  C     0.48324   0.87439   0.90524   0.00000  Uiso   1.00
C1004  C     0.57918   0.83335   0.74902   0.00000  Uiso   1.00
C1005  C     0.50026   0.79180   0.59251   0.00000  Uiso   1.00
C1006  C     0.50767   0.83301   0.61741   0.00000  Uiso   1.00
C1007  C     0.49233   0.83301   0.88259   0.00000  Uiso   1.00
C1008  C     0.50134   0.83515   0.52440   0.00000  Uiso   1.00
C1009  C     0.49866   0.83514   0.97560   0.00000  Uiso   1.00
C1010  C     0.62385   0.83340   0.74790   0.00000  Uiso   1.00
C1011  C     0.37615   0.83340   0.75210   0.00000  Uiso   1.00
C1012  C     0.50300   0.83327   0.66538   0.00000  Uiso   1.00
C1013  C     0.49700   0.83327   0.83462   0.00000  Uiso   1.00
C1014  C     0.47377   0.69140   0.72068   0.00000  Uiso   1.00
C1015  C     0.52587   0.97525   0.77970   0.00000  Uiso   1.00
C1016  C     0.52623   0.69140   0.77932   0.00000  Uiso   1.00
C1017  C     0.47414   0.97525   0.72030   0.00000  Uiso   1.00
C1018  C     0.35473   0.79092   0.75151   0.00000  Uiso   1.00
Cu1019 Cu    0.50000   0.88022   0.75000   0.00000  Uiso   1.00
Cu1020 Cu    0.50000   0.78645   0.75000   0.00000  Uiso   1.00
H1021  H     0.52108   0.90653   0.53213   0.00000  Uiso   1.00
H1022  H     0.64006   0.94007   0.76759   0.00000  Uiso   1.00
H1023  H     0.63892   0.72631   0.76487   0.00000  Uiso   1.00
H1024  H     0.35993   0.94007   0.73241   0.00000  Uiso   1.00
H1025  H     0.51555   0.76267   0.97037   0.00000  Uiso   1.00
H1026  H     0.47890   0.90653   0.96786   0.00000  Uiso   1.00
H1027  H     0.48445   0.76267   0.52964   0.00000  Uiso   1.00
H1028  H     0.54881   0.90515   0.64239   0.00000  Uiso   1.00
H1029  H     0.47532   0.74582   0.86809   0.00000  Uiso   1.00
H1030  H     0.45118   0.90513   0.85761   0.00000  Uiso   1.00
H1031  H     0.52470   0.74583   0.63192   0.00000  Uiso   1.00
H1032  H     0.36108   0.72631   0.73512   0.00000  Uiso   1.00
I1033  I     0.43085   0.72627   0.67442   0.00000  Uiso   1.00
I1034  I     0.56651   0.94031   0.82832   0.00000  Uiso   1.00
I1035  I     0.56915   0.72627   0.82558   0.00000  Uiso   1.00
I1036  I     0.43349   0.94031   0.67168   0.00000  Uiso   1.00
N1037  N     0.50000   0.95069   0.75000   0.00000  Uiso   1.00
N1038  N     0.50000   0.71598   0.75000   0.00000  Uiso   1.00
O1039  O     0.43988   0.87291   0.75000   0.00000  Uiso   1.00
O1040  O     0.50021   0.74836   0.88893   0.00000  Uiso   1.00
O1041  O     0.46942   0.91433   0.88388   0.00000  Uiso   1.00
O1042  O     0.49981   0.74836   0.61108   0.00000  Uiso   1.00
O1043  O     0.37603   0.74959   0.75435   0.00000  Uiso   1.00
O1044  O     0.62412   0.91730   0.74866   0.00000  Uiso   1.00
O1045  O     0.62397   0.74959   0.74565   0.00000  Uiso   1.00
O1046  O     0.37588   0.91730   0.75134   0.00000  Uiso   1.00
O1047  O     0.56012   0.79375   0.75001   0.00000  Uiso   1.00
O1048  O     0.56012   0.87291   0.75001   0.00000  Uiso   1.00
O1049  O     0.43988   0.79375   0.75000   0.00000  Uiso   1.00
O1050  O     0.50000   0.87293   0.68573   0.00000  Uiso   1.00
O1051  O     0.50000   0.79374   0.81427   0.00000  Uiso   1.00
O1052  O     0.50000   0.87293   0.81427   0.00000  Uiso   1.00
O1053  O     0.50000   0.79374   0.68573   0.00000  Uiso   1.00
O1054  O     0.53056   0.91434   0.61611   0.00000  Uiso   1.00
C1055  C     0.75415   0.83335   0.75098   0.00000  Uiso   1.00
C1056  C     0.97864   0.87590   0.74922   0.00000  Uiso   1.00
C1057  C     0.97860   0.79092   0.74849   0.00000  Uiso   1.00
C1058  C     0.68803   0.87590   0.75078   0.00000  Uiso   1.00
C1059  C     0.84655   0.87499   0.54871   0.00000  Uiso   1.00
C1060  C     0.83932   0.79412   0.95298   0.00000  Uiso   1.00
C1061  C     0.82011   0.87499   0.95129   0.00000  Uiso   1.00
C1062  C     0.82735   0.79412   0.54702   0.00000  Uiso   1.00
C1063  C     0.85009   0.87440   0.59476   0.00000  Uiso   1.00
C1064  C     0.83308   0.79180   0.90749   0.00000  Uiso   1.00
C1065  C     0.81657   0.87439   0.90524   0.00000  Uiso   1.00
C1066  C     0.91251   0.83335   0.74902   0.00000  Uiso   1.00
C1067  C     0.83360   0.79180   0.59251   0.00000  Uiso   1.00
C1068  C     0.84101   0.83301   0.61741   0.00000  Uiso   1.00
C1069  C     0.82566   0.83301   0.88259   0.00000  Uiso   1.00
C1070  C     0.83467   0.83515   0.52440   0.00000  Uiso   1.00
C1071  C     0.83199   0.83514   0.97560   0.00000  Uiso   1.00
C1072  C     0.95718   0.83340   0.74790   0.00000  Uiso   1.00
C1073  C     0.70949   0.83340   0.75210   0.00000  Uiso   1.00
C1074  C     0.83633   0.83327   0.66538   0.00000  Uiso   1.00
C1075  C     0.83034   0.83327   0.83462   0.00000  Uiso   1.00
C1076  C     0.80710   0.69140   0.72068   0.00000  Uiso   1.00
C1077  C     0.85920   0.97525   0.77970   0.00000  Uiso   1.00
C1078  C     0.85957   0.69140   0.77932   0.00000  Uiso   1.00
C1079  C     0.80747   0.97525   0.72030   0.00000  Uiso   1.00
C1080  C     0.68806   0.79092   0.75151   0.00000  Uiso   1.00
Cu1081 Cu    0.83333   0.88022   0.75000   0.00000  Uiso   1.00
Cu1082 Cu    0.83333   0.78645   0.75000   0.00000  Uiso   1.00
H1083  H     0.85441   0.90653   0.53213   0.00000  Uiso   1.00
H1084  H     0.97340   0.94007   0.76759   0.00000  Uiso   1.00
H1085  H     0.97226   0.72631   0.76487   0.00000  Uiso   1.00
H1086  H     0.69327   0.94007   0.73241   0.00000  Uiso   1.00
H1087  H     0.84889   0.76267   0.97037   0.00000  Uiso   1.00
H1088  H     0.81224   0.90653   0.96786   0.00000  Uiso   1.00
H1089  H     0.81779   0.76267   0.52964   0.00000  Uiso   1.00
H1090  H     0.88215   0.90515   0.64239   0.00000  Uiso   1.00
H1091  H     0.80865   0.74582   0.86809   0.00000  Uiso   1.00
H1092  H     0.78451   0.90513   0.85761   0.00000  Uiso   1.00
H1093  H     0.85803   0.74583   0.63192   0.00000  Uiso   1.00
H1094  H     0.69441   0.72631   0.73512   0.00000  Uiso   1.00
I1095  I     0.76419   0.72627   0.67442   0.00000  Uiso   1.00
I1096  I     0.89984   0.94031   0.82832   0.00000  Uiso   1.00
I1097  I     0.90248   0.72627   0.82558   0.00000  Uiso   1.00
I1098  I     0.76683   0.94031   0.67168   0.00000  Uiso   1.00
N1099  N     0.83333   0.95069   0.75000   0.00000  Uiso   1.00
N1100  N     0.83333   0.71598   0.75000   0.00000  Uiso   1.00
O1101  O     0.77321   0.87291   0.75000   0.00000  Uiso   1.00
O1102  O     0.83354   0.74836   0.88893   0.00000  Uiso   1.00
O1103  O     0.80276   0.91433   0.88388   0.00000  Uiso   1.00
O1104  O     0.83314   0.74836   0.61108   0.00000  Uiso   1.00
O1105  O     0.70937   0.74959   0.75435   0.00000  Uiso   1.00
O1106  O     0.95746   0.91730   0.74866   0.00000  Uiso   1.00
O1107  O     0.95730   0.74959   0.74565   0.00000  Uiso   1.00
O1108  O     0.70921   0.91730   0.75134   0.00000  Uiso   1.00
O1109  O     0.89345   0.79375   0.75001   0.00000  Uiso   1.00
O1110  O     0.89345   0.87291   0.75001   0.00000  Uiso   1.00
O1111  O     0.77321   0.79375   0.75000   0.00000  Uiso   1.00
O1112  O     0.83333   0.87293   0.68573   0.00000  Uiso   1.00
O1113  O     0.83334   0.79374   0.81427   0.00000  Uiso   1.00
O1114  O     0.83334   0.87293   0.81427   0.00000  Uiso   1.00
O1115  O     0.83333   0.79374   0.68573   0.00000  Uiso   1.00
O1116  O     0.86390   0.91434   0.61611   0.00000  Uiso   1.00
loop_
_geom_bond_atom_site_label_1
_geom_bond_atom_site_label_2
_geom_bond_distance
_geom_bond_site_symmetry_2
_ccdc_geom_bond_type
C1     O57     1.304   .     A
C1     C19     1.475   .     S
C1     O47     1.303   .     A
C2     C18     1.412   .     A
C2     O52     1.381   .     S
C2     C66     1.404   .     S
C3     O53     1.381   .     S
C3     C18     1.412   .     A
C3     C88     1.404   .     S
C4     O54     1.381   .     S
C4     C19     1.412   .     A
C4     C126    1.404   1_455 S
C5     C9      1.396   .     A
C5     H29     1.083   .     S
C5     C16     1.402   .     A
C6     C10     1.383   .     A
C6     H33     1.081   .     S
C6     C17     1.400   .     A
C7     C11     1.396   .     A
C7     H34     1.083   .     S
C7     C17     1.402   .     A
C8     C13     1.383   .     A
C8     C16     1.400   .     A
C8     H35     1.081   .     S
C9     C14     1.423   .     A
C9     O62     1.378   .     S
C10    C15     1.418   .     A
C10    O48     1.374   .     S
C11    O49     1.378   .     S
C11    C15     1.423   .     A
C12    O56     1.303   .     A
C12    O55     1.304   .     A
C12    C18     1.475   .     S
C13    C14     1.418   .     A
C13    O50     1.374   .     S
C14    C20     1.483   .     S
C15    C21     1.483   .     S
C16    C575    1.480   1_554 S
C17    C574    1.480   .     S
C19    C26     1.412   .     A
C20    O61     1.305   .     A
C20    O58     1.308   .     A
C21    O59     1.305   .     A
C21    O60     1.308   .     A
C22    N46     1.379   .     A
C22    I41     2.149   .     S
C22    C397    1.426   1_545 S
C23    N45     1.379   .     A
C23    I42     2.151   .     S
C23    C210    1.426   .     S
C24    N46     1.379   .     A
C24    I43     2.149   .     S
C24    C395    1.426   1_545 S
C25    I44     2.151   .     S
C25    N45     1.379   .     A
C25    C208    1.426   .     S
C26    O51     1.381   .     S
C26    C127    1.404   1_455 S
Cu27   O47     1.991   .     S
Cu27   O60     1.968   .     S
Cu27   N45     2.030   .     S
Cu27   O58     1.968   .     S
Cu27   Cu28    2.702   .     S
Cu27   O56     1.991   .     S
Cu28   O61     1.968   .     S
Cu28   O57     1.991   .     S
Cu28   N46     2.030   .     S
Cu28   O55     1.991   .     S
Cu28   O59     1.968   .     S
H30    O52     0.991   .     S
H31    O53     0.991   .     S
H32    O54     0.991   .     S
H36    O62     0.991   .     S
H37    O48     0.991   .     S
H38    O49     0.991   .     S
H39    O50     0.991   .     S
H40    O51     0.991   .     S
C63    O119    1.304   .     A
C63    C81     1.475   .     S
C63    O109    1.303   .     A
C64    C80     1.412   .     A
C64    O114    1.381   .     S
C64    C128    1.404   .     S
C65    O115    1.381   .     S
C65    C80     1.412   .     A
C65    C150    1.404   .     S
C66    O116    1.381   .     S
C66    C81     1.412   .     A
C67    C71     1.396   .     A
C67    H91     1.083   .     S
C67    C78     1.402   .     A
C68    C72     1.383   .     A
C68    H95     1.081   .     S
C68    C79     1.400   .     A
C69    C73     1.396   .     A
C69    H96     1.083   .     S
C69    C79     1.402   .     A
C70    C75     1.383   .     A
C70    C78     1.400   .     A
C70    H97     1.081   .     S
C71    C76     1.423   .     A
C71    O124    1.378   .     S
C72    C77     1.418   .     A
C72    O110    1.374   .     S
C73    O111    1.378   .     S
C73    C77     1.423   .     A
C74    O118    1.303   .     A
C74    O117    1.304   .     A
C74    C80     1.475   .     S
C75    C76     1.418   .     A
C75    O112    1.374   .     S
C76    C82     1.483   .     S
C77    C83     1.483   .     S
C78    C637    1.480   1_554 S
C79    C636    1.480   .     S
C81    C88     1.412   .     A
C82    O123    1.305   .     A
C82    O120    1.308   .     A
C83    O121    1.305   .     A
C83    O122    1.308   .     A
C84    N108    1.379   .     A
C84    I103    2.149   .     S
C84    C459    1.426   1_545 S
C85    N107    1.379   .     A
C85    I104    2.151   .     S
C85    C272    1.426   .     S
C86    N108    1.379   .     A
C86    I105    2.149   .     S
C86    C457    1.426   1_545 S
C87    I106    2.151   .     S
C87    N107    1.379   .     A
C87    C270    1.426   .     S
C88    O113    1.381   .     S
Cu89   O109    1.991   .     S
Cu89   O122    1.968   .     S
Cu89   N107    2.030   .     S
Cu89   O120    1.968   .     S
Cu89   Cu90    2.702   .     S
Cu89   O118    1.991   .     S
Cu90   O123    1.968   .     S
Cu90   O119    1.991   .     S
Cu90   N108    2.030   .     S
Cu90   O117    1.991   .     S
Cu90   O121    1.968   .     S
H92    O114    0.991   .     S
H93    O115    0.991   .     S
H94    O116    0.991   .     S
H98    O124    0.991   .     S
H99    O110    0.991   .     S
H100   O111    0.991   .     S
H101   O112    0.991   .     S
H102   O113    0.991   .     S
C125   O181    1.304   .     A
C125   C143    1.475   .     S
C125   O171    1.303   .     A
C126   C142    1.412   .     A
C126   O176    1.381   .     S
C126   C4      1.404   1_655 S
C127   O177    1.381   .     S
C127   C142    1.412   .     A
C127   C26     1.404   1_655 S
C128   O178    1.381   .     S
C128   C143    1.412   .     A
C129   C133    1.396   .     A
C129   H153    1.083   .     S
C129   C140    1.402   .     A
C130   C134    1.383   .     A
C130   H157    1.081   .     S
C130   C141    1.400   .     A
C131   C135    1.396   .     A
C131   H158    1.083   .     S
C131   C141    1.402   .     A
C132   C137    1.383   .     A
C132   C140    1.400   .     A
C132   H159    1.081   .     S
C133   C138    1.423   .     A
C133   O186    1.378   .     S
C134   C139    1.418   .     A
C134   O172    1.374   .     S
C135   O173    1.378   .     S
C135   C139    1.423   .     A
C136   O180    1.303   .     A
C136   O179    1.304   .     A
C136   C142    1.475   .     S
C137   C138    1.418   .     A
C137   O174    1.374   .     S
C138   C144    1.483   .     S
C139   C145    1.483   .     S
C140   C699    1.480   1_554 S
C141   C698    1.480   .     S
C143   C150    1.412   .     A
C144   O185    1.305   .     A
C144   O182    1.308   .     A
C145   O183    1.305   .     A
C145   O184    1.308   .     A
C146   N170    1.379   .     A
C146   I165    2.149   .     S
C146   C521    1.426   1_545 S
C147   N169    1.379   .     A
C147   I166    2.151   .     S
C147   C334    1.426   .     S
C148   N170    1.379   .     A
C148   I167    2.149   .     S
C148   C519    1.426   1_545 S
C149   I168    2.151   .     S
C149   N169    1.379   .     A
C149   C332    1.426   .     S
C150   O175    1.381   .     S
Cu151  O171    1.991   .     S
Cu151  O184    1.968   .     S
Cu151  N169    2.030   .     S
Cu151  O182    1.968   .     S
Cu151  Cu152   2.702   .     S
Cu151  O180    1.991   .     S
Cu152  O185    1.968   .     S
Cu152  O181    1.991   .     S
Cu152  N170    2.030   .     S
Cu152  O179    1.991   .     S
Cu152  O183    1.968   .     S
H154   O176    0.991   .     S
H155   O177    0.991   .     S
H156   O178    0.991   .     S
H160   O186    0.991   .     S
H161   O172    0.991   .     S
H162   O173    0.991   .     S
H163   O174    0.991   .     S
H164   O175    0.991   .     S
C187   O243    1.304   .     A
C187   C205    1.475   .     S
C187   O233    1.303   .     A
C188   C204    1.412   .     A
C188   O238    1.381   .     S
C188   C252    1.404   .     S
C189   O239    1.381   .     S
C189   C204    1.412   .     A
C189   C274    1.404   .     S
C190   O240    1.381   .     S
C190   C205    1.412   .     A
C190   C312    1.404   1_455 S
C191   C195    1.396   .     A
C191   H215    1.083   .     S
C191   C202    1.402   .     A
C192   C196    1.383   .     A
C192   H219    1.081   .     S
C192   C203    1.400   .     A
C193   C197    1.396   .     A
C193   H220    1.083   .     S
C193   C203    1.402   .     A
C194   C199    1.383   .     A
C194   C202    1.400   .     A
C194   H221    1.081   .     S
C195   C200    1.423   .     A
C195   O248    1.378   .     S
C196   C201    1.418   .     A
C196   O234    1.374   .     S
C197   O235    1.378   .     S
C197   C201    1.423   .     A
C198   O242    1.303   .     A
C198   O241    1.304   .     A
C198   C204    1.475   .     S
C199   C200    1.418   .     A
C199   O236    1.374   .     S
C200   C206    1.483   .     S
C201   C207    1.483   .     S
C202   C761    1.480   1_554 S
C203   C760    1.480   .     S
C205   C212    1.412   .     A
C206   O247    1.305   .     A
C206   O244    1.308   .     A
C207   O245    1.305   .     A
C207   O246    1.308   .     A
C208   N232    1.379   .     A
C208   I227    2.149   .     S
C209   N231    1.379   .     A
C209   I228    2.151   .     S
C209   C396    1.426   .     S
C210   N232    1.379   .     A
C210   I229    2.149   .     S
C211   I230    2.151   .     S
C211   N231    1.379   .     A
C211   C394    1.426   .     S
C212   O237    1.381   .     S
C212   C313    1.404   1_455 S
Cu213  O233    1.991   .     S
Cu213  O246    1.968   .     S
Cu213  N231    2.030   .     S
Cu213  O244    1.968   .     S
Cu213  Cu214   2.702   .     S
Cu213  O242    1.991   .     S
Cu214  O247    1.968   .     S
Cu214  O243    1.991   .     S
Cu214  N232    2.030   .     S
Cu214  O241    1.991   .     S
Cu214  O245    1.968   .     S
H216   O238    0.991   .     S
H217   O239    0.991   .     S
H218   O240    0.991   .     S
H222   O248    0.991   .     S
H223   O234    0.991   .     S
H224   O235    0.991   .     S
H225   O236    0.991   .     S
H226   O237    0.991   .     S
C249   O305    1.304   .     A
C249   C267    1.475   .     S
C249   O295    1.303   .     A
C250   C266    1.412   .     A
C250   O300    1.381   .     S
C250   C314    1.404   .     S
C251   O301    1.381   .     S
C251   C266    1.412   .     A
C251   C336    1.404   .     S
C252   O302    1.381   .     S
C252   C267    1.412   .     A
C253   C257    1.396   .     A
C253   H277    1.083   .     S
C253   C264    1.402   .     A
C254   C258    1.383   .     A
C254   H281    1.081   .     S
C254   C265    1.400   .     A
C255   C259    1.396   .     A
C255   H282    1.083   .     S
C255   C265    1.402   .     A
C256   C261    1.383   .     A
C256   C264    1.400   .     A
C256   H283    1.081   .     S
C257   C262    1.423   .     A
C257   O310    1.378   .     S
C258   C263    1.418   .     A
C258   O296    1.374   .     S
C259   O297    1.378   .     S
C259   C263    1.423   .     A
C260   O304    1.303   .     A
C260   O303    1.304   .     A
C260   C266    1.475   .     S
C261   C262    1.418   .     A
C261   O298    1.374   .     S
C262   C268    1.483   .     S
C263   C269    1.483   .     S
C264   C823    1.480   1_554 S
C265   C822    1.480   .     S
C267   C274    1.412   .     A
C268   O309    1.305   .     A
C268   O306    1.308   .     A
C269   O307    1.305   .     A
C269   O308    1.308   .     A
C270   N294    1.379   .     A
C270   I289    2.149   .     S
C271   N293    1.379   .     A
C271   I290    2.151   .     S
C271   C458    1.426   .     S
C272   N294    1.379   .     A
C272   I291    2.149   .     S
C273   I292    2.151   .     S
C273   N293    1.379   .     A
C273   C456    1.426   .     S
C274   O299    1.381   .     S
Cu275  O295    1.991   .     S
Cu275  O308    1.968   .     S
Cu275  N293    2.030   .     S
Cu275  O306    1.968   .     S
Cu275  Cu276   2.702   .     S
Cu275  O304    1.991   .     S
Cu276  O309    1.968   .     S
Cu276  O305    1.991   .     S
Cu276  N294    2.030   .     S
Cu276  O303    1.991   .     S
Cu276  O307    1.968   .     S
H278   O300    0.991   .     S
H279   O301    0.991   .     S
H280   O302    0.991   .     S
H284   O310    0.991   .     S
H285   O296    0.991   .     S
H286   O297    0.991   .     S
H287   O298    0.991   .     S
H288   O299    0.991   .     S
C311   O367    1.304   .     A
C311   C329    1.475   .     S
C311   O357    1.303   .     A
C312   C328    1.412   .     A
C312   O362    1.381   .     S
C312   C190    1.404   1_655 S
C313   O363    1.381   .     S
C313   C328    1.412   .     A
C313   C212    1.404   1_655 S
C314   O364    1.381   .     S
C314   C329    1.412   .     A
C315   C319    1.396   .     A
C315   H339    1.083   .     S
C315   C326    1.402   .     A
C316   C320    1.383   .     A
C316   H343    1.081   .     S
C316   C327    1.400   .     A
C317   C321    1.396   .     A
C317   H344    1.083   .     S
C317   C327    1.402   .     A
C318   C323    1.383   .     A
C318   C326    1.400   .     A
C318   H345    1.081   .     S
C319   C324    1.423   .     A
C319   O372    1.378   .     S
C320   C325    1.418   .     A
C320   O358    1.374   .     S
C321   O359    1.378   .     S
C321   C325    1.423   .     A
C322   O366    1.303   .     A
C322   O365    1.304   .     A
C322   C328    1.475   .     S
C323   C324    1.418   .     A
C323   O360    1.374   .     S
C324   C330    1.483   .     S
C325   C331    1.483   .     S
C326   C885    1.480   1_554 S
C327   C884    1.480   .     S
C329   C336    1.412   .     A
C330   O371    1.305   .     A
C330   O368    1.308   .     A
C331   O369    1.305   .     A
C331   O370    1.308   .     A
C332   N356    1.379   .     A
C332   I351    2.149   .     S
C333   N355    1.379   .     A
C333   I352    2.151   .     S
C333   C520    1.426   .     S
C334   N356    1.379   .     A
C334   I353    2.149   .     S
C335   I354    2.151   .     S
C335   N355    1.379   .     A
C335   C518    1.426   .     S
C336   O361    1.381   .     S
Cu337  O357    1.991   .     S
Cu337  O370    1.968   .     S
Cu337  N355    2.030   .     S
Cu337  O368    1.968   .     S
Cu337  Cu338   2.702   .     S
Cu337  O366    1.991   .     S
Cu338  O371    1.968   .     S
Cu338  O367    1.991   .     S
Cu338  N356    2.030   .     S
Cu338  O365    1.991   .     S
Cu338  O369    1.968   .     S
H340   O362    0.991   .     S
H341   O363    0.991   .     S
H342   O364    0.991   .     S
H346   O372    0.991   .     S
H347   O358    0.991   .     S
H348   O359    0.991   .     S
H349   O360    0.991   .     S
H350   O361    0.991   .     S
C373   O429    1.304   .     A
C373   C391    1.475   .     S
C373   O419    1.303   .     A
C374   C390    1.412   .     A
C374   O424    1.381   .     S
C374   C438    1.404   .     S
C375   O425    1.381   .     S
C375   C390    1.412   .     A
C375   C460    1.404   .     S
C376   O426    1.381   .     S
C376   C391    1.412   .     A
C376   C498    1.404   1_455 S
C377   C381    1.396   .     A
C377   H401    1.083   .     S
C377   C388    1.402   .     A
C378   C382    1.383   .     A
C378   H405    1.081   .     S
C378   C389    1.400   .     A
C379   C383    1.396   .     A
C379   H406    1.083   .     S
C379   C389    1.402   .     A
C380   C385    1.383   .     A
C380   C388    1.400   .     A
C380   H407    1.081   .     S
C381   C386    1.423   .     A
C381   O434    1.378   .     S
C382   C387    1.418   .     A
C382   O420    1.374   .     S
C383   O421    1.378   .     S
C383   C387    1.423   .     A
C384   O428    1.303   .     A
C384   O427    1.304   .     A
C384   C390    1.475   .     S
C385   C386    1.418   .     A
C385   O422    1.374   .     S
C386   C392    1.483   .     S
C387   C393    1.483   .     S
C388   C947    1.480   1_554 S
C389   C946    1.480   .     S
C391   C398    1.412   .     A
C392   O433    1.305   .     A
C392   O430    1.308   .     A
C393   O431    1.305   .     A
C393   O432    1.308   .     A
C394   N418    1.379   .     A
C394   I413    2.149   .     S
C395   N417    1.379   .     A
C395   I414    2.151   .     S
C395   C24     1.426   1_565 S
C396   N418    1.379   .     A
C396   I415    2.149   .     S
C397   I416    2.151   .     S
C397   N417    1.379   .     A
C397   C22     1.426   1_565 S
C398   O423    1.381   .     S
C398   C499    1.404   1_455 S
Cu399  O419    1.991   .     S
Cu399  O432    1.968   .     S
Cu399  N417    2.030   .     S
Cu399  O430    1.968   .     S
Cu399  Cu400   2.702   .     S
Cu399  O428    1.991   .     S
Cu400  O433    1.968   .     S
Cu400  O429    1.991   .     S
Cu400  N418    2.030   .     S
Cu400  O427    1.991   .     S
Cu400  O431    1.968   .     S
H402   O424    0.991   .     S
H403   O425    0.991   .     S
H404   O426    0.991   .     S
H408   O434    0.991   .     S
H409   O420    0.991   .     S
H410   O421    0.991   .     S
H411   O422    0.991   .     S
H412   O423    0.991   .     S
C435   O491    1.304   .     A
C435   C453    1.475   .     S
C435   O481    1.303   .     A
C436   C452    1.412   .     A
C436   O486    1.381   .     S
C436   C500    1.404   .     S
C437   O487    1.381   .     S
C437   C452    1.412   .     A
C437   C522    1.404   .     S
C438   O488    1.381   .     S
C438   C453    1.412   .     A
C439   C443    1.396   .     A
C439   H463    1.083   .     S
C439   C450    1.402   .     A
C440   C444    1.383   .     A
C440   H467    1.081   .     S
C440   C451    1.400   .     A
C441   C445    1.396   .     A
C441   H468    1.083   .     S
C441   C451    1.402   .     A
C442   C447    1.383   .     A
C442   C450    1.400   .     A
C442   H469    1.081   .     S
C443   C448    1.423   .     A
C443   O496    1.378   .     S
C444   C449    1.418   .     A
C444   O482    1.374   .     S
C445   O483    1.378   .     S
C445   C449    1.423   .     A
C446   O490    1.303   .     A
C446   O489    1.304   .     A
C446   C452    1.475   .     S
C447   C448    1.418   .     A
C447   O484    1.374   .     S
C448   C454    1.483   .     S
C449   C455    1.483   .     S
C450   C1009   1.480   1_554 S
C451   C1008   1.480   .     S
C453   C460    1.412   .     A
C454   O495    1.305   .     A
C454   O492    1.308   .     A
C455   O493    1.305   .     A
C455   O494    1.308   .     A
C456   N480    1.379   .     A
C456   I475    2.149   .     S
C457   N479    1.379   .     A
C457   I476    2.151   .     S
C457   C86     1.426   1_565 S
C458   N480    1.379   .     A
C458   I477    2.149   .     S
C459   I478    2.151   .     S
C459   N479    1.379   .     A
C459   C84     1.426   1_565 S
C460   O485    1.381   .     S
Cu461  O481    1.991   .     S
Cu461  O494    1.968   .     S
Cu461  N479    2.030   .     S
Cu461  O492    1.968   .     S
Cu461  Cu462   2.702   .     S
Cu461  O490    1.991   .     S
Cu462  O495    1.968   .     S
Cu462  O491    1.991   .     S
Cu462  N480    2.030   .     S
Cu462  O489    1.991   .     S
Cu462  O493    1.968   .     S
H464   O486    0.991   .     S
H465   O487    0.991   .     S
H466   O488    0.991   .     S
H470   O496    0.991   .     S
H471   O482    0.991   .     S
H472   O483    0.991   .     S
H473   O484    0.991   .     S
H474   O485    0.991   .     S
C497   O553    1.304   .     A
C497   C515    1.475   .     S
C497   O543    1.303   .     A
C498   C514    1.412   .     A
C498   O548    1.381   .     S
C498   C376    1.404   1_655 S
C499   O549    1.381   .     S
C499   C514    1.412   .     A
C499   C398    1.404   1_655 S
C500   O550    1.381   .     S
C500   C515    1.412   .     A
C501   C505    1.396   .     A
C501   H525    1.083   .     S
C501   C512    1.402   .     A
C502   C506    1.383   .     A
C502   H529    1.081   .     S
C502   C513    1.400   .     A
C503   C507    1.396   .     A
C503   H530    1.083   .     S
C503   C513    1.402   .     A
C504   C509    1.383   .     A
C504   C512    1.400   .     A
C504   H531    1.081   .     S
C505   C510    1.423   .     A
C505   O558    1.378   .     S
C506   C511    1.418   .     A
C506   O544    1.374   .     S
C507   O545    1.378   .     S
C507   C511    1.423   .     A
C508   O552    1.303   .     A
C508   O551    1.304   .     A
C508   C514    1.475   .     S
C509   C510    1.418   .     A
C509   O546    1.374   .     S
C510   C516    1.483   .     S
C511   C517    1.483   .     S
C512   C1071   1.480   1_554 S
C513   C1070   1.480   .     S
C515   C522    1.412   .     A
C516   O557    1.305   .     A
C516   O554    1.308   .     A
C517   O555    1.305   .     A
C517   O556    1.308   .     A
C518   N542    1.379   .     A
C518   I537    2.149   .     S
C519   N541    1.379   .     A
C519   I538    2.151   .     S
C519   C148    1.426   1_565 S
C520   N542    1.379   .     A
C520   I539    2.149   .     S
C521   I540    2.151   .     S
C521   N541    1.379   .     A
C521   C146    1.426   1_565 S
C522   O547    1.381   .     S
Cu523  O543    1.991   .     S
Cu523  O556    1.968   .     S
Cu523  N541    2.030   .     S
Cu523  O554    1.968   .     S
Cu523  Cu524   2.702   .     S
Cu523  O552    1.991   .     S
Cu524  O557    1.968   .     S
Cu524  O553    1.991   .     S
Cu524  N542    2.030   .     S
Cu524  O551    1.991   .     S
Cu524  O555    1.968   .     S
H526   O548    0.991   .     S
H527   O549    0.991   .     S
H528   O550    0.991   .     S
H532   O558    0.991   .     S
H533   O544    0.991   .     S
H534   O545    0.991   .     S
H535   O546    0.991   .     S
H536   O547    0.991   .     S
C559   O615    1.304   .     A
C559   C577    1.475   .     S
C559   O605    1.303   .     A
C560   C576    1.412   .     A
C560   O610    1.381   .     S
C560   C624    1.404   .     S
C561   O611    1.381   .     S
C561   C576    1.412   .     A
C561   C646    1.404   .     S
C562   O612    1.381   .     S
C562   C577    1.412   .     A
C562   C684    1.404   1_455 S
C563   C567    1.396   .     A
C563   H587    1.083   .     S
C563   C574    1.402   .     A
C564   C568    1.383   .     A
C564   H591    1.081   .     S
C564   C575    1.400   .     A
C565   C569    1.396   .     A
C565   H592    1.083   .     S
C565   C575    1.402   .     A
C566   C571    1.383   .     A
C566   C574    1.400   .     A
C566   H593    1.081   .     S
C567   C572    1.423   .     A
C567   O620    1.378   .     S
C568   C573    1.418   .     A
C568   O606    1.374   .     S
C569   O607    1.378   .     S
C569   C573    1.423   .     A
C570   O614    1.303   .     A
C570   O613    1.304   .     A
C570   C576    1.475   .     S
C571   C572    1.418   .     A
C571   O608    1.374   .     S
C572   C578    1.483   .     S
C573   C579    1.483   .     S
C575   C16     1.480   1_556 S
C577   C584    1.412   .     A
C578   O619    1.305   .     A
C578   O616    1.308   .     A
C579   O617    1.305   .     A
C579   O618    1.308   .     A
C580   N604    1.379   .     A
C580   I599    2.149   .     S
C580   C955    1.426   1_545 S
C581   N603    1.379   .     A
C581   I600    2.151   .     S
C581   C768    1.426   .     S
C582   N604    1.379   .     A
C582   I601    2.149   .     S
C582   C953    1.426   1_545 S
C583   I602    2.151   .     S
C583   N603    1.379   .     A
C583   C766    1.426   .     S
C584   O609    1.381   .     S
C584   C685    1.404   1_455 S
Cu585  O605    1.991   .     S
Cu585  O618    1.968   .     S
Cu585  N603    2.030   .     S
Cu585  O616    1.968   .     S
Cu585  Cu586   2.702   .     S
Cu585  O614    1.991   .     S
Cu586  O619    1.968   .     S
Cu586  O615    1.991   .     S
Cu586  N604    2.030   .     S
Cu586  O613    1.991   .     S
Cu586  O617    1.968   .     S
H588   O610    0.991   .     S
H589   O611    0.991   .     S
H590   O612    0.991   .     S
H594   O620    0.991   .     S
H595   O606    0.991   .     S
H596   O607    0.991   .     S
H597   O608    0.991   .     S
H598   O609    0.991   .     S
C621   O677    1.304   .     A
C621   C639    1.475   .     S
C621   O667    1.303   .     A
C622   C638    1.412   .     A
C622   O672    1.381   .     S
C622   C686    1.404   .     S
C623   O673    1.381   .     S
C623   C638    1.412   .     A
C623   C708    1.404   .     S
C624   O674    1.381   .     S
C624   C639    1.412   .     A
C625   C629    1.396   .     A
C625   H649    1.083   .     S
C625   C636    1.402   .     A
C626   C630    1.383   .     A
C626   H653    1.081   .     S
C626   C637    1.400   .     A
C627   C631    1.396   .     A
C627   H654    1.083   .     S
C627   C637    1.402   .     A
C628   C633    1.383   .     A
C628   C636    1.400   .     A
C628   H655    1.081   .     S
C629   C634    1.423   .     A
C629   O682    1.378   .     S
C630   C635    1.418   .     A
C630   O668    1.374   .     S
C631   O669    1.378   .     S
C631   C635    1.423   .     A
C632   O676    1.303   .     A
C632   O675    1.304   .     A
C632   C638    1.475   .     S
C633   C634    1.418   .     A
C633   O670    1.374   .     S
C634   C640    1.483   .     S
C635   C641    1.483   .     S
C637   C78     1.480   1_556 S
C639   C646    1.412   .     A
C640   O681    1.305   .     A
C640   O678    1.308   .     A
C641   O679    1.305   .     A
C641   O680    1.308   .     A
C642   N666    1.379   .     A
C642   I661    2.149   .     S
C642   C1017   1.426   1_545 S
C643   N665    1.379   .     A
C643   I662    2.151   .     S
C643   C830    1.426   .     S
C644   N666    1.379   .     A
C644   I663    2.149   .     S
C644   C1015   1.426   1_545 S
C645   I664    2.151   .     S
C645   N665    1.379   .     A
C645   C828    1.426   .     S
C646   O671    1.381   .     S
Cu647  O667    1.991   .     S
Cu647  O680    1.968   .     S
Cu647  N665    2.030   .     S
Cu647  O678    1.968   .     S
Cu647  Cu648   2.702   .     S
Cu647  O676    1.991   .     S
Cu648  O681    1.968   .     S
Cu648  O677    1.991   .     S
Cu648  N666    2.030   .     S
Cu648  O675    1.991   .     S
Cu648  O679    1.968   .     S
H650   O672    0.991   .     S
H651   O673    0.991   .     S
H652   O674    0.991   .     S
H656   O682    0.991   .     S
H657   O668    0.991   .     S
H658   O669    0.991   .     S
H659   O670    0.991   .     S
H660   O671    0.991   .     S
C683   O739    1.304   .     A
C683   C701    1.475   .     S
C683   O729    1.303   .     A
C684   C700    1.412   .     A
C684   O734    1.381   .     S
C684   C562    1.404   1_655 S
C685   O735    1.381   .     S
C685   C700    1.412   .     A
C685   C584    1.404   1_655 S
C686   O736    1.381   .     S
C686   C701    1.412   .     A
C687   C691    1.396   .     A
C687   H711    1.083   .     S
C687   C698    1.402   .     A
C688   C692    1.383   .     A
C688   H715    1.081   .     S
C688   C699    1.400   .     A
C689   C693    1.396   .     A
C689   H716    1.083   .     S
C689   C699    1.402   .     A
C690   C695    1.383   .     A
C690   C698    1.400   .     A
C690   H717    1.081   .     S
C691   C696    1.423   .     A
C691   O744    1.378   .     S
C692   C697    1.418   .     A
C692   O730    1.374   .     S
C693   O731    1.378   .     S
C693   C697    1.423   .     A
C694   O738    1.303   .     A
C694   O737    1.304   .     A
C694   C700    1.475   .     S
C695   C696    1.418   .     A
C695   O732    1.374   .     S
C696   C702    1.483   .     S
C697   C703    1.483   .     S
C699   C140    1.480   1_556 S
C701   C708    1.412   .     A
C702   O743    1.305   .     A
C702   O740    1.308   .     A
C703   O741    1.305   .     A
C703   O742    1.308   .     A
C704   N728    1.379   .     A
C704   I723    2.149   .     S
C704   C1079   1.426   1_545 S
C705   N727    1.379   .     A
C705   I724    2.151   .     S
C705   C892    1.426   .     S
C706   N728    1.379   .     A
C706   I725    2.149   .     S
C706   C1077   1.426   1_545 S
C707   I726    2.151   .     S
C707   N727    1.379   .     A
C707   C890    1.426   .     S
C708   O733    1.381   .     S
Cu709  O729    1.991   .     S
Cu709  O742    1.968   .     S
Cu709  N727    2.030   .     S
Cu709  O740    1.968   .     S
Cu709  Cu710   2.702   .     S
Cu709  O738    1.991   .     S
Cu710  O743    1.968   .     S
Cu710  O739    1.991   .     S
Cu710  N728    2.030   .     S
Cu710  O737    1.991   .     S
Cu710  O741    1.968   .     S
H712   O734    0.991   .     S
H713   O735    0.991   .     S
H714   O736    0.991   .     S
H718   O744    0.991   .     S
H719   O730    0.991   .     S
H720   O731    0.991   .     S
H721   O732    0.991   .     S
H722   O733    0.991   .     S
C745   O801    1.304   .     A
C745   C763    1.475   .     S
C745   O791    1.303   .     A
C746   C762    1.412   .     A
C746   O796    1.381   .     S
C746   C810    1.404   .     S
C747   O797    1.381   .     S
C747   C762    1.412   .     A
C747   C832    1.404   .     S
C748   O798    1.381   .     S
C748   C763    1.412   .     A
C748   C870    1.404   1_455 S
C749   C753    1.396   .     A
C749   H773    1.083   .     S
C749   C760    1.402   .     A
C750   C754    1.383   .     A
C750   H777    1.081   .     S
C750   C761    1.400   .     A
C751   C755    1.396   .     A
C751   H778    1.083   .     S
C751   C761    1.402   .     A
C752   C757    1.383   .     A
C752   C760    1.400   .     A
C752   H779    1.081   .     S
C753   C758    1.423   .     A
C753   O806    1.378   .     S
C754   C759    1.418   .     A
C754   O792    1.374   .     S
C755   O793    1.378   .     S
C755   C759    1.423   .     A
C756   O800    1.303   .     A
C756   O799    1.304   .     A
C756   C762    1.475   .     S
C757   C758    1.418   .     A
C757   O794    1.374   .     S
C758   C764    1.483   .     S
C759   C765    1.483   .     S
C761   C202    1.480   1_556 S
C763   C770    1.412   .     A
C764   O805    1.305   .     A
C764   O802    1.308   .     A
C765   O803    1.305   .     A
C765   O804    1.308   .     A
C766   N790    1.379   .     A
C766   I785    2.149   .     S
C767   N789    1.379   .     A
C767   I786    2.151   .     S
C767   C954    1.426   .     S
C768   N790    1.379   .     A
C768   I787    2.149   .     S
C769   I788    2.151   .     S
C769   N789    1.379   .     A
C769   C952    1.426   .     S
C770   O795    1.381   .     S
C770   C871    1.404   1_455 S
Cu771  O791    1.991   .     S
Cu771  O804    1.968   .     S
Cu771  N789    2.030   .     S
Cu771  O802    1.968   .     S
Cu771  Cu772   2.702   .     S
Cu771  O800    1.991   .     S
Cu772  O805    1.968   .     S
Cu772  O801    1.991   .     S
Cu772  N790    2.030   .     S
Cu772  O799    1.991   .     S
Cu772  O803    1.968   .     S
H774   O796    0.991   .     S
H775   O797    0.991   .     S
H776   O798    0.991   .     S
H780   O806    0.991   .     S
H781   O792    0.991   .     S
H782   O793    0.991   .     S
H783   O794    0.991   .     S
H784   O795    0.991   .     S
C807   O863    1.304   .     A
C807   C825    1.475   .     S
C807   O853    1.303   .     A
C808   C824    1.412   .     A
C808   O858    1.381   .     S
C808   C872    1.404   .     S
C809   O859    1.381   .     S
C809   C824    1.412   .     A
C809   C894    1.404   .     S
C810   O860    1.381   .     S
C810   C825    1.412   .     A
C811   C815    1.396   .     A
C811   H835    1.083   .     S
C811   C822    1.402   .     A
C812   C816    1.383   .     A
C812   H839    1.081   .     S
C812   C823    1.400   .     A
C813   C817    1.396   .     A
C813   H840    1.083   .     S
C813   C823    1.402   .     A
C814   C819    1.383   .     A
C814   C822    1.400   .     A
C814   H841    1.081   .     S
C815   C820    1.423   .     A
C815   O868    1.378   .     S
C816   C821    1.418   .     A
C816   O854    1.374   .     S
C817   O855    1.378   .     S
C817   C821    1.423   .     A
C818   O862    1.303   .     A
C818   O861    1.304   .     A
C818   C824    1.475   .     S
C819   C820    1.418   .     A
C819   O856    1.374   .     S
C820   C826    1.483   .     S
C821   C827    1.483   .     S
C823   C264    1.480   1_556 S
C825   C832    1.412   .     A
C826   O867    1.305   .     A
C826   O864    1.308   .     A
C827   O865    1.305   .     A
C827   O866    1.308   .     A
C828   N852    1.379   .     A
C828   I847    2.149   .     S
C829   N851    1.379   .     A
C829   I848    2.151   .     S
C829   C1016   1.426   .     S
C830   N852    1.379   .     A
C830   I849    2.149   .     S
C831   I850    2.151   .     S
C831   N851    1.379   .     A
C831   C1014   1.426   .     S
C832   O857    1.381   .     S
Cu833  O853    1.991   .     S
Cu833  O866    1.968   .     S
Cu833  N851    2.030   .     S
Cu833  O864    1.968   .     S
Cu833  Cu834   2.702   .     S
Cu833  O862    1.991   .     S
Cu834  O867    1.968   .     S
Cu834  O863    1.991   .     S
Cu834  N852    2.030   .     S
Cu834  O861    1.991   .     S
Cu834  O865    1.968   .     S
H836   O858    0.991   .     S
H837   O859    0.991   .     S
H838   O860    0.991   .     S
H842   O868    0.991   .     S
H843   O854    0.991   .     S
H844   O855    0.991   .     S
H845   O856    0.991   .     S
H846   O857    0.991   .     S
C869   O925    1.304   .     A
C869   C887    1.475   .     S
C869   O915    1.303   .     A
C870   C886    1.412   .     A
C870   O920    1.381   .     S
C870   C748    1.404   1_655 S
C871   O921    1.381   .     S
C871   C886    1.412   .     A
C871   C770    1.404   1_655 S
C872   O922    1.381   .     S
C872   C887    1.412   .     A
C873   C877    1.396   .     A
C873   H897    1.083   .     S
C873   C884    1.402   .     A
C874   C878    1.383   .     A
C874   H901    1.081   .     S
C874   C885    1.400   .     A
C875   C879    1.396   .     A
C875   H902    1.083   .     S
C875   C885    1.402   .     A
C876   C881    1.383   .     A
C876   C884    1.400   .     A
C876   H903    1.081   .     S
C877   C882    1.423   .     A
C877   O930    1.378   .     S
C878   C883    1.418   .     A
C878   O916    1.374   .     S
C879   O917    1.378   .     S
C879   C883    1.423   .     A
C880   O924    1.303   .     A
C880   O923    1.304   .     A
C880   C886    1.475   .     S
C881   C882    1.418   .     A
C881   O918    1.374   .     S
C882   C888    1.483   .     S
C883   C889    1.483   .     S
C885   C326    1.480   1_556 S
C887   C894    1.412   .     A
C888   O929    1.305   .     A
C888   O926    1.308   .     A
C889   O927    1.305   .     A
C889   O928    1.308   .     A
C890   N914    1.379   .     A
C890   I909    2.149   .     S
C891   N913    1.379   .     A
C891   I910    2.151   .     S
C891   C1078   1.426   .     S
C892   N914    1.379   .     A
C892   I911    2.149   .     S
C893   I912    2.151   .     S
C893   N913    1.379   .     A
C893   C1076   1.426   .     S
C894   O919    1.381   .     S
Cu895  O915    1.991   .     S
Cu895  O928    1.968   .     S
Cu895  N913    2.030   .     S
Cu895  O926    1.968   .     S
Cu895  Cu896   2.702   .     S
Cu895  O924    1.991   .     S
Cu896  O929    1.968   .     S
Cu896  O925    1.991   .     S
Cu896  N914    2.030   .     S
Cu896  O923    1.991   .     S
Cu896  O927    1.968   .     S
H898   O920    0.991   .     S
H899   O921    0.991   .     S
H900   O922    0.991   .     S
H904   O930    0.991   .     S
H905   O916    0.991   .     S
H906   O917    0.991   .     S
H907   O918    0.991   .     S
H908   O919    0.991   .     S
C931   O987    1.304   .     A
C931   C949    1.475   .     S
C931   O977    1.303   .     A
C932   C948    1.412   .     A
C932   O982    1.381   .     S
C932   C996    1.404   .     S
C933   O983    1.381   .     S
C933   C948    1.412   .     A
C933   C1018   1.404   .     S
C934   O984    1.381   .     S
C934   C949    1.412   .     A
C934   C1056   1.404   1_455 S
C935   C939    1.396   .     A
C935   H959    1.083   .     S
C935   C946    1.402   .     A
C936   C940    1.383   .     A
C936   H963    1.081   .     S
C936   C947    1.400   .     A
C937   C941    1.396   .     A
C937   H964    1.083   .     S
C937   C947    1.402   .     A
C938   C943    1.383   .     A
C938   C946    1.400   .     A
C938   H965    1.081   .     S
C939   C944    1.423   .     A
C939   O992    1.378   .     S
C940   C945    1.418   .     A
C940   O978    1.374   .     S
C941   O979    1.378   .     S
C941   C945    1.423   .     A
C942   O986    1.303   .     A
C942   O985    1.304   .     A
C942   C948    1.475   .     S
C943   C944    1.418   .     A
C943   O980    1.374   .     S
C944   C950    1.483   .     S
C945   C951    1.483   .     S
C947   C388    1.480   1_556 S
C949   C956    1.412   .     A
C950   O991    1.305   .     A
C950   O988    1.308   .     A
C951   O989    1.305   .     A
C951   O990    1.308   .     A
C952   N976    1.379   .     A
C952   I971    2.149   .     S
C953   N975    1.379   .     A
C953   I972    2.151   .     S
C953   C582    1.426   1_565 S
C954   N976    1.379   .     A
C954   I973    2.149   .     S
C955   I974    2.151   .     S
C955   N975    1.379   .     A
C955   C580    1.426   1_565 S
C956   O981    1.381   .     S
C956   C1057   1.404   1_455 S
Cu957  O977    1.991   .     S
Cu957  O990    1.968   .     S
Cu957  N975    2.030   .     S
Cu957  O988    1.968   .     S
Cu957  Cu958   2.702   .     S
Cu957  O986    1.991   .     S
Cu958  O991    1.968   .     S
Cu958  O987    1.991   .     S
Cu958  N976    2.030   .     S
Cu958  O985    1.991   .     S
Cu958  O989    1.968   .     S
H960   O982    0.991   .     S
H961   O983    0.991   .     S
H962   O984    0.991   .     S
H966   O992    0.991   .     S
H967   O978    0.991   .     S
H968   O979    0.991   .     S
H969   O980    0.991   .     S
H970   O981    0.991   .     S
C993   O1049   1.304   .     A
C993   C1011   1.475   .     S
C993   O1039   1.303   .     A
C994   C1010   1.412   .     A
C994   O1044   1.381   .     S
C994   C1058   1.404   .     S
C995   O1045   1.381   .     S
C995   C1010   1.412   .     A
C995   C1080   1.404   .     S
C996   O1046   1.381   .     S
C996   C1011   1.412   .     A
C997   C1001   1.396   .     A
C997   H1021   1.083   .     S
C997   C1008   1.402   .     A
C998   C1002   1.383   .     A
C998   H1025   1.081   .     S
C998   C1009   1.400   .     A
C999   C1003   1.396   .     A
C999   H1026   1.083   .     S
C999   C1009   1.402   .     A
C1000  C1005   1.383   .     A
C1000  C1008   1.400   .     A
C1000  H1027   1.081   .     S
C1001  C1006   1.423   .     A
C1001  O1054   1.378   .     S
C1002  C1007   1.418   .     A
C1002  O1040   1.374   .     S
C1003  O1041   1.378   .     S
C1003  C1007   1.423   .     A
C1004  O1048   1.303   .     A
C1004  O1047   1.304   .     A
C1004  C1010   1.475   .     S
C1005  C1006   1.418   .     A
C1005  O1042   1.374   .     S
C1006  C1012   1.483   .     S
C1007  C1013   1.483   .     S
C1009  C450    1.480   1_556 S
C1011  C1018   1.412   .     A
C1012  O1053   1.305   .     A
C1012  O1050   1.308   .     A
C1013  O1051   1.305   .     A
C1013  O1052   1.308   .     A
C1014  N1038   1.379   .     A
C1014  I1033   2.149   .     S
C1015  N1037   1.379   .     A
C1015  I1034   2.151   .     S
C1015  C644    1.426   1_565 S
C1016  N1038   1.379   .     A
C1016  I1035   2.149   .     S
C1017  I1036   2.151   .     S
C1017  N1037   1.379   .     A
C1017  C642    1.426   1_565 S
C1018  O1043   1.381   .     S
Cu1019 O1039   1.991   .     S
Cu1019 O1052   1.968   .     S
Cu1019 N1037   2.030   .     S
Cu1019 O1050   1.968   .     S
Cu1019 Cu1020  2.702   .     S
Cu1019 O1048   1.991   .     S
Cu1020 O1053   1.968   .     S
Cu1020 O1049   1.991   .     S
Cu1020 N1038   2.030   .     S
Cu1020 O1047   1.991   .     S
Cu1020 O1051   1.968   .     S
H1022  O1044   0.991   .     S
H1023  O1045   0.991   .     S
H1024  O1046   0.991   .     S
H1028  O1054   0.991   .     S
H1029  O1040   0.991   .     S
H1030  O1041   0.991   .     S
H1031  O1042   0.991   .     S
H1032  O1043   0.991   .     S
C1055  O1111   1.304   .     A
C1055  C1073   1.475   .     S
C1055  O1101   1.303   .     A
C1056  C1072   1.412   .     A
C1056  O1106   1.381   .     S
C1056  C934    1.404   1_655 S
C1057  O1107   1.381   .     S
C1057  C1072   1.412   .     A
C1057  C956    1.404   1_655 S
C1058  O1108   1.381   .     S
C1058  C1073   1.412   .     A
C1059  C1063   1.396   .     A
C1059  H1083   1.083   .     S
C1059  C1070   1.402   .     A
C1060  C1064   1.383   .     A
C1060  H1087   1.081   .     S
C1060  C1071   1.400   .     A
C1061  C1065   1.396   .     A
C1061  H1088   1.083   .     S
C1061  C1071   1.402   .     A
C1062  C1067   1.383   .     A
C1062  C1070   1.400   .     A
C1062  H1089   1.081   .     S
C1063  C1068   1.423   .     A
C1063  O1116   1.378   .     S
C1064  C1069   1.418   .     A
C1064  O1102   1.374   .     S
C1065  O1103   1.378   .     S
C1065  C1069   1.423   .     A
C1066  O1110   1.303   .     A
C1066  O1109   1.304   .     A
C1066  C1072   1.475   .     S
C1067  C1068   1.418   .     A
C1067  O1104   1.374   .     S
C1068  C1074   1.483   .     S
C1069  C1075   1.483   .     S
C1071  C512    1.480   1_556 S
C1073  C1080   1.412   .     A
C1074  O1115   1.305   .     A
C1074  O1112   1.308   .     A
C1075  O1113   1.305   .     A
C1075  O1114   1.308   .     A
C1076  N1100   1.379   .     A
C1076  I1095   2.149   .     S
C1077  N1099   1.379   .     A
C1077  I1096   2.151   .     S
C1077  C706    1.426   1_565 S
C1078  N1100   1.379   .     A
C1078  I1097   2.149   .     S
C1079  I1098   2.151   .     S
C1079  N1099   1.379   .     A
C1079  C704    1.426   1_565 S
C1080  O1105   1.381   .     S
Cu1081 O1101   1.991   .     S
Cu1081 O1114   1.968   .     S
Cu1081 N1099   2.030   .     S
Cu1081 O1112   1.968   .     S
Cu1081 Cu1082  2.702   .     S
Cu1081 O1110   1.991   .     S
Cu1082 O1115   1.968   .     S
Cu1082 O1111   1.991   .     S
Cu1082 N1100   2.030   .     S
Cu1082 O1109   1.991   .     S
Cu1082 O1113   1.968   .     S
H1084  O1106   0.991   .     S
H1085  O1107   0.991   .     S
H1086  O1108   0.991   .     S
H1090  O1116   0.991   .     S
H1091  O1102   0.991   .     S
H1092  O1103   0.991   .     S
H1093  O1104   0.991   .     S
H1094  O1105   0.991   .     S
