data_str_m1_o5_o17_pcu_sym.76
_audit_creation_date              2020-01-03
_audit_creation_method            'Materials Studio'
_symmetry_space_group_name_H-M    'P1'
_symmetry_Int_Tables_number       1
_symmetry_cell_setting            triclinic
loop_
_symmetry_equiv_pos_as_xyz
  x,y,z
_cell_length_a                    31.7343
_cell_length_b                    31.7518
_cell_length_c                    34.4598
_cell_angle_alpha                 90.0561
_cell_angle_beta                  90.0844
_cell_angle_gamma                 90.0648
loop_
_atom_site_label
_atom_site_type_symbol
_atom_site_fract_x
_atom_site_fract_y
_atom_site_fract_z
_atom_site_U_iso_or_equiv
_atom_site_adp_type
_atom_site_occupancy
C1     C     0.25000   0.00002   0.35594   0.00000  Uiso   1.00
C2     C     0.33004   0.41997   0.75000   0.00000  Uiso   1.00
C3     C     0.42513   0.23356   0.01856   0.00000  Uiso   1.00
C4     C     0.32086   0.03050   0.97981   0.00000  Uiso   1.00
C5     C     0.17884   0.47059   0.01990   0.00000  Uiso   1.00
C6     C     0.43005   0.21924   0.98056   0.00000  Uiso   1.00
C7     C     0.07014   0.28105   0.01996   0.00000  Uiso   1.00
C8     C     0.03892   0.32040   0.39804   0.00000  Uiso   1.00
C9     C     0.08575   0.30836   0.39786   0.00000  Uiso   1.00
C10    C     0.11195   0.34045   0.37540   0.00000  Uiso   1.00
C11    C     0.01133   0.17068   0.60251   0.00000  Uiso   1.00
C12    C     0.05946   0.16775   0.60633   0.00000  Uiso   1.00
C13    C     0.41998   0.16999   0.24998   0.00000  Uiso   1.00
C14    C     0.07255   0.12878   0.62926   0.00000  Uiso   1.00
C15    C     0.17949   0.03858   0.39786   0.00000  Uiso   1.00
C16    C     0.19144   0.08544   0.39772   0.00000  Uiso   1.00
C17    C     0.15928   0.11151   0.37520   0.00000  Uiso   1.00
C18    C     0.32934   0.01171   0.60267   0.00000  Uiso   1.00
C19    C     0.33217   0.05983   0.60647   0.00000  Uiso   1.00
C20    C     0.37112   0.07310   0.62950   0.00000  Uiso   1.00
C21    C     0.46134   0.17948   0.39776   0.00000  Uiso   1.00
C22    C     0.41446   0.19133   0.39765   0.00000  Uiso   1.00
C23    C     0.38830   0.15916   0.37510   0.00000  Uiso   1.00
C24    C     0.08002   0.33002   0.75002   0.00000  Uiso   1.00
C25    C     0.48843   0.32931   0.60261   0.00000  Uiso   1.00
C26    C     0.44031   0.33215   0.60644   0.00000  Uiso   1.00
C27    C     0.42721   0.37110   0.62942   0.00000  Uiso   1.00
C28    C     0.32058   0.46155   0.39794   0.00000  Uiso   1.00
C29    C     0.30874   0.41467   0.39780   0.00000  Uiso   1.00
C30    C     0.34092   0.38862   0.37532   0.00000  Uiso   1.00
C31    C     0.17067   0.48810   0.60242   0.00000  Uiso   1.00
C32    C     0.16792   0.43999   0.60620   0.00000  Uiso   1.00
C33    C     0.12896   0.42670   0.62908   0.00000  Uiso   1.00
C34    C     0.29908   0.06464   0.89948   0.00000  Uiso   1.00
C35    C     0.33003   0.41999   0.25002   0.00000  Uiso   1.00
C36    C     0.26639   0.09626   0.88415   0.00000  Uiso   1.00
C37    C     0.28784   0.13450   0.86594   0.00000  Uiso   1.00
C38    C     0.19960   0.43649   0.10030   0.00000  Uiso   1.00
C39    C     0.23152   0.40423   0.11589   0.00000  Uiso   1.00
C40    C     0.20912   0.36648   0.13402   0.00000  Uiso   1.00
C41    C     0.42144   0.23929   0.89595   0.00000  Uiso   1.00
C42    C     0.40715   0.28488   0.88886   0.00000  Uiso   1.00
C43    C     0.36743   0.28639   0.86386   0.00000  Uiso   1.00
C44    C     0.07905   0.25674   0.10384   0.00000  Uiso   1.00
C45    C     0.09092   0.21038   0.11043   0.00000  Uiso   1.00
C46    C     0.16997   0.08001   0.74998   0.00000  Uiso   1.00
C47    C     0.13041   0.20647   0.13551   0.00000  Uiso   1.00
C48    C     0.20511   0.43299   0.89929   0.00000  Uiso   1.00
C49    C     0.23994   0.40360   0.88412   0.00000  Uiso   1.00
C50    C     0.22149   0.36285   0.86776   0.00000  Uiso   1.00
C51    C     0.29499   0.06711   0.10080   0.00000  Uiso   1.00
C52    C     0.26010   0.09642   0.11602   0.00000  Uiso   1.00
C53    C     0.27842   0.13729   0.13224   0.00000  Uiso   1.00
C54    C     0.07151   0.28774   0.89681   0.00000  Uiso   1.00
C55    C     0.06256   0.33514   0.89985   0.00000  Uiso   1.00
C56    C     0.09587   0.36101   0.87860   0.00000  Uiso   1.00
C57    C     0.08004   0.33000   0.25001   0.00000  Uiso   1.00
C58    C     0.42765   0.21419   0.10323   0.00000  Uiso   1.00
C59    C     0.43654   0.16668   0.10207   0.00000  Uiso   1.00
C60    C     0.40316   0.14193   0.12434   0.00000  Uiso   1.00
C61    C     0.01305   0.13487   0.46674   0.00000  Uiso   1.00
C62    C     0.05398   0.35271   0.53454   0.00000  Uiso   1.00
C63    C     0.36518   0.01345   0.46694   0.00000  Uiso   1.00
C64    C     0.14713   0.05353   0.53428   0.00000  Uiso   1.00
C65    C     0.48698   0.36508   0.46679   0.00000  Uiso   1.00
C66    C     0.44581   0.14734   0.53414   0.00000  Uiso   1.00
C67    C     0.13488   0.48650   0.46653   0.00000  Uiso   1.00
C68    C     0.41996   0.16999   0.74999   0.00000  Uiso   1.00
C69    C     0.35283   0.44629   0.53442   0.00000  Uiso   1.00
C70    C     0.13995   0.46374   0.95635   0.00000  Uiso   1.00
C71    C     0.36009   0.03726   0.04303   0.00000  Uiso   1.00
C72    C     0.11588   0.24815   0.97056   0.00000  Uiso   1.00
C73    C     0.38454   0.25487   0.02807   0.00000  Uiso   1.00
C74    C     0.36173   0.03110   0.95842   0.00000  Uiso   1.00
C75    C     0.13777   0.47087   0.04088   0.00000  Uiso   1.00
C76    C     0.40783   0.17953   0.96943   0.00000  Uiso   1.00
C77    C     0.09320   0.31956   0.03330   0.00000  Uiso   1.00
C78    C     0.17000   0.41997   0.75001   0.00000  Uiso   1.00
C79    C     0.32999   0.08005   0.24997   0.00000  Uiso   1.00
C80    C     0.41996   0.33002   0.75000   0.00000  Uiso   1.00
C81    C     0.25000   0.49998   0.64416   0.00000  Uiso   1.00
C82    C     0.08006   0.16999   0.24998   0.00000  Uiso   1.00
C83    C     0.33003   0.08001   0.75001   0.00000  Uiso   1.00
C84    C     0.16999   0.41997   0.24996   0.00000  Uiso   1.00
C85    C     0.07999   0.16995   0.74996   0.00000  Uiso   1.00
C86    C     0.41999   0.33003   0.25002   0.00000  Uiso   1.00
C87    C     0.13835   0.38832   0.24995   0.00000  Uiso   1.00
C88    C     0.36167   0.11165   0.75001   0.00000  Uiso   1.00
C89    C     0.11171   0.13837   0.24998   0.00000  Uiso   1.00
C90    C     0.38833   0.36166   0.74999   0.00000  Uiso   1.00
C91    C     0.36162   0.11171   0.24995   0.00000  Uiso   1.00
C92    C     0.00003   0.25000   0.35594   0.00000  Uiso   1.00
C93    C     0.13836   0.38832   0.75002   0.00000  Uiso   1.00
C94    C     0.38834   0.36168   0.25005   0.00000  Uiso   1.00
C95    C     0.11163   0.13830   0.74993   0.00000  Uiso   1.00
C96    C     0.13830   0.11163   0.74994   0.00000  Uiso   1.00
C97    C     0.36168   0.38835   0.25004   0.00000  Uiso   1.00
C98    C     0.11167   0.36166   0.75004   0.00000  Uiso   1.00
C99    C     0.38831   0.13836   0.24994   0.00000  Uiso   1.00
C100   C     0.36168   0.38833   0.75000   0.00000  Uiso   1.00
C101   C     0.13835   0.11169   0.24998   0.00000  Uiso   1.00
C102   C     0.38832   0.13835   0.74998   0.00000  Uiso   1.00
C103   C     0.49997   0.25001   0.64415   0.00000  Uiso   1.00
C104   C     0.11170   0.36163   0.25000   0.00000  Uiso   1.00
C105   C     0.01295   0.28655   0.41873   0.00000  Uiso   1.00
C106   C     0.49877   0.21131   0.58166   0.00000  Uiso   1.00
C107   C     0.21340   0.01276   0.41864   0.00000  Uiso   1.00
C108   C     0.28872   0.49898   0.58174   0.00000  Uiso   1.00
C109   C     0.48723   0.21336   0.41862   0.00000  Uiso   1.00
C110   C     0.00101   0.28869   0.58172   0.00000  Uiso   1.00
C111   C     0.28667   0.48734   0.41871   0.00000  Uiso   1.00
C112   C     0.21129   0.00087   0.58163   0.00000  Uiso   1.00
C113   C     0.27835   0.02665   0.91911   0.00000  Uiso   1.00
C114   C     0.00032   0.25006   0.85585   0.00000  Uiso   1.00
C115   C     0.22120   0.47403   0.08073   0.00000  Uiso   1.00
C116   C     0.46346   0.23831   0.91805   0.00000  Uiso   1.00
C117   C     0.03698   0.26026   0.08205   0.00000  Uiso   1.00
C118   C     0.22331   0.47235   0.91886   0.00000  Uiso   1.00
C119   C     0.27681   0.02781   0.08111   0.00000  Uiso   1.00
C120   C     0.03752   0.26256   0.91840   0.00000  Uiso   1.00
C121   C     0.46228   0.23841   0.08166   0.00000  Uiso   1.00
C122   C     0.00009   0.24996   0.39842   0.00000  Uiso   1.00
C123   C     0.49990   0.25000   0.60184   0.00000  Uiso   1.00
C124   C     0.25003   0.00006   0.39841   0.00000  Uiso   1.00
C125   C     0.49972   0.24991   0.14417   0.00000  Uiso   1.00
C126   C     0.25001   0.49994   0.60184   0.00000  Uiso   1.00
C127   C     0.25044   0.49988   0.89847   0.00000  Uiso   1.00
C128   C     0.24951   0.00034   0.10144   0.00000  Uiso   1.00
C129   C     0.00062   0.25008   0.89824   0.00000  Uiso   1.00
C130   C     0.49948   0.24977   0.10183   0.00000  Uiso   1.00
C131   C     0.49351   0.21180   0.45928   0.00000  Uiso   1.00
C132   C     0.00785   0.28788   0.54118   0.00000  Uiso   1.00
C133   C     0.28823   0.49365   0.45936   0.00000  Uiso   1.00
C134   C     0.21209   0.00770   0.54109   0.00000  Uiso   1.00
C135   C     0.00655   0.28814   0.45936   0.00000  Uiso   1.00
C136   C     0.25009   0.00010   0.85598   0.00000  Uiso   1.00
C137   C     0.49199   0.21212   0.54109   0.00000  Uiso   1.00
C138   C     0.21183   0.00637   0.45927   0.00000  Uiso   1.00
C139   C     0.28793   0.49217   0.54118   0.00000  Uiso   1.00
C140   C     0.21743   0.47962   0.95901   0.00000  Uiso   1.00
C141   C     0.28256   0.02081   0.04088   0.00000  Uiso   1.00
C142   C     0.03816   0.25944   0.95944   0.00000  Uiso   1.00
C143   C     0.46188   0.24144   0.04064   0.00000  Uiso   1.00
C144   C     0.28352   0.01959   0.95940   0.00000  Uiso   1.00
C145   C     0.21624   0.48116   0.04042   0.00000  Uiso   1.00
C146   C     0.46461   0.23476   0.95897   0.00000  Uiso   1.00
C147   C     0.24991   0.49993   0.14399   0.00000  Uiso   1.00
C148   C     0.03573   0.26492   0.04125   0.00000  Uiso   1.00
C149   C     0.00000   0.24998   0.47971   0.00000  Uiso   1.00
C150   C     0.49995   0.24999   0.52071   0.00000  Uiso   1.00
C151   C     0.25002   0.49999   0.47971   0.00000  Uiso   1.00
C152   C     0.25001   0.49995   0.52070   0.00000  Uiso   1.00
C153   C     0.25018   0.00000   0.97961   0.00000  Uiso   1.00
C154   C     0.24974   0.00055   0.02027   0.00000  Uiso   1.00
C155   C     0.00057   0.24919   0.97950   0.00000  Uiso   1.00
C156   C     0.49963   0.25117   0.02061   0.00000  Uiso   1.00
C157   C     0.49108   0.17374   0.48057   0.00000  Uiso   1.00
C158   C     0.16997   0.08003   0.24999   0.00000  Uiso   1.00
C159   C     0.01986   0.32412   0.52004   0.00000  Uiso   1.00
C160   C     0.32631   0.49137   0.48073   0.00000  Uiso   1.00
C161   C     0.17581   0.01954   0.51986   0.00000  Uiso   1.00
C162   C     0.00891   0.32622   0.48070   0.00000  Uiso   1.00
C163   C     0.48001   0.17588   0.51985   0.00000  Uiso   1.00
C164   C     0.17373   0.00857   0.48053   0.00000  Uiso   1.00
C165   C     0.32421   0.48034   0.52002   0.00000  Uiso   1.00
C166   C     0.17974   0.46872   0.97882   0.00000  Uiso   1.00
C167   C     0.32012   0.03202   0.02093   0.00000  Uiso   1.00
C168   C     0.07491   0.26790   0.98143   0.00000  Uiso   1.00
H169   H     0.10113   0.34216   0.34477   0.00000  Uiso   1.00
H170   H     0.10745   0.12747   0.63133   0.00000  Uiso   1.00
H171   H     0.09690   0.35215   0.84742   0.00000  Uiso   1.00
H172   H     0.08814   0.39502   0.88088   0.00000  Uiso   1.00
H173   H     0.03113   0.34226   0.88724   0.00000  Uiso   1.00
H174   H     0.06230   0.34479   0.93088   0.00000  Uiso   1.00
H175   H     0.10359   0.28187   0.90765   0.00000  Uiso   1.00
H176   H     0.07355   0.27846   0.86584   0.00000  Uiso   1.00
H177   H     0.40154   0.15283   0.15494   0.00000  Uiso   1.00
H178   H     0.37189   0.14597   0.11039   0.00000  Uiso   1.00
H179   H     0.41124   0.10793   0.12416   0.00000  Uiso   1.00
H180   H     0.43680   0.15566   0.07143   0.00000  Uiso   1.00
H181   H     0.07369   0.16608   0.57689   0.00000  Uiso   1.00
H182   H     0.46794   0.15996   0.11492   0.00000  Uiso   1.00
H183   H     0.42488   0.22494   0.13377   0.00000  Uiso   1.00
H184   H     0.39592   0.21941   0.09123   0.00000  Uiso   1.00
H185   H     0.02782   0.07388   0.47623   0.00000  Uiso   1.00
H186   H     0.09175   0.40275   0.52444   0.00000  Uiso   1.00
H187   H     0.42622   0.02837   0.47648   0.00000  Uiso   1.00
H188   H     0.09702   0.09109   0.52403   0.00000  Uiso   1.00
H189   H     0.47205   0.42604   0.47632   0.00000  Uiso   1.00
H190   H     0.40796   0.09739   0.52376   0.00000  Uiso   1.00
H191   H     0.07390   0.47137   0.47592   0.00000  Uiso   1.00
H192   H     0.07232   0.19604   0.62109   0.00000  Uiso   1.00
H193   H     0.40288   0.40866   0.52419   0.00000  Uiso   1.00
H194   H     0.10170   0.48709   0.91485   0.00000  Uiso   1.00
H195   H     0.40989   0.07411   0.05625   0.00000  Uiso   1.00
H196   H     0.14604   0.20406   0.93876   0.00000  Uiso   1.00
H197   H     0.32276   0.26245   0.01590   0.00000  Uiso   1.00
H198   H     0.39780   0.00439   0.91699   0.00000  Uiso   1.00
H199   H     0.08217   0.44242   0.05160   0.00000  Uiso   1.00
H200   H     0.36084   0.13829   0.98050   0.00000  Uiso   1.00
H201   H     0.09832   0.36602   0.07312   0.00000  Uiso   1.00
H202   H     0.49613   0.16903   0.63150   0.00000  Uiso   1.00
H203   H     0.00118   0.14207   0.58680   0.00000  Uiso   1.00
H204   H     0.15757   0.10071   0.34457   0.00000  Uiso   1.00
H205   H     0.12762   0.10867   0.38868   0.00000  Uiso   1.00
H206   H     0.16881   0.14516   0.37556   0.00000  Uiso   1.00
H207   H     0.19283   0.09718   0.42812   0.00000  Uiso   1.00
H208   H     0.22300   0.09007   0.38453   0.00000  Uiso   1.00
H209   H     0.10924   0.37210   0.38895   0.00000  Uiso   1.00
H210   H     0.17454   0.02699   0.36778   0.00000  Uiso   1.00
H211   H     0.14829   0.03628   0.41175   0.00000  Uiso   1.00
H212   H     0.36985   0.05991   0.65933   0.00000  Uiso   1.00
H213   H     0.40019   0.06194   0.61482   0.00000  Uiso   1.00
H214   H     0.37235   0.10798   0.63156   0.00000  Uiso   1.00
H215   H     0.33383   0.07406   0.57704   0.00000  Uiso   1.00
H216   H     0.30383   0.07257   0.62115   0.00000  Uiso   1.00
H217   H     0.33103   0.49654   0.63167   0.00000  Uiso   1.00
H218   H     0.35800   0.00170   0.58703   0.00000  Uiso   1.00
H219   H     0.39901   0.15753   0.34447   0.00000  Uiso   1.00
H220   H     0.14558   0.33086   0.37573   0.00000  Uiso   1.00
H221   H     0.39117   0.12752   0.38856   0.00000  Uiso   1.00
H222   H     0.35463   0.16863   0.37547   0.00000  Uiso   1.00
H223   H     0.40280   0.19265   0.42804   0.00000  Uiso   1.00
H224   H     0.40981   0.22288   0.38448   0.00000  Uiso   1.00
H225   H     0.47284   0.17464   0.36767   0.00000  Uiso   1.00
H226   H     0.46370   0.14825   0.41157   0.00000  Uiso   1.00
H227   H     0.44049   0.36984   0.65925   0.00000  Uiso   1.00
H228   H     0.43840   0.40014   0.61471   0.00000  Uiso   1.00
H229   H     0.39231   0.37234   0.63150   0.00000  Uiso   1.00
H230   H     0.42598   0.33379   0.57700   0.00000  Uiso   1.00
H231   H     0.09751   0.30695   0.42825   0.00000  Uiso   1.00
H232   H     0.42754   0.30384   0.62115   0.00000  Uiso   1.00
H233   H     0.00372   0.33103   0.63159   0.00000  Uiso   1.00
H234   H     0.49845   0.35793   0.58692   0.00000  Uiso   1.00
H235   H     0.34254   0.39934   0.34469   0.00000  Uiso   1.00
H236   H     0.37259   0.39157   0.38884   0.00000  Uiso   1.00
H237   H     0.33146   0.35494   0.37568   0.00000  Uiso   1.00
H238   H     0.30743   0.40300   0.42820   0.00000  Uiso   1.00
H239   H     0.27717   0.40995   0.38457   0.00000  Uiso   1.00
H240   H     0.32543   0.47308   0.36786   0.00000  Uiso   1.00
H241   H     0.35182   0.46398   0.41183   0.00000  Uiso   1.00
H242   H     0.09024   0.27681   0.38460   0.00000  Uiso   1.00
H243   H     0.13019   0.43994   0.65892   0.00000  Uiso   1.00
H244   H     0.09989   0.43779   0.61430   0.00000  Uiso   1.00
H245   H     0.12779   0.39182   0.63112   0.00000  Uiso   1.00
H246   H     0.16631   0.42571   0.57674   0.00000  Uiso   1.00
H247   H     0.19626   0.42731   0.62096   0.00000  Uiso   1.00
H248   H     0.16894   0.00332   0.63143   0.00000  Uiso   1.00
H249   H     0.14202   0.49804   0.58669   0.00000  Uiso   1.00
H250   H     0.30771   0.15103   0.88773   0.00000  Uiso   1.00
H251   H     0.30781   0.12457   0.84110   0.00000  Uiso   1.00
H252   H     0.26356   0.15677   0.85515   0.00000  Uiso   1.00
H253   H     0.02731   0.32539   0.36798   0.00000  Uiso   1.00
H254   H     0.24578   0.08168   0.86188   0.00000  Uiso   1.00
H255   H     0.24615   0.10704   0.90853   0.00000  Uiso   1.00
H256   H     0.31864   0.08269   0.92031   0.00000  Uiso   1.00
H257   H     0.32038   0.05420   0.87587   0.00000  Uiso   1.00
H258   H     0.18918   0.37687   0.15871   0.00000  Uiso   1.00
H259   H     0.18905   0.35034   0.11213   0.00000  Uiso   1.00
H260   H     0.23284   0.34372   0.14499   0.00000  Uiso   1.00
H261   H     0.25171   0.39299   0.09166   0.00000  Uiso   1.00
H262   H     0.25226   0.41840   0.13827   0.00000  Uiso   1.00
H263   H     0.17829   0.44739   0.12372   0.00000  Uiso   1.00
H264   H     0.03676   0.35157   0.41202   0.00000  Uiso   1.00
H265   H     0.17985   0.41877   0.07938   0.00000  Uiso   1.00
H266   H     0.37359   0.27212   0.83497   0.00000  Uiso   1.00
H267   H     0.34130   0.26913   0.87824   0.00000  Uiso   1.00
H268   H     0.35768   0.31965   0.85962   0.00000  Uiso   1.00
H269   H     0.40055   0.30025   0.91721   0.00000  Uiso   1.00
H270   H     0.43218   0.30329   0.87416   0.00000  Uiso   1.00
H271   H     0.42423   0.22199   0.86805   0.00000  Uiso   1.00
H272   H     0.39539   0.22379   0.91151   0.00000  Uiso   1.00
H273   H     0.15744   0.22260   0.12144   0.00000  Uiso   1.00
H274   H     0.12487   0.22059   0.16457   0.00000  Uiso   1.00
H275   H     0.05936   0.13007   0.65908   0.00000  Uiso   1.00
H276   H     0.13844   0.17269   0.13935   0.00000  Uiso   1.00
H277   H     0.06495   0.19302   0.12480   0.00000  Uiso   1.00
H278   H     0.09682   0.19508   0.08191   0.00000  Uiso   1.00
H279   H     0.10578   0.27084   0.08808   0.00000  Uiso   1.00
H280   H     0.07737   0.27391   0.13190   0.00000  Uiso   1.00
H281   H     0.20521   0.34489   0.89097   0.00000  Uiso   1.00
H282   H     0.19882   0.36989   0.84403   0.00000  Uiso   1.00
H283   H     0.24723   0.34300   0.85591   0.00000  Uiso   1.00
H284   H     0.25838   0.41893   0.86078   0.00000  Uiso   1.00
H285   H     0.26190   0.39569   0.90821   0.00000  Uiso   1.00
H286   H     0.06125   0.09976   0.61449   0.00000  Uiso   1.00
H287   H     0.18691   0.41384   0.92024   0.00000  Uiso   1.00
H288   H     0.18324   0.44189   0.87553   0.00000  Uiso   1.00
H289   H     0.30127   0.13042   0.15585   0.00000  Uiso   1.00
H290   H     0.29442   0.15531   0.10890   0.00000  Uiso   1.00
H291   H     0.25263   0.15700   0.14420   0.00000  Uiso   1.00
H292   H     0.23802   0.10419   0.09198   0.00000  Uiso   1.00
H293   H     0.24180   0.08109   0.13945   0.00000  Uiso   1.00
H294   H     0.31684   0.05815   0.12456   0.00000  Uiso   1.00
H295   H     0.31319   0.08634   0.07993   0.00000  Uiso   1.00
H296   H     0.12733   0.35578   0.89185   0.00000  Uiso   1.00
O297   O     0.25000  -0.00000   0.25000   0.00000  Uiso   1.00
O298   O     0.25000   0.46538   0.66251   0.00000  Uiso   1.00
O299   O     0.46538   0.25000   0.33749   0.00000  Uiso   1.00
O300   O     0.03461   0.25000   0.66251   0.00000  Uiso   1.00
O301   O     0.00000   0.21538   0.83749   0.00000  Uiso   1.00
O302   O     0.00000   0.28461   0.16251   0.00000  Uiso   1.00
O303   O     0.28461  -0.00000   0.83749   0.00000  Uiso   1.00
O304   O     0.21538  -0.00000   0.16251   0.00000  Uiso   1.00
O305   O     0.00000   0.28461   0.83749   0.00000  Uiso   1.00
O306   O     0.00000   0.21538   0.16251   0.00000  Uiso   1.00
O307   O     0.21538  -0.00000   0.83749   0.00000  Uiso   1.00
O308   O     0.25000  -0.00000   0.75000   0.00000  Uiso   1.00
O309   O     0.28461  -0.00000   0.16251   0.00000  Uiso   1.00
O310   O     0.20126   0.08332   0.27298   0.00000  Uiso   1.00
O311   O     0.29873   0.41668   0.72702   0.00000  Uiso   1.00
O312   O     0.41668   0.20126   0.27298   0.00000  Uiso   1.00
O313   O     0.08332   0.29873   0.72702   0.00000  Uiso   1.00
O314   O     0.29873   0.41668   0.27298   0.00000  Uiso   1.00
O315   O     0.20126   0.08332   0.72702   0.00000  Uiso   1.00
O316   O     0.08332   0.29873   0.27298   0.00000  Uiso   1.00
O317   O     0.41668   0.20126   0.72702   0.00000  Uiso   1.00
O318   O     0.20126   0.41668   0.72702   0.00000  Uiso   1.00
O319   O     0.00000   0.25000   0.25000   0.00000  Uiso   1.00
O320   O     0.29873   0.08332   0.27298   0.00000  Uiso   1.00
O321   O     0.41668   0.29873   0.72702   0.00000  Uiso   1.00
O322   O     0.08332   0.20126   0.27298   0.00000  Uiso   1.00
O323   O     0.29873   0.08332   0.72702   0.00000  Uiso   1.00
O324   O     0.20126   0.41668   0.27298   0.00000  Uiso   1.00
O325   O     0.08332   0.20126   0.72702   0.00000  Uiso   1.00
O326   O     0.41668   0.29873   0.27298   0.00000  Uiso   1.00
O327   O     0.45126   0.33332   0.77298   0.00000  Uiso   1.00
O328   O     0.04873   0.16668   0.22702   0.00000  Uiso   1.00
O329   O     0.16668   0.45126   0.77298   0.00000  Uiso   1.00
O330   O     0.00000   0.25000   0.75000   0.00000  Uiso   1.00
O331   O     0.33332   0.04873   0.22702   0.00000  Uiso   1.00
O332   O     0.04873   0.16668   0.77298   0.00000  Uiso   1.00
O333   O     0.45126   0.33332   0.22702   0.00000  Uiso   1.00
O334   O     0.33332   0.04873   0.77298   0.00000  Uiso   1.00
O335   O     0.16668   0.45126   0.22702   0.00000  Uiso   1.00
O336   O     0.45126   0.16668   0.22702   0.00000  Uiso   1.00
O337   O     0.04873   0.33332   0.77298   0.00000  Uiso   1.00
O338   O     0.16668   0.04873   0.22702   0.00000  Uiso   1.00
O339   O     0.33332   0.45126   0.77298   0.00000  Uiso   1.00
O340   O     0.04873   0.33332   0.22702   0.00000  Uiso   1.00
O341   O     0.25000   0.46538   0.33749   0.00000  Uiso   1.00
O342   O     0.45126   0.16668   0.77298   0.00000  Uiso   1.00
O343   O     0.33332   0.45126   0.22702   0.00000  Uiso   1.00
O344   O     0.16668   0.04873   0.77298   0.00000  Uiso   1.00
O345   O     0.03529   0.13609   0.43777   0.00000  Uiso   1.00
O346   O     0.01101   0.09763   0.48832   0.00000  Uiso   1.00
O347   O     0.07210   0.34507   0.56511   0.00000  Uiso   1.00
O348   O     0.06785   0.38648   0.51183   0.00000  Uiso   1.00
O349   O     0.36392   0.03564   0.43794   0.00000  Uiso   1.00
O350   O     0.40246   0.01153   0.48857   0.00000  Uiso   1.00
O351   O     0.15474   0.07167   0.56485   0.00000  Uiso   1.00
O352   O     0.25000   0.03461   0.66251   0.00000  Uiso   1.00
O353   O     0.11334   0.06726   0.51147   0.00000  Uiso   1.00
O354   O     0.46495   0.36386   0.43762   0.00000  Uiso   1.00
O355   O     0.48882   0.40229   0.48849   0.00000  Uiso   1.00
O356   O     0.42764   0.15500   0.56464   0.00000  Uiso   1.00
O357   O     0.43192   0.11361   0.51130   0.00000  Uiso   1.00
O358   O     0.13614   0.46447   0.43739   0.00000  Uiso   1.00
O359   O     0.09763   0.48822   0.48813   0.00000  Uiso   1.00
O360   O     0.34521   0.42813   0.56493   0.00000  Uiso   1.00
O361   O     0.38659   0.43252   0.51166   0.00000  Uiso   1.00
O362   O     0.11811   0.43232   0.96041   0.00000  Uiso   1.00
O363   O     0.03461   0.25000   0.33749   0.00000  Uiso   1.00
O364   O     0.12877   0.49431   0.92905   0.00000  Uiso   1.00
O365   O     0.37167   0.00948   0.06516   0.00000  Uiso   1.00
O366   O     0.38345   0.07443   0.03971   0.00000  Uiso   1.00
O367   O     0.14862   0.25881   0.98657   0.00000  Uiso   1.00
O368   O     0.11661   0.21538   0.94337   0.00000  Uiso   1.00
O369   O     0.38360   0.28276   0.05260   0.00000  Uiso   1.00
O370   O     0.34793   0.24523   0.00722   0.00000  Uiso   1.00
O371   O     0.38795   0.05849   0.96469   0.00000  Uiso   1.00
O372   O     0.36945   0.00056   0.93004   0.00000  Uiso   1.00
O373   O     0.13006   0.49933   0.06374   0.00000  Uiso   1.00
O374   O     0.46538   0.25000   0.66251   0.00000  Uiso   1.00
O375   O     0.10862   0.43839   0.03556   0.00000  Uiso   1.00
O376   O     0.42110   0.15787   0.94273   0.00000  Uiso   1.00
O377   O     0.37319   0.16550   0.99093   0.00000  Uiso   1.00
O378   O     0.12288   0.33344   0.01464   0.00000  Uiso   1.00
O379   O     0.07940   0.34141   0.06620   0.00000  Uiso   1.00
O380   O     0.25000   0.03461   0.33749   0.00000  Uiso   1.00
Zn381  Zn    0.20052  -0.00000   0.21730   0.00000  Uiso   1.00
Zn382  Zn    0.04947   0.25000   0.28270   0.00000  Uiso   1.00
Zn383  Zn    0.25000   0.45052   0.71730   0.00000  Uiso   1.00
Zn384  Zn    0.25000   0.04947   0.28270   0.00000  Uiso   1.00
Zn385  Zn    0.04947   0.25000   0.71730   0.00000  Uiso   1.00
Zn386  Zn    0.45052   0.25000   0.28270   0.00000  Uiso   1.00
Zn387  Zn    0.25000   0.04947   0.71730   0.00000  Uiso   1.00
Zn388  Zn    0.25000   0.45052   0.28270   0.00000  Uiso   1.00
Zn389  Zn    0.29947  -0.00000   0.78270   0.00000  Uiso   1.00
Zn390  Zn    0.00000   0.20052   0.21730   0.00000  Uiso   1.00
Zn391  Zn    0.00000   0.29947   0.78270   0.00000  Uiso   1.00
Zn392  Zn    0.29947  -0.00000   0.21730   0.00000  Uiso   1.00
Zn393  Zn    0.20052  -0.00000   0.78270   0.00000  Uiso   1.00
Zn394  Zn    0.00000   0.29947   0.21730   0.00000  Uiso   1.00
Zn395  Zn    0.00000   0.20052   0.78270   0.00000  Uiso   1.00
Zn396  Zn    0.45052   0.25000   0.71730   0.00000  Uiso   1.00
C397   C     0.75000   0.00002   0.35594   0.00000  Uiso   1.00
C398   C     0.83004   0.41997   0.75000   0.00000  Uiso   1.00
C399   C     0.92513   0.23356   0.01856   0.00000  Uiso   1.00
C400   C     0.82086   0.03050   0.97981   0.00000  Uiso   1.00
C401   C     0.67884   0.47059   0.01990   0.00000  Uiso   1.00
C402   C     0.93005   0.21924   0.98056   0.00000  Uiso   1.00
C403   C     0.57014   0.28105   0.01996   0.00000  Uiso   1.00
C404   C     0.53892   0.32040   0.39804   0.00000  Uiso   1.00
C405   C     0.58575   0.30836   0.39786   0.00000  Uiso   1.00
C406   C     0.61195   0.34045   0.37540   0.00000  Uiso   1.00
C407   C     0.51133   0.17068   0.60251   0.00000  Uiso   1.00
C408   C     0.55946   0.16775   0.60633   0.00000  Uiso   1.00
C409   C     0.91998   0.16999   0.24998   0.00000  Uiso   1.00
C410   C     0.57255   0.12878   0.62926   0.00000  Uiso   1.00
C411   C     0.67949   0.03858   0.39786   0.00000  Uiso   1.00
C412   C     0.69144   0.08544   0.39772   0.00000  Uiso   1.00
C413   C     0.65928   0.11151   0.37520   0.00000  Uiso   1.00
C414   C     0.82934   0.01171   0.60267   0.00000  Uiso   1.00
C415   C     0.83217   0.05983   0.60647   0.00000  Uiso   1.00
C416   C     0.87112   0.07310   0.62950   0.00000  Uiso   1.00
C417   C     0.96134   0.17948   0.39776   0.00000  Uiso   1.00
C418   C     0.91446   0.19133   0.39765   0.00000  Uiso   1.00
C419   C     0.88830   0.15916   0.37510   0.00000  Uiso   1.00
C420   C     0.58002   0.33002   0.75002   0.00000  Uiso   1.00
C421   C     0.98843   0.32931   0.60261   0.00000  Uiso   1.00
C422   C     0.94031   0.33215   0.60644   0.00000  Uiso   1.00
C423   C     0.92721   0.37110   0.62942   0.00000  Uiso   1.00
C424   C     0.82058   0.46155   0.39794   0.00000  Uiso   1.00
C425   C     0.80874   0.41467   0.39780   0.00000  Uiso   1.00
C426   C     0.84092   0.38862   0.37532   0.00000  Uiso   1.00
C427   C     0.67067   0.48810   0.60242   0.00000  Uiso   1.00
C428   C     0.66792   0.43999   0.60620   0.00000  Uiso   1.00
C429   C     0.62896   0.42670   0.62908   0.00000  Uiso   1.00
C430   C     0.79908   0.06464   0.89948   0.00000  Uiso   1.00
C431   C     0.83003   0.41999   0.25002   0.00000  Uiso   1.00
C432   C     0.76639   0.09626   0.88415   0.00000  Uiso   1.00
C433   C     0.78784   0.13450   0.86594   0.00000  Uiso   1.00
C434   C     0.69960   0.43649   0.10030   0.00000  Uiso   1.00
C435   C     0.73152   0.40423   0.11589   0.00000  Uiso   1.00
C436   C     0.70912   0.36648   0.13402   0.00000  Uiso   1.00
C437   C     0.92144   0.23929   0.89595   0.00000  Uiso   1.00
C438   C     0.90715   0.28488   0.88886   0.00000  Uiso   1.00
C439   C     0.86743   0.28639   0.86386   0.00000  Uiso   1.00
C440   C     0.57905   0.25674   0.10384   0.00000  Uiso   1.00
C441   C     0.59092   0.21038   0.11043   0.00000  Uiso   1.00
C442   C     0.66997   0.08001   0.74998   0.00000  Uiso   1.00
C443   C     0.63041   0.20647   0.13551   0.00000  Uiso   1.00
C444   C     0.70511   0.43299   0.89929   0.00000  Uiso   1.00
C445   C     0.73994   0.40360   0.88412   0.00000  Uiso   1.00
C446   C     0.72149   0.36285   0.86776   0.00000  Uiso   1.00
C447   C     0.79499   0.06711   0.10080   0.00000  Uiso   1.00
C448   C     0.76010   0.09642   0.11602   0.00000  Uiso   1.00
C449   C     0.77842   0.13729   0.13224   0.00000  Uiso   1.00
C450   C     0.57151   0.28774   0.89681   0.00000  Uiso   1.00
C451   C     0.56256   0.33514   0.89985   0.00000  Uiso   1.00
C452   C     0.59587   0.36101   0.87860   0.00000  Uiso   1.00
C453   C     0.58004   0.33000   0.25001   0.00000  Uiso   1.00
C454   C     0.92765   0.21419   0.10323   0.00000  Uiso   1.00
C455   C     0.93654   0.16668   0.10207   0.00000  Uiso   1.00
C456   C     0.90316   0.14193   0.12434   0.00000  Uiso   1.00
C457   C     0.51305   0.13487   0.46674   0.00000  Uiso   1.00
C458   C     0.55398   0.35271   0.53454   0.00000  Uiso   1.00
C459   C     0.86518   0.01345   0.46694   0.00000  Uiso   1.00
C460   C     0.64713   0.05353   0.53428   0.00000  Uiso   1.00
C461   C     0.98698   0.36508   0.46679   0.00000  Uiso   1.00
C462   C     0.94581   0.14734   0.53414   0.00000  Uiso   1.00
C463   C     0.63488   0.48650   0.46653   0.00000  Uiso   1.00
C464   C     0.91996   0.16999   0.74999   0.00000  Uiso   1.00
C465   C     0.85283   0.44629   0.53442   0.00000  Uiso   1.00
C466   C     0.63995   0.46374   0.95635   0.00000  Uiso   1.00
C467   C     0.86009   0.03726   0.04303   0.00000  Uiso   1.00
C468   C     0.61588   0.24815   0.97056   0.00000  Uiso   1.00
C469   C     0.88454   0.25487   0.02807   0.00000  Uiso   1.00
C470   C     0.86173   0.03110   0.95842   0.00000  Uiso   1.00
C471   C     0.63777   0.47087   0.04088   0.00000  Uiso   1.00
C472   C     0.90783   0.17953   0.96943   0.00000  Uiso   1.00
C473   C     0.59320   0.31956   0.03330   0.00000  Uiso   1.00
C474   C     0.67000   0.41997   0.75001   0.00000  Uiso   1.00
C475   C     0.82999   0.08005   0.24997   0.00000  Uiso   1.00
C476   C     0.91996   0.33002   0.75000   0.00000  Uiso   1.00
C477   C     0.75000   0.49998   0.64416   0.00000  Uiso   1.00
C478   C     0.58006   0.16999   0.24998   0.00000  Uiso   1.00
C479   C     0.83003   0.08001   0.75001   0.00000  Uiso   1.00
C480   C     0.66999   0.41997   0.24996   0.00000  Uiso   1.00
C481   C     0.57999   0.16995   0.74996   0.00000  Uiso   1.00
C482   C     0.91999   0.33003   0.25002   0.00000  Uiso   1.00
C483   C     0.63835   0.38832   0.24995   0.00000  Uiso   1.00
C484   C     0.86167   0.11165   0.75001   0.00000  Uiso   1.00
C485   C     0.61171   0.13837   0.24998   0.00000  Uiso   1.00
C486   C     0.88833   0.36166   0.74999   0.00000  Uiso   1.00
C487   C     0.86162   0.11171   0.24995   0.00000  Uiso   1.00
C488   C     0.50003   0.25000   0.35594   0.00000  Uiso   1.00
C489   C     0.63836   0.38832   0.75002   0.00000  Uiso   1.00
C490   C     0.88834   0.36168   0.25005   0.00000  Uiso   1.00
C491   C     0.61163   0.13830   0.74993   0.00000  Uiso   1.00
C492   C     0.63830   0.11163   0.74994   0.00000  Uiso   1.00
C493   C     0.86168   0.38835   0.25004   0.00000  Uiso   1.00
C494   C     0.61167   0.36166   0.75004   0.00000  Uiso   1.00
C495   C     0.88831   0.13836   0.24994   0.00000  Uiso   1.00
C496   C     0.86168   0.38833   0.75000   0.00000  Uiso   1.00
C497   C     0.63835   0.11169   0.24998   0.00000  Uiso   1.00
C498   C     0.88832   0.13835   0.74998   0.00000  Uiso   1.00
C499   C     0.99997   0.25001   0.64415   0.00000  Uiso   1.00
C500   C     0.61170   0.36163   0.25000   0.00000  Uiso   1.00
C501   C     0.51295   0.28655   0.41873   0.00000  Uiso   1.00
C502   C     0.99877   0.21131   0.58166   0.00000  Uiso   1.00
C503   C     0.71340   0.01276   0.41864   0.00000  Uiso   1.00
C504   C     0.78872   0.49898   0.58174   0.00000  Uiso   1.00
C505   C     0.98723   0.21336   0.41862   0.00000  Uiso   1.00
C506   C     0.50101   0.28869   0.58172   0.00000  Uiso   1.00
C507   C     0.78667   0.48734   0.41871   0.00000  Uiso   1.00
C508   C     0.71129   0.00087   0.58163   0.00000  Uiso   1.00
C509   C     0.77835   0.02665   0.91911   0.00000  Uiso   1.00
C510   C     0.50032   0.25006   0.85585   0.00000  Uiso   1.00
C511   C     0.72120   0.47403   0.08073   0.00000  Uiso   1.00
C512   C     0.96346   0.23831   0.91805   0.00000  Uiso   1.00
C513   C     0.53698   0.26026   0.08205   0.00000  Uiso   1.00
C514   C     0.72331   0.47235   0.91886   0.00000  Uiso   1.00
C515   C     0.77681   0.02781   0.08111   0.00000  Uiso   1.00
C516   C     0.53752   0.26256   0.91840   0.00000  Uiso   1.00
C517   C     0.96228   0.23841   0.08166   0.00000  Uiso   1.00
C518   C     0.50009   0.24996   0.39842   0.00000  Uiso   1.00
C519   C     0.99990   0.25000   0.60184   0.00000  Uiso   1.00
C520   C     0.75003   0.00006   0.39841   0.00000  Uiso   1.00
C521   C     0.99972   0.24991   0.14417   0.00000  Uiso   1.00
C522   C     0.75001   0.49994   0.60184   0.00000  Uiso   1.00
C523   C     0.75044   0.49988   0.89847   0.00000  Uiso   1.00
C524   C     0.74951   0.00034   0.10144   0.00000  Uiso   1.00
C525   C     0.50062   0.25008   0.89824   0.00000  Uiso   1.00
C526   C     0.99948   0.24977   0.10183   0.00000  Uiso   1.00
C527   C     0.99351   0.21180   0.45928   0.00000  Uiso   1.00
C528   C     0.50785   0.28788   0.54118   0.00000  Uiso   1.00
C529   C     0.78823   0.49365   0.45936   0.00000  Uiso   1.00
C530   C     0.71209   0.00770   0.54109   0.00000  Uiso   1.00
C531   C     0.50655   0.28814   0.45936   0.00000  Uiso   1.00
C532   C     0.75009   0.00010   0.85598   0.00000  Uiso   1.00
C533   C     0.99199   0.21212   0.54109   0.00000  Uiso   1.00
C534   C     0.71183   0.00637   0.45927   0.00000  Uiso   1.00
C535   C     0.78793   0.49217   0.54118   0.00000  Uiso   1.00
C536   C     0.71743   0.47962   0.95901   0.00000  Uiso   1.00
C537   C     0.78256   0.02081   0.04088   0.00000  Uiso   1.00
C538   C     0.53816   0.25944   0.95944   0.00000  Uiso   1.00
C539   C     0.96188   0.24144   0.04064   0.00000  Uiso   1.00
C540   C     0.78352   0.01959   0.95940   0.00000  Uiso   1.00
C541   C     0.71624   0.48116   0.04042   0.00000  Uiso   1.00
C542   C     0.96461   0.23476   0.95897   0.00000  Uiso   1.00
C543   C     0.74991   0.49993   0.14399   0.00000  Uiso   1.00
C544   C     0.53573   0.26492   0.04125   0.00000  Uiso   1.00
C545   C     0.50000   0.24998   0.47971   0.00000  Uiso   1.00
C546   C     0.99995   0.24999   0.52071   0.00000  Uiso   1.00
C547   C     0.75002   0.49999   0.47971   0.00000  Uiso   1.00
C548   C     0.75001   0.49995   0.52070   0.00000  Uiso   1.00
C549   C     0.75018   0.00000   0.97961   0.00000  Uiso   1.00
C550   C     0.74974   0.00055   0.02027   0.00000  Uiso   1.00
C551   C     0.50057   0.24919   0.97950   0.00000  Uiso   1.00
C552   C     0.99963   0.25117   0.02061   0.00000  Uiso   1.00
C553   C     0.99108   0.17374   0.48057   0.00000  Uiso   1.00
C554   C     0.66997   0.08003   0.24999   0.00000  Uiso   1.00
C555   C     0.51986   0.32412   0.52004   0.00000  Uiso   1.00
C556   C     0.82631   0.49137   0.48073   0.00000  Uiso   1.00
C557   C     0.67581   0.01954   0.51986   0.00000  Uiso   1.00
C558   C     0.50891   0.32622   0.48070   0.00000  Uiso   1.00
C559   C     0.98001   0.17588   0.51985   0.00000  Uiso   1.00
C560   C     0.67373   0.00857   0.48053   0.00000  Uiso   1.00
C561   C     0.82421   0.48034   0.52002   0.00000  Uiso   1.00
C562   C     0.67974   0.46872   0.97882   0.00000  Uiso   1.00
C563   C     0.82012   0.03202   0.02093   0.00000  Uiso   1.00
C564   C     0.57491   0.26790   0.98143   0.00000  Uiso   1.00
H565   H     0.60113   0.34216   0.34477   0.00000  Uiso   1.00
H566   H     0.60745   0.12747   0.63133   0.00000  Uiso   1.00
H567   H     0.59690   0.35215   0.84742   0.00000  Uiso   1.00
H568   H     0.58814   0.39502   0.88088   0.00000  Uiso   1.00
H569   H     0.53113   0.34226   0.88724   0.00000  Uiso   1.00
H570   H     0.56230   0.34479   0.93088   0.00000  Uiso   1.00
H571   H     0.60359   0.28187   0.90765   0.00000  Uiso   1.00
H572   H     0.57355   0.27846   0.86584   0.00000  Uiso   1.00
H573   H     0.90154   0.15283   0.15494   0.00000  Uiso   1.00
H574   H     0.87189   0.14597   0.11039   0.00000  Uiso   1.00
H575   H     0.91124   0.10793   0.12416   0.00000  Uiso   1.00
H576   H     0.93680   0.15566   0.07143   0.00000  Uiso   1.00
H577   H     0.57369   0.16608   0.57689   0.00000  Uiso   1.00
H578   H     0.96794   0.15996   0.11492   0.00000  Uiso   1.00
H579   H     0.92488   0.22494   0.13377   0.00000  Uiso   1.00
H580   H     0.89592   0.21941   0.09123   0.00000  Uiso   1.00
H581   H     0.52782   0.07388   0.47623   0.00000  Uiso   1.00
H582   H     0.59175   0.40275   0.52444   0.00000  Uiso   1.00
H583   H     0.92622   0.02837   0.47648   0.00000  Uiso   1.00
H584   H     0.59702   0.09109   0.52403   0.00000  Uiso   1.00
H585   H     0.97205   0.42604   0.47632   0.00000  Uiso   1.00
H586   H     0.90796   0.09739   0.52376   0.00000  Uiso   1.00
H587   H     0.57390   0.47137   0.47592   0.00000  Uiso   1.00
H588   H     0.57232   0.19604   0.62109   0.00000  Uiso   1.00
H589   H     0.90288   0.40866   0.52419   0.00000  Uiso   1.00
H590   H     0.60170   0.48709   0.91485   0.00000  Uiso   1.00
H591   H     0.90989   0.07411   0.05625   0.00000  Uiso   1.00
H592   H     0.64604   0.20406   0.93876   0.00000  Uiso   1.00
H593   H     0.82276   0.26245   0.01590   0.00000  Uiso   1.00
H594   H     0.89780   0.00439   0.91699   0.00000  Uiso   1.00
H595   H     0.58217   0.44242   0.05160   0.00000  Uiso   1.00
H596   H     0.86084   0.13829   0.98050   0.00000  Uiso   1.00
H597   H     0.59832   0.36602   0.07312   0.00000  Uiso   1.00
H598   H     0.99613   0.16903   0.63150   0.00000  Uiso   1.00
H599   H     0.50118   0.14207   0.58680   0.00000  Uiso   1.00
H600   H     0.65757   0.10071   0.34457   0.00000  Uiso   1.00
H601   H     0.62762   0.10867   0.38868   0.00000  Uiso   1.00
H602   H     0.66881   0.14516   0.37556   0.00000  Uiso   1.00
H603   H     0.69283   0.09718   0.42812   0.00000  Uiso   1.00
H604   H     0.72300   0.09007   0.38453   0.00000  Uiso   1.00
H605   H     0.60924   0.37210   0.38895   0.00000  Uiso   1.00
H606   H     0.67454   0.02699   0.36778   0.00000  Uiso   1.00
H607   H     0.64829   0.03628   0.41175   0.00000  Uiso   1.00
H608   H     0.86985   0.05991   0.65933   0.00000  Uiso   1.00
H609   H     0.90019   0.06194   0.61482   0.00000  Uiso   1.00
H610   H     0.87235   0.10798   0.63156   0.00000  Uiso   1.00
H611   H     0.83383   0.07406   0.57704   0.00000  Uiso   1.00
H612   H     0.80383   0.07257   0.62115   0.00000  Uiso   1.00
H613   H     0.83103   0.49654   0.63167   0.00000  Uiso   1.00
H614   H     0.85800   0.00170   0.58703   0.00000  Uiso   1.00
H615   H     0.89901   0.15753   0.34447   0.00000  Uiso   1.00
H616   H     0.64558   0.33086   0.37573   0.00000  Uiso   1.00
H617   H     0.89117   0.12752   0.38856   0.00000  Uiso   1.00
H618   H     0.85463   0.16863   0.37547   0.00000  Uiso   1.00
H619   H     0.90280   0.19265   0.42804   0.00000  Uiso   1.00
H620   H     0.90981   0.22288   0.38448   0.00000  Uiso   1.00
H621   H     0.97284   0.17464   0.36767   0.00000  Uiso   1.00
H622   H     0.96370   0.14825   0.41157   0.00000  Uiso   1.00
H623   H     0.94049   0.36984   0.65925   0.00000  Uiso   1.00
H624   H     0.93840   0.40014   0.61471   0.00000  Uiso   1.00
H625   H     0.89231   0.37234   0.63150   0.00000  Uiso   1.00
H626   H     0.92598   0.33379   0.57700   0.00000  Uiso   1.00
H627   H     0.59751   0.30695   0.42825   0.00000  Uiso   1.00
H628   H     0.92754   0.30384   0.62115   0.00000  Uiso   1.00
H629   H     0.50372   0.33103   0.63159   0.00000  Uiso   1.00
H630   H     0.99845   0.35793   0.58692   0.00000  Uiso   1.00
H631   H     0.84254   0.39934   0.34469   0.00000  Uiso   1.00
H632   H     0.87259   0.39157   0.38884   0.00000  Uiso   1.00
H633   H     0.83146   0.35494   0.37568   0.00000  Uiso   1.00
H634   H     0.80743   0.40300   0.42820   0.00000  Uiso   1.00
H635   H     0.77717   0.40995   0.38457   0.00000  Uiso   1.00
H636   H     0.82543   0.47308   0.36786   0.00000  Uiso   1.00
H637   H     0.85182   0.46398   0.41183   0.00000  Uiso   1.00
H638   H     0.59024   0.27681   0.38460   0.00000  Uiso   1.00
H639   H     0.63019   0.43994   0.65892   0.00000  Uiso   1.00
H640   H     0.59989   0.43779   0.61430   0.00000  Uiso   1.00
H641   H     0.62779   0.39182   0.63112   0.00000  Uiso   1.00
H642   H     0.66631   0.42571   0.57674   0.00000  Uiso   1.00
H643   H     0.69626   0.42731   0.62096   0.00000  Uiso   1.00
H644   H     0.66894   0.00332   0.63143   0.00000  Uiso   1.00
H645   H     0.64202   0.49804   0.58669   0.00000  Uiso   1.00
H646   H     0.80771   0.15103   0.88773   0.00000  Uiso   1.00
H647   H     0.80781   0.12457   0.84110   0.00000  Uiso   1.00
H648   H     0.76356   0.15677   0.85515   0.00000  Uiso   1.00
H649   H     0.52731   0.32539   0.36798   0.00000  Uiso   1.00
H650   H     0.74578   0.08168   0.86188   0.00000  Uiso   1.00
H651   H     0.74615   0.10704   0.90853   0.00000  Uiso   1.00
H652   H     0.81864   0.08269   0.92031   0.00000  Uiso   1.00
H653   H     0.82038   0.05420   0.87587   0.00000  Uiso   1.00
H654   H     0.68918   0.37687   0.15871   0.00000  Uiso   1.00
H655   H     0.68905   0.35034   0.11213   0.00000  Uiso   1.00
H656   H     0.73284   0.34372   0.14499   0.00000  Uiso   1.00
H657   H     0.75171   0.39299   0.09166   0.00000  Uiso   1.00
H658   H     0.75226   0.41840   0.13827   0.00000  Uiso   1.00
H659   H     0.67829   0.44739   0.12372   0.00000  Uiso   1.00
H660   H     0.53676   0.35157   0.41202   0.00000  Uiso   1.00
H661   H     0.67985   0.41877   0.07938   0.00000  Uiso   1.00
H662   H     0.87359   0.27212   0.83497   0.00000  Uiso   1.00
H663   H     0.84130   0.26913   0.87824   0.00000  Uiso   1.00
H664   H     0.85768   0.31965   0.85962   0.00000  Uiso   1.00
H665   H     0.90055   0.30025   0.91721   0.00000  Uiso   1.00
H666   H     0.93218   0.30329   0.87416   0.00000  Uiso   1.00
H667   H     0.92423   0.22199   0.86805   0.00000  Uiso   1.00
H668   H     0.89539   0.22379   0.91151   0.00000  Uiso   1.00
H669   H     0.65744   0.22260   0.12144   0.00000  Uiso   1.00
H670   H     0.62487   0.22059   0.16457   0.00000  Uiso   1.00
H671   H     0.55936   0.13007   0.65908   0.00000  Uiso   1.00
H672   H     0.63844   0.17269   0.13935   0.00000  Uiso   1.00
H673   H     0.56495   0.19302   0.12480   0.00000  Uiso   1.00
H674   H     0.59682   0.19508   0.08191   0.00000  Uiso   1.00
H675   H     0.60578   0.27084   0.08808   0.00000  Uiso   1.00
H676   H     0.57737   0.27391   0.13190   0.00000  Uiso   1.00
H677   H     0.70521   0.34489   0.89097   0.00000  Uiso   1.00
H678   H     0.69882   0.36989   0.84403   0.00000  Uiso   1.00
H679   H     0.74723   0.34300   0.85591   0.00000  Uiso   1.00
H680   H     0.75838   0.41893   0.86078   0.00000  Uiso   1.00
H681   H     0.76190   0.39569   0.90821   0.00000  Uiso   1.00
H682   H     0.56125   0.09976   0.61449   0.00000  Uiso   1.00
H683   H     0.68691   0.41384   0.92024   0.00000  Uiso   1.00
H684   H     0.68324   0.44189   0.87553   0.00000  Uiso   1.00
H685   H     0.80127   0.13042   0.15585   0.00000  Uiso   1.00
H686   H     0.79442   0.15531   0.10890   0.00000  Uiso   1.00
H687   H     0.75263   0.15700   0.14420   0.00000  Uiso   1.00
H688   H     0.73802   0.10419   0.09198   0.00000  Uiso   1.00
H689   H     0.74180   0.08109   0.13945   0.00000  Uiso   1.00
H690   H     0.81684   0.05815   0.12456   0.00000  Uiso   1.00
H691   H     0.81319   0.08634   0.07993   0.00000  Uiso   1.00
H692   H     0.62733   0.35578   0.89185   0.00000  Uiso   1.00
O693   O     0.75000  -0.00000   0.25000   0.00000  Uiso   1.00
O694   O     0.75000   0.46538   0.66251   0.00000  Uiso   1.00
O695   O     0.96538   0.25000   0.33749   0.00000  Uiso   1.00
O696   O     0.53461   0.25000   0.66251   0.00000  Uiso   1.00
O697   O     0.50000   0.21538   0.83749   0.00000  Uiso   1.00
O698   O     0.50000   0.28461   0.16251   0.00000  Uiso   1.00
O699   O     0.78461  -0.00000   0.83749   0.00000  Uiso   1.00
O700   O     0.71538  -0.00000   0.16251   0.00000  Uiso   1.00
O701   O     0.50000   0.28461   0.83749   0.00000  Uiso   1.00
O702   O     0.50000   0.21538   0.16251   0.00000  Uiso   1.00
O703   O     0.71538  -0.00000   0.83749   0.00000  Uiso   1.00
O704   O     0.75000  -0.00000   0.75000   0.00000  Uiso   1.00
O705   O     0.78461  -0.00000   0.16251   0.00000  Uiso   1.00
O706   O     0.70126   0.08332   0.27298   0.00000  Uiso   1.00
O707   O     0.79873   0.41668   0.72702   0.00000  Uiso   1.00
O708   O     0.91668   0.20126   0.27298   0.00000  Uiso   1.00
O709   O     0.58332   0.29873   0.72702   0.00000  Uiso   1.00
O710   O     0.79873   0.41668   0.27298   0.00000  Uiso   1.00
O711   O     0.70126   0.08332   0.72702   0.00000  Uiso   1.00
O712   O     0.58332   0.29873   0.27298   0.00000  Uiso   1.00
O713   O     0.91668   0.20126   0.72702   0.00000  Uiso   1.00
O714   O     0.70126   0.41668   0.72702   0.00000  Uiso   1.00
O715   O     0.50000   0.25000   0.25000   0.00000  Uiso   1.00
O716   O     0.79873   0.08332   0.27298   0.00000  Uiso   1.00
O717   O     0.91668   0.29873   0.72702   0.00000  Uiso   1.00
O718   O     0.58332   0.20126   0.27298   0.00000  Uiso   1.00
O719   O     0.79873   0.08332   0.72702   0.00000  Uiso   1.00
O720   O     0.70126   0.41668   0.27298   0.00000  Uiso   1.00
O721   O     0.58332   0.20126   0.72702   0.00000  Uiso   1.00
O722   O     0.91668   0.29873   0.27298   0.00000  Uiso   1.00
O723   O     0.95126   0.33332   0.77298   0.00000  Uiso   1.00
O724   O     0.54873   0.16668   0.22702   0.00000  Uiso   1.00
O725   O     0.66668   0.45126   0.77298   0.00000  Uiso   1.00
O726   O     0.50000   0.25000   0.75000   0.00000  Uiso   1.00
O727   O     0.83332   0.04873   0.22702   0.00000  Uiso   1.00
O728   O     0.54873   0.16668   0.77298   0.00000  Uiso   1.00
O729   O     0.95126   0.33332   0.22702   0.00000  Uiso   1.00
O730   O     0.83332   0.04873   0.77298   0.00000  Uiso   1.00
O731   O     0.66668   0.45126   0.22702   0.00000  Uiso   1.00
O732   O     0.95126   0.16668   0.22702   0.00000  Uiso   1.00
O733   O     0.54873   0.33332   0.77298   0.00000  Uiso   1.00
O734   O     0.66668   0.04873   0.22702   0.00000  Uiso   1.00
O735   O     0.83332   0.45126   0.77298   0.00000  Uiso   1.00
O736   O     0.54873   0.33332   0.22702   0.00000  Uiso   1.00
O737   O     0.75000   0.46538   0.33749   0.00000  Uiso   1.00
O738   O     0.95126   0.16668   0.77298   0.00000  Uiso   1.00
O739   O     0.83332   0.45126   0.22702   0.00000  Uiso   1.00
O740   O     0.66668   0.04873   0.77298   0.00000  Uiso   1.00
O741   O     0.53529   0.13609   0.43777   0.00000  Uiso   1.00
O742   O     0.51101   0.09763   0.48832   0.00000  Uiso   1.00
O743   O     0.57210   0.34507   0.56511   0.00000  Uiso   1.00
O744   O     0.56785   0.38648   0.51183   0.00000  Uiso   1.00
O745   O     0.86392   0.03564   0.43794   0.00000  Uiso   1.00
O746   O     0.90246   0.01153   0.48857   0.00000  Uiso   1.00
O747   O     0.65474   0.07167   0.56485   0.00000  Uiso   1.00
O748   O     0.75000   0.03461   0.66251   0.00000  Uiso   1.00
O749   O     0.61334   0.06726   0.51147   0.00000  Uiso   1.00
O750   O     0.96495   0.36386   0.43762   0.00000  Uiso   1.00
O751   O     0.98882   0.40229   0.48849   0.00000  Uiso   1.00
O752   O     0.92764   0.15500   0.56464   0.00000  Uiso   1.00
O753   O     0.93192   0.11361   0.51130   0.00000  Uiso   1.00
O754   O     0.63614   0.46447   0.43739   0.00000  Uiso   1.00
O755   O     0.59763   0.48822   0.48813   0.00000  Uiso   1.00
O756   O     0.84521   0.42813   0.56493   0.00000  Uiso   1.00
O757   O     0.88659   0.43252   0.51166   0.00000  Uiso   1.00
O758   O     0.61811   0.43232   0.96041   0.00000  Uiso   1.00
O759   O     0.53461   0.25000   0.33749   0.00000  Uiso   1.00
O760   O     0.62877   0.49431   0.92905   0.00000  Uiso   1.00
O761   O     0.87167   0.00948   0.06516   0.00000  Uiso   1.00
O762   O     0.88345   0.07443   0.03971   0.00000  Uiso   1.00
O763   O     0.64862   0.25881   0.98657   0.00000  Uiso   1.00
O764   O     0.61661   0.21538   0.94337   0.00000  Uiso   1.00
O765   O     0.88360   0.28276   0.05260   0.00000  Uiso   1.00
O766   O     0.84793   0.24523   0.00722   0.00000  Uiso   1.00
O767   O     0.88795   0.05849   0.96469   0.00000  Uiso   1.00
O768   O     0.86945   0.00056   0.93004   0.00000  Uiso   1.00
O769   O     0.63006   0.49933   0.06374   0.00000  Uiso   1.00
O770   O     0.96538   0.25000   0.66251   0.00000  Uiso   1.00
O771   O     0.60862   0.43839   0.03556   0.00000  Uiso   1.00
O772   O     0.92110   0.15787   0.94273   0.00000  Uiso   1.00
O773   O     0.87319   0.16550   0.99093   0.00000  Uiso   1.00
O774   O     0.62288   0.33344   0.01464   0.00000  Uiso   1.00
O775   O     0.57940   0.34141   0.06620   0.00000  Uiso   1.00
O776   O     0.75000   0.03461   0.33749   0.00000  Uiso   1.00
Zn777  Zn    0.70052  -0.00000   0.21730   0.00000  Uiso   1.00
Zn778  Zn    0.54947   0.25000   0.28270   0.00000  Uiso   1.00
Zn779  Zn    0.75000   0.45052   0.71730   0.00000  Uiso   1.00
Zn780  Zn    0.75000   0.04947   0.28270   0.00000  Uiso   1.00
Zn781  Zn    0.54947   0.25000   0.71730   0.00000  Uiso   1.00
Zn782  Zn    0.95052   0.25000   0.28270   0.00000  Uiso   1.00
Zn783  Zn    0.75000   0.04947   0.71730   0.00000  Uiso   1.00
Zn784  Zn    0.75000   0.45052   0.28270   0.00000  Uiso   1.00
Zn785  Zn    0.79947  -0.00000   0.78270   0.00000  Uiso   1.00
Zn786  Zn    0.50000   0.20052   0.21730   0.00000  Uiso   1.00
Zn787  Zn    0.50000   0.29947   0.78270   0.00000  Uiso   1.00
Zn788  Zn    0.79947  -0.00000   0.21730   0.00000  Uiso   1.00
Zn789  Zn    0.70052  -0.00000   0.78270   0.00000  Uiso   1.00
Zn790  Zn    0.50000   0.29947   0.21730   0.00000  Uiso   1.00
Zn791  Zn    0.50000   0.20052   0.78270   0.00000  Uiso   1.00
Zn792  Zn    0.95052   0.25000   0.71730   0.00000  Uiso   1.00
C793   C     0.25000   0.50002   0.35594   0.00000  Uiso   1.00
C794   C     0.33004   0.91997   0.75000   0.00000  Uiso   1.00
C795   C     0.42513   0.73356   0.01856   0.00000  Uiso   1.00
C796   C     0.32086   0.53050   0.97981   0.00000  Uiso   1.00
C797   C     0.17884   0.97059   0.01990   0.00000  Uiso   1.00
C798   C     0.43005   0.71924   0.98056   0.00000  Uiso   1.00
C799   C     0.07014   0.78105   0.01996   0.00000  Uiso   1.00
C800   C     0.03892   0.82040   0.39804   0.00000  Uiso   1.00
C801   C     0.08575   0.80836   0.39786   0.00000  Uiso   1.00
C802   C     0.11195   0.84045   0.37540   0.00000  Uiso   1.00
C803   C     0.01133   0.67068   0.60251   0.00000  Uiso   1.00
C804   C     0.05946   0.66775   0.60633   0.00000  Uiso   1.00
C805   C     0.41998   0.66999   0.24998   0.00000  Uiso   1.00
C806   C     0.07255   0.62878   0.62926   0.00000  Uiso   1.00
C807   C     0.17949   0.53858   0.39786   0.00000  Uiso   1.00
C808   C     0.19144   0.58544   0.39772   0.00000  Uiso   1.00
C809   C     0.15928   0.61151   0.37520   0.00000  Uiso   1.00
C810   C     0.32934   0.51171   0.60267   0.00000  Uiso   1.00
C811   C     0.33217   0.55983   0.60647   0.00000  Uiso   1.00
C812   C     0.37112   0.57310   0.62950   0.00000  Uiso   1.00
C813   C     0.46134   0.67948   0.39776   0.00000  Uiso   1.00
C814   C     0.41446   0.69133   0.39765   0.00000  Uiso   1.00
C815   C     0.38830   0.65916   0.37510   0.00000  Uiso   1.00
C816   C     0.08002   0.83002   0.75002   0.00000  Uiso   1.00
C817   C     0.48843   0.82931   0.60261   0.00000  Uiso   1.00
C818   C     0.44031   0.83215   0.60644   0.00000  Uiso   1.00
C819   C     0.42721   0.87110   0.62942   0.00000  Uiso   1.00
C820   C     0.32058   0.96155   0.39794   0.00000  Uiso   1.00
C821   C     0.30874   0.91467   0.39780   0.00000  Uiso   1.00
C822   C     0.34092   0.88862   0.37532   0.00000  Uiso   1.00
C823   C     0.17067   0.98810   0.60242   0.00000  Uiso   1.00
C824   C     0.16792   0.93999   0.60620   0.00000  Uiso   1.00
C825   C     0.12896   0.92670   0.62908   0.00000  Uiso   1.00
C826   C     0.29908   0.56464   0.89948   0.00000  Uiso   1.00
C827   C     0.33003   0.91999   0.25002   0.00000  Uiso   1.00
C828   C     0.26639   0.59626   0.88415   0.00000  Uiso   1.00
C829   C     0.28784   0.63450   0.86594   0.00000  Uiso   1.00
C830   C     0.19960   0.93649   0.10030   0.00000  Uiso   1.00
C831   C     0.23152   0.90423   0.11589   0.00000  Uiso   1.00
C832   C     0.20912   0.86648   0.13402   0.00000  Uiso   1.00
C833   C     0.42144   0.73929   0.89595   0.00000  Uiso   1.00
C834   C     0.40715   0.78488   0.88886   0.00000  Uiso   1.00
C835   C     0.36743   0.78639   0.86386   0.00000  Uiso   1.00
C836   C     0.07905   0.75674   0.10384   0.00000  Uiso   1.00
C837   C     0.09092   0.71038   0.11043   0.00000  Uiso   1.00
C838   C     0.16997   0.58001   0.74998   0.00000  Uiso   1.00
C839   C     0.13041   0.70647   0.13551   0.00000  Uiso   1.00
C840   C     0.20511   0.93299   0.89929   0.00000  Uiso   1.00
C841   C     0.23994   0.90360   0.88412   0.00000  Uiso   1.00
C842   C     0.22149   0.86285   0.86776   0.00000  Uiso   1.00
C843   C     0.29499   0.56711   0.10080   0.00000  Uiso   1.00
C844   C     0.26010   0.59642   0.11602   0.00000  Uiso   1.00
C845   C     0.27842   0.63729   0.13224   0.00000  Uiso   1.00
C846   C     0.07151   0.78774   0.89681   0.00000  Uiso   1.00
C847   C     0.06256   0.83514   0.89985   0.00000  Uiso   1.00
C848   C     0.09587   0.86101   0.87860   0.00000  Uiso   1.00
C849   C     0.08004   0.83000   0.25001   0.00000  Uiso   1.00
C850   C     0.42765   0.71419   0.10323   0.00000  Uiso   1.00
C851   C     0.43654   0.66668   0.10207   0.00000  Uiso   1.00
C852   C     0.40316   0.64193   0.12434   0.00000  Uiso   1.00
C853   C     0.01305   0.63487   0.46674   0.00000  Uiso   1.00
C854   C     0.05398   0.85271   0.53454   0.00000  Uiso   1.00
C855   C     0.36518   0.51345   0.46694   0.00000  Uiso   1.00
C856   C     0.14713   0.55353   0.53428   0.00000  Uiso   1.00
C857   C     0.48698   0.86508   0.46679   0.00000  Uiso   1.00
C858   C     0.44581   0.64734   0.53414   0.00000  Uiso   1.00
C859   C     0.13488   0.98650   0.46653   0.00000  Uiso   1.00
C860   C     0.41996   0.66999   0.74999   0.00000  Uiso   1.00
C861   C     0.35283   0.94629   0.53442   0.00000  Uiso   1.00
C862   C     0.13995   0.96374   0.95635   0.00000  Uiso   1.00
C863   C     0.36009   0.53726   0.04303   0.00000  Uiso   1.00
C864   C     0.11588   0.74815   0.97056   0.00000  Uiso   1.00
C865   C     0.38454   0.75487   0.02807   0.00000  Uiso   1.00
C866   C     0.36173   0.53110   0.95842   0.00000  Uiso   1.00
C867   C     0.13777   0.97087   0.04088   0.00000  Uiso   1.00
C868   C     0.40783   0.67953   0.96943   0.00000  Uiso   1.00
C869   C     0.09320   0.81956   0.03330   0.00000  Uiso   1.00
C870   C     0.17000   0.91997   0.75001   0.00000  Uiso   1.00
C871   C     0.32999   0.58005   0.24997   0.00000  Uiso   1.00
C872   C     0.41996   0.83002   0.75000   0.00000  Uiso   1.00
C873   C     0.25000   0.99998   0.64416   0.00000  Uiso   1.00
C874   C     0.08006   0.66999   0.24998   0.00000  Uiso   1.00
C875   C     0.33003   0.58001   0.75001   0.00000  Uiso   1.00
C876   C     0.16999   0.91997   0.24996   0.00000  Uiso   1.00
C877   C     0.07999   0.66995   0.74996   0.00000  Uiso   1.00
C878   C     0.41999   0.83003   0.25002   0.00000  Uiso   1.00
C879   C     0.13835   0.88832   0.24995   0.00000  Uiso   1.00
C880   C     0.36167   0.61165   0.75001   0.00000  Uiso   1.00
C881   C     0.11171   0.63837   0.24998   0.00000  Uiso   1.00
C882   C     0.38833   0.86166   0.74999   0.00000  Uiso   1.00
C883   C     0.36162   0.61171   0.24995   0.00000  Uiso   1.00
C884   C     0.00003   0.75000   0.35594   0.00000  Uiso   1.00
C885   C     0.13836   0.88832   0.75002   0.00000  Uiso   1.00
C886   C     0.38834   0.86168   0.25005   0.00000  Uiso   1.00
C887   C     0.11163   0.63830   0.74993   0.00000  Uiso   1.00
C888   C     0.13830   0.61163   0.74994   0.00000  Uiso   1.00
C889   C     0.36168   0.88835   0.25004   0.00000  Uiso   1.00
C890   C     0.11167   0.86166   0.75004   0.00000  Uiso   1.00
C891   C     0.38831   0.63836   0.24994   0.00000  Uiso   1.00
C892   C     0.36168   0.88833   0.75000   0.00000  Uiso   1.00
C893   C     0.13835   0.61169   0.24998   0.00000  Uiso   1.00
C894   C     0.38832   0.63835   0.74998   0.00000  Uiso   1.00
C895   C     0.49997   0.75001   0.64415   0.00000  Uiso   1.00
C896   C     0.11170   0.86163   0.25000   0.00000  Uiso   1.00
C897   C     0.01295   0.78655   0.41873   0.00000  Uiso   1.00
C898   C     0.49877   0.71131   0.58166   0.00000  Uiso   1.00
C899   C     0.21340   0.51276   0.41864   0.00000  Uiso   1.00
C900   C     0.28872   0.99898   0.58174   0.00000  Uiso   1.00
C901   C     0.48723   0.71336   0.41862   0.00000  Uiso   1.00
C902   C     0.00101   0.78869   0.58172   0.00000  Uiso   1.00
C903   C     0.28667   0.98734   0.41871   0.00000  Uiso   1.00
C904   C     0.21129   0.50087   0.58163   0.00000  Uiso   1.00
C905   C     0.27835   0.52665   0.91911   0.00000  Uiso   1.00
C906   C     0.00032   0.75006   0.85585   0.00000  Uiso   1.00
C907   C     0.22120   0.97403   0.08073   0.00000  Uiso   1.00
C908   C     0.46346   0.73831   0.91805   0.00000  Uiso   1.00
C909   C     0.03698   0.76026   0.08205   0.00000  Uiso   1.00
C910   C     0.22331   0.97235   0.91886   0.00000  Uiso   1.00
C911   C     0.27681   0.52781   0.08111   0.00000  Uiso   1.00
C912   C     0.03752   0.76256   0.91840   0.00000  Uiso   1.00
C913   C     0.46228   0.73841   0.08166   0.00000  Uiso   1.00
C914   C     0.00009   0.74996   0.39842   0.00000  Uiso   1.00
C915   C     0.49990   0.75000   0.60184   0.00000  Uiso   1.00
C916   C     0.25003   0.50006   0.39841   0.00000  Uiso   1.00
C917   C     0.49972   0.74991   0.14417   0.00000  Uiso   1.00
C918   C     0.25001   0.99994   0.60184   0.00000  Uiso   1.00
C919   C     0.25044   0.99988   0.89847   0.00000  Uiso   1.00
C920   C     0.24951   0.50034   0.10144   0.00000  Uiso   1.00
C921   C     0.00062   0.75008   0.89824   0.00000  Uiso   1.00
C922   C     0.49948   0.74977   0.10183   0.00000  Uiso   1.00
C923   C     0.49351   0.71180   0.45928   0.00000  Uiso   1.00
C924   C     0.00785   0.78788   0.54118   0.00000  Uiso   1.00
C925   C     0.28823   0.99365   0.45936   0.00000  Uiso   1.00
C926   C     0.21209   0.50770   0.54109   0.00000  Uiso   1.00
C927   C     0.00655   0.78814   0.45936   0.00000  Uiso   1.00
C928   C     0.25009   0.50010   0.85598   0.00000  Uiso   1.00
C929   C     0.49199   0.71212   0.54109   0.00000  Uiso   1.00
C930   C     0.21183   0.50637   0.45927   0.00000  Uiso   1.00
C931   C     0.28793   0.99217   0.54118   0.00000  Uiso   1.00
C932   C     0.21743   0.97962   0.95901   0.00000  Uiso   1.00
C933   C     0.28256   0.52081   0.04088   0.00000  Uiso   1.00
C934   C     0.03816   0.75944   0.95944   0.00000  Uiso   1.00
C935   C     0.46188   0.74144   0.04064   0.00000  Uiso   1.00
C936   C     0.28352   0.51959   0.95940   0.00000  Uiso   1.00
C937   C     0.21624   0.98116   0.04042   0.00000  Uiso   1.00
C938   C     0.46461   0.73476   0.95897   0.00000  Uiso   1.00
C939   C     0.24991   0.99993   0.14399   0.00000  Uiso   1.00
C940   C     0.03573   0.76492   0.04125   0.00000  Uiso   1.00
C941   C     0.00000   0.74998   0.47971   0.00000  Uiso   1.00
C942   C     0.49995   0.74999   0.52071   0.00000  Uiso   1.00
C943   C     0.25002   0.99999   0.47971   0.00000  Uiso   1.00
C944   C     0.25001   0.99995   0.52070   0.00000  Uiso   1.00
C945   C     0.25018   0.50000   0.97961   0.00000  Uiso   1.00
C946   C     0.24974   0.50055   0.02027   0.00000  Uiso   1.00
C947   C     0.00057   0.74919   0.97950   0.00000  Uiso   1.00
C948   C     0.49963   0.75117   0.02061   0.00000  Uiso   1.00
C949   C     0.49108   0.67374   0.48057   0.00000  Uiso   1.00
C950   C     0.16997   0.58003   0.24999   0.00000  Uiso   1.00
C951   C     0.01986   0.82412   0.52004   0.00000  Uiso   1.00
C952   C     0.32631   0.99137   0.48073   0.00000  Uiso   1.00
C953   C     0.17581   0.51954   0.51986   0.00000  Uiso   1.00
C954   C     0.00891   0.82622   0.48070   0.00000  Uiso   1.00
C955   C     0.48001   0.67588   0.51985   0.00000  Uiso   1.00
C956   C     0.17373   0.50857   0.48053   0.00000  Uiso   1.00
C957   C     0.32421   0.98034   0.52002   0.00000  Uiso   1.00
C958   C     0.17974   0.96872   0.97882   0.00000  Uiso   1.00
C959   C     0.32012   0.53202   0.02093   0.00000  Uiso   1.00
C960   C     0.07491   0.76790   0.98143   0.00000  Uiso   1.00
H961   H     0.10113   0.84216   0.34477   0.00000  Uiso   1.00
H962   H     0.10745   0.62747   0.63133   0.00000  Uiso   1.00
H963   H     0.09690   0.85215   0.84742   0.00000  Uiso   1.00
H964   H     0.08814   0.89502   0.88088   0.00000  Uiso   1.00
H965   H     0.03113   0.84226   0.88724   0.00000  Uiso   1.00
H966   H     0.06230   0.84479   0.93088   0.00000  Uiso   1.00
H967   H     0.10359   0.78187   0.90765   0.00000  Uiso   1.00
H968   H     0.07355   0.77846   0.86584   0.00000  Uiso   1.00
H969   H     0.40154   0.65283   0.15494   0.00000  Uiso   1.00
H970   H     0.37189   0.64597   0.11039   0.00000  Uiso   1.00
H971   H     0.41124   0.60793   0.12416   0.00000  Uiso   1.00
H972   H     0.43680   0.65566   0.07143   0.00000  Uiso   1.00
H973   H     0.07369   0.66608   0.57689   0.00000  Uiso   1.00
H974   H     0.46794   0.65996   0.11492   0.00000  Uiso   1.00
H975   H     0.42488   0.72494   0.13377   0.00000  Uiso   1.00
H976   H     0.39592   0.71941   0.09123   0.00000  Uiso   1.00
H977   H     0.02782   0.57388   0.47623   0.00000  Uiso   1.00
H978   H     0.09175   0.90275   0.52444   0.00000  Uiso   1.00
H979   H     0.42622   0.52837   0.47648   0.00000  Uiso   1.00
H980   H     0.09702   0.59109   0.52403   0.00000  Uiso   1.00
H981   H     0.47205   0.92604   0.47632   0.00000  Uiso   1.00
H982   H     0.40796   0.59739   0.52376   0.00000  Uiso   1.00
H983   H     0.07390   0.97137   0.47592   0.00000  Uiso   1.00
H984   H     0.07232   0.69604   0.62109   0.00000  Uiso   1.00
H985   H     0.40288   0.90866   0.52419   0.00000  Uiso   1.00
H986   H     0.10170   0.98709   0.91485   0.00000  Uiso   1.00
H987   H     0.40989   0.57411   0.05625   0.00000  Uiso   1.00
H988   H     0.14604   0.70406   0.93876   0.00000  Uiso   1.00
H989   H     0.32276   0.76245   0.01590   0.00000  Uiso   1.00
H990   H     0.39780   0.50439   0.91699   0.00000  Uiso   1.00
H991   H     0.08217   0.94242   0.05160   0.00000  Uiso   1.00
H992   H     0.36084   0.63829   0.98050   0.00000  Uiso   1.00
H993   H     0.09832   0.86602   0.07312   0.00000  Uiso   1.00
H994   H     0.49613   0.66903   0.63150   0.00000  Uiso   1.00
H995   H     0.00118   0.64207   0.58680   0.00000  Uiso   1.00
H996   H     0.15757   0.60071   0.34457   0.00000  Uiso   1.00
H997   H     0.12762   0.60867   0.38868   0.00000  Uiso   1.00
H998   H     0.16881   0.64516   0.37556   0.00000  Uiso   1.00
H999   H     0.19283   0.59718   0.42812   0.00000  Uiso   1.00
H1000  H     0.22300   0.59007   0.38453   0.00000  Uiso   1.00
H1001  H     0.10924   0.87210   0.38895   0.00000  Uiso   1.00
H1002  H     0.17454   0.52699   0.36778   0.00000  Uiso   1.00
H1003  H     0.14829   0.53628   0.41175   0.00000  Uiso   1.00
H1004  H     0.36985   0.55991   0.65933   0.00000  Uiso   1.00
H1005  H     0.40019   0.56194   0.61482   0.00000  Uiso   1.00
H1006  H     0.37235   0.60798   0.63156   0.00000  Uiso   1.00
H1007  H     0.33383   0.57406   0.57704   0.00000  Uiso   1.00
H1008  H     0.30383   0.57257   0.62115   0.00000  Uiso   1.00
H1009  H     0.33103   0.99654   0.63167   0.00000  Uiso   1.00
H1010  H     0.35800   0.50170   0.58703   0.00000  Uiso   1.00
H1011  H     0.39901   0.65753   0.34447   0.00000  Uiso   1.00
H1012  H     0.14558   0.83086   0.37573   0.00000  Uiso   1.00
H1013  H     0.39117   0.62752   0.38856   0.00000  Uiso   1.00
H1014  H     0.35463   0.66863   0.37547   0.00000  Uiso   1.00
H1015  H     0.40280   0.69265   0.42804   0.00000  Uiso   1.00
H1016  H     0.40981   0.72288   0.38448   0.00000  Uiso   1.00
H1017  H     0.47284   0.67464   0.36767   0.00000  Uiso   1.00
H1018  H     0.46370   0.64825   0.41157   0.00000  Uiso   1.00
H1019  H     0.44049   0.86984   0.65925   0.00000  Uiso   1.00
H1020  H     0.43840   0.90014   0.61471   0.00000  Uiso   1.00
H1021  H     0.39231   0.87234   0.63150   0.00000  Uiso   1.00
H1022  H     0.42598   0.83379   0.57700   0.00000  Uiso   1.00
H1023  H     0.09751   0.80695   0.42825   0.00000  Uiso   1.00
H1024  H     0.42754   0.80384   0.62115   0.00000  Uiso   1.00
H1025  H     0.00372   0.83103   0.63159   0.00000  Uiso   1.00
H1026  H     0.49845   0.85793   0.58692   0.00000  Uiso   1.00
H1027  H     0.34254   0.89934   0.34469   0.00000  Uiso   1.00
H1028  H     0.37259   0.89157   0.38884   0.00000  Uiso   1.00
H1029  H     0.33146   0.85494   0.37568   0.00000  Uiso   1.00
H1030  H     0.30743   0.90300   0.42820   0.00000  Uiso   1.00
H1031  H     0.27717   0.90995   0.38457   0.00000  Uiso   1.00
H1032  H     0.32543   0.97308   0.36786   0.00000  Uiso   1.00
H1033  H     0.35182   0.96398   0.41183   0.00000  Uiso   1.00
H1034  H     0.09024   0.77681   0.38460   0.00000  Uiso   1.00
H1035  H     0.13019   0.93994   0.65892   0.00000  Uiso   1.00
H1036  H     0.09989   0.93779   0.61430   0.00000  Uiso   1.00
H1037  H     0.12779   0.89182   0.63112   0.00000  Uiso   1.00
H1038  H     0.16631   0.92571   0.57674   0.00000  Uiso   1.00
H1039  H     0.19626   0.92731   0.62096   0.00000  Uiso   1.00
H1040  H     0.16894   0.50332   0.63143   0.00000  Uiso   1.00
H1041  H     0.14202   0.99804   0.58669   0.00000  Uiso   1.00
H1042  H     0.30771   0.65103   0.88773   0.00000  Uiso   1.00
H1043  H     0.30781   0.62457   0.84110   0.00000  Uiso   1.00
H1044  H     0.26356   0.65677   0.85515   0.00000  Uiso   1.00
H1045  H     0.02731   0.82539   0.36798   0.00000  Uiso   1.00
H1046  H     0.24578   0.58168   0.86188   0.00000  Uiso   1.00
H1047  H     0.24615   0.60704   0.90853   0.00000  Uiso   1.00
H1048  H     0.31864   0.58269   0.92031   0.00000  Uiso   1.00
H1049  H     0.32038   0.55420   0.87587   0.00000  Uiso   1.00
H1050  H     0.18918   0.87687   0.15871   0.00000  Uiso   1.00
H1051  H     0.18905   0.85034   0.11213   0.00000  Uiso   1.00
H1052  H     0.23284   0.84372   0.14499   0.00000  Uiso   1.00
H1053  H     0.25171   0.89299   0.09166   0.00000  Uiso   1.00
H1054  H     0.25226   0.91840   0.13827   0.00000  Uiso   1.00
H1055  H     0.17829   0.94739   0.12372   0.00000  Uiso   1.00
H1056  H     0.03676   0.85157   0.41202   0.00000  Uiso   1.00
H1057  H     0.17985   0.91877   0.07938   0.00000  Uiso   1.00
H1058  H     0.37359   0.77212   0.83497   0.00000  Uiso   1.00
H1059  H     0.34130   0.76913   0.87824   0.00000  Uiso   1.00
H1060  H     0.35768   0.81965   0.85962   0.00000  Uiso   1.00
H1061  H     0.40055   0.80025   0.91721   0.00000  Uiso   1.00
H1062  H     0.43218   0.80329   0.87416   0.00000  Uiso   1.00
H1063  H     0.42423   0.72199   0.86805   0.00000  Uiso   1.00
H1064  H     0.39539   0.72379   0.91151   0.00000  Uiso   1.00
H1065  H     0.15744   0.72260   0.12144   0.00000  Uiso   1.00
H1066  H     0.12487   0.72059   0.16457   0.00000  Uiso   1.00
H1067  H     0.05936   0.63007   0.65908   0.00000  Uiso   1.00
H1068  H     0.13844   0.67269   0.13935   0.00000  Uiso   1.00
H1069  H     0.06495   0.69302   0.12480   0.00000  Uiso   1.00
H1070  H     0.09682   0.69508   0.08191   0.00000  Uiso   1.00
H1071  H     0.10578   0.77084   0.08808   0.00000  Uiso   1.00
H1072  H     0.07737   0.77391   0.13190   0.00000  Uiso   1.00
H1073  H     0.20521   0.84489   0.89097   0.00000  Uiso   1.00
H1074  H     0.19882   0.86989   0.84403   0.00000  Uiso   1.00
H1075  H     0.24723   0.84300   0.85591   0.00000  Uiso   1.00
H1076  H     0.25838   0.91893   0.86078   0.00000  Uiso   1.00
H1077  H     0.26190   0.89569   0.90821   0.00000  Uiso   1.00
H1078  H     0.06125   0.59976   0.61449   0.00000  Uiso   1.00
H1079  H     0.18691   0.91384   0.92024   0.00000  Uiso   1.00
H1080  H     0.18324   0.94189   0.87553   0.00000  Uiso   1.00
H1081  H     0.30127   0.63042   0.15585   0.00000  Uiso   1.00
H1082  H     0.29442   0.65531   0.10890   0.00000  Uiso   1.00
H1083  H     0.25263   0.65700   0.14420   0.00000  Uiso   1.00
H1084  H     0.23802   0.60419   0.09198   0.00000  Uiso   1.00
H1085  H     0.24180   0.58109   0.13945   0.00000  Uiso   1.00
H1086  H     0.31684   0.55815   0.12456   0.00000  Uiso   1.00
H1087  H     0.31319   0.58634   0.07993   0.00000  Uiso   1.00
H1088  H     0.12733   0.85578   0.89185   0.00000  Uiso   1.00
O1089  O     0.25000   0.50000   0.25000   0.00000  Uiso   1.00
O1090  O     0.25000   0.96538   0.66251   0.00000  Uiso   1.00
O1091  O     0.46538   0.75000   0.33749   0.00000  Uiso   1.00
O1092  O     0.03461   0.75000   0.66251   0.00000  Uiso   1.00
O1093  O     0.00000   0.71538   0.83749   0.00000  Uiso   1.00
O1094  O     0.00000   0.78461   0.16251   0.00000  Uiso   1.00
O1095  O     0.28461   0.50000   0.83749   0.00000  Uiso   1.00
O1096  O     0.21538   0.50000   0.16251   0.00000  Uiso   1.00
O1097  O     0.00000   0.78461   0.83749   0.00000  Uiso   1.00
O1098  O     0.00000   0.71538   0.16251   0.00000  Uiso   1.00
O1099  O     0.21538   0.50000   0.83749   0.00000  Uiso   1.00
O1100  O     0.25000   0.50000   0.75000   0.00000  Uiso   1.00
O1101  O     0.28461   0.50000   0.16251   0.00000  Uiso   1.00
O1102  O     0.20126   0.58332   0.27298   0.00000  Uiso   1.00
O1103  O     0.29873   0.91668   0.72702   0.00000  Uiso   1.00
O1104  O     0.41668   0.70126   0.27298   0.00000  Uiso   1.00
O1105  O     0.08332   0.79873   0.72702   0.00000  Uiso   1.00
O1106  O     0.29873   0.91668   0.27298   0.00000  Uiso   1.00
O1107  O     0.20126   0.58332   0.72702   0.00000  Uiso   1.00
O1108  O     0.08332   0.79873   0.27298   0.00000  Uiso   1.00
O1109  O     0.41668   0.70126   0.72702   0.00000  Uiso   1.00
O1110  O     0.20126   0.91668   0.72702   0.00000  Uiso   1.00
O1111  O     0.00000   0.75000   0.25000   0.00000  Uiso   1.00
O1112  O     0.29873   0.58332   0.27298   0.00000  Uiso   1.00
O1113  O     0.41668   0.79873   0.72702   0.00000  Uiso   1.00
O1114  O     0.08332   0.70126   0.27298   0.00000  Uiso   1.00
O1115  O     0.29873   0.58332   0.72702   0.00000  Uiso   1.00
O1116  O     0.20126   0.91668   0.27298   0.00000  Uiso   1.00
O1117  O     0.08332   0.70126   0.72702   0.00000  Uiso   1.00
O1118  O     0.41668   0.79873   0.27298   0.00000  Uiso   1.00
O1119  O     0.45126   0.83332   0.77298   0.00000  Uiso   1.00
O1120  O     0.04873   0.66668   0.22702   0.00000  Uiso   1.00
O1121  O     0.16668   0.95126   0.77298   0.00000  Uiso   1.00
O1122  O     0.00000   0.75000   0.75000   0.00000  Uiso   1.00
O1123  O     0.33332   0.54873   0.22702   0.00000  Uiso   1.00
O1124  O     0.04873   0.66668   0.77298   0.00000  Uiso   1.00
O1125  O     0.45126   0.83332   0.22702   0.00000  Uiso   1.00
O1126  O     0.33332   0.54873   0.77298   0.00000  Uiso   1.00
O1127  O     0.16668   0.95126   0.22702   0.00000  Uiso   1.00
O1128  O     0.45126   0.66668   0.22702   0.00000  Uiso   1.00
O1129  O     0.04873   0.83332   0.77298   0.00000  Uiso   1.00
O1130  O     0.16668   0.54873   0.22702   0.00000  Uiso   1.00
O1131  O     0.33332   0.95126   0.77298   0.00000  Uiso   1.00
O1132  O     0.04873   0.83332   0.22702   0.00000  Uiso   1.00
O1133  O     0.25000   0.96538   0.33749   0.00000  Uiso   1.00
O1134  O     0.45126   0.66668   0.77298   0.00000  Uiso   1.00
O1135  O     0.33332   0.95126   0.22702   0.00000  Uiso   1.00
O1136  O     0.16668   0.54873   0.77298   0.00000  Uiso   1.00
O1137  O     0.03529   0.63609   0.43777   0.00000  Uiso   1.00
O1138  O     0.01101   0.59763   0.48832   0.00000  Uiso   1.00
O1139  O     0.07210   0.84507   0.56511   0.00000  Uiso   1.00
O1140  O     0.06785   0.88648   0.51183   0.00000  Uiso   1.00
O1141  O     0.36392   0.53564   0.43794   0.00000  Uiso   1.00
O1142  O     0.40246   0.51153   0.48857   0.00000  Uiso   1.00
O1143  O     0.15474   0.57167   0.56485   0.00000  Uiso   1.00
O1144  O     0.25000   0.53461   0.66251   0.00000  Uiso   1.00
O1145  O     0.11334   0.56726   0.51147   0.00000  Uiso   1.00
O1146  O     0.46495   0.86386   0.43762   0.00000  Uiso   1.00
O1147  O     0.48882   0.90229   0.48849   0.00000  Uiso   1.00
O1148  O     0.42764   0.65500   0.56464   0.00000  Uiso   1.00
O1149  O     0.43192   0.61361   0.51130   0.00000  Uiso   1.00
O1150  O     0.13614   0.96447   0.43739   0.00000  Uiso   1.00
O1151  O     0.09763   0.98822   0.48813   0.00000  Uiso   1.00
O1152  O     0.34521   0.92813   0.56493   0.00000  Uiso   1.00
O1153  O     0.38659   0.93252   0.51166   0.00000  Uiso   1.00
O1154  O     0.11811   0.93232   0.96041   0.00000  Uiso   1.00
O1155  O     0.03461   0.75000   0.33749   0.00000  Uiso   1.00
O1156  O     0.12877   0.99431   0.92905   0.00000  Uiso   1.00
O1157  O     0.37167   0.50948   0.06516   0.00000  Uiso   1.00
O1158  O     0.38345   0.57443   0.03971   0.00000  Uiso   1.00
O1159  O     0.14862   0.75881   0.98657   0.00000  Uiso   1.00
O1160  O     0.11661   0.71538   0.94337   0.00000  Uiso   1.00
O1161  O     0.38360   0.78276   0.05260   0.00000  Uiso   1.00
O1162  O     0.34793   0.74523   0.00722   0.00000  Uiso   1.00
O1163  O     0.38795   0.55849   0.96469   0.00000  Uiso   1.00
O1164  O     0.36945   0.50056   0.93004   0.00000  Uiso   1.00
O1165  O     0.13006   0.99933   0.06374   0.00000  Uiso   1.00
O1166  O     0.46538   0.75000   0.66251   0.00000  Uiso   1.00
O1167  O     0.10862   0.93839   0.03556   0.00000  Uiso   1.00
O1168  O     0.42110   0.65787   0.94273   0.00000  Uiso   1.00
O1169  O     0.37319   0.66550   0.99093   0.00000  Uiso   1.00
O1170  O     0.12288   0.83344   0.01464   0.00000  Uiso   1.00
O1171  O     0.07940   0.84141   0.06620   0.00000  Uiso   1.00
O1172  O     0.25000   0.53461   0.33749   0.00000  Uiso   1.00
Zn1173 Zn    0.20052   0.50000   0.21730   0.00000  Uiso   1.00
Zn1174 Zn    0.04947   0.75000   0.28270   0.00000  Uiso   1.00
Zn1175 Zn    0.25000   0.95052   0.71730   0.00000  Uiso   1.00
Zn1176 Zn    0.25000   0.54947   0.28270   0.00000  Uiso   1.00
Zn1177 Zn    0.04947   0.75000   0.71730   0.00000  Uiso   1.00
Zn1178 Zn    0.45052   0.75000   0.28270   0.00000  Uiso   1.00
Zn1179 Zn    0.25000   0.54947   0.71730   0.00000  Uiso   1.00
Zn1180 Zn    0.25000   0.95052   0.28270   0.00000  Uiso   1.00
Zn1181 Zn    0.29947   0.50000   0.78270   0.00000  Uiso   1.00
Zn1182 Zn    0.00000   0.70052   0.21730   0.00000  Uiso   1.00
Zn1183 Zn    0.00000   0.79947   0.78270   0.00000  Uiso   1.00
Zn1184 Zn    0.29947   0.50000   0.21730   0.00000  Uiso   1.00
Zn1185 Zn    0.20052   0.50000   0.78270   0.00000  Uiso   1.00
Zn1186 Zn    0.00000   0.79947   0.21730   0.00000  Uiso   1.00
Zn1187 Zn    0.00000   0.70052   0.78270   0.00000  Uiso   1.00
Zn1188 Zn    0.45052   0.75000   0.71730   0.00000  Uiso   1.00
C1189  C     0.75000   0.50002   0.35594   0.00000  Uiso   1.00
C1190  C     0.83004   0.91997   0.75000   0.00000  Uiso   1.00
C1191  C     0.92513   0.73356   0.01856   0.00000  Uiso   1.00
C1192  C     0.82086   0.53050   0.97981   0.00000  Uiso   1.00
C1193  C     0.67884   0.97059   0.01990   0.00000  Uiso   1.00
C1194  C     0.93005   0.71924   0.98056   0.00000  Uiso   1.00
C1195  C     0.57014   0.78105   0.01996   0.00000  Uiso   1.00
C1196  C     0.53892   0.82040   0.39804   0.00000  Uiso   1.00
C1197  C     0.58575   0.80836   0.39786   0.00000  Uiso   1.00
C1198  C     0.61195   0.84045   0.37540   0.00000  Uiso   1.00
C1199  C     0.51133   0.67068   0.60251   0.00000  Uiso   1.00
C1200  C     0.55946   0.66775   0.60633   0.00000  Uiso   1.00
C1201  C     0.91998   0.66999   0.24998   0.00000  Uiso   1.00
C1202  C     0.57255   0.62878   0.62926   0.00000  Uiso   1.00
C1203  C     0.67949   0.53858   0.39786   0.00000  Uiso   1.00
C1204  C     0.69144   0.58544   0.39772   0.00000  Uiso   1.00
C1205  C     0.65928   0.61151   0.37520   0.00000  Uiso   1.00
C1206  C     0.82934   0.51171   0.60267   0.00000  Uiso   1.00
C1207  C     0.83217   0.55983   0.60647   0.00000  Uiso   1.00
C1208  C     0.87112   0.57310   0.62950   0.00000  Uiso   1.00
C1209  C     0.96134   0.67948   0.39776   0.00000  Uiso   1.00
C1210  C     0.91446   0.69133   0.39765   0.00000  Uiso   1.00
C1211  C     0.88830   0.65916   0.37510   0.00000  Uiso   1.00
C1212  C     0.58002   0.83002   0.75002   0.00000  Uiso   1.00
C1213  C     0.98843   0.82931   0.60261   0.00000  Uiso   1.00
C1214  C     0.94031   0.83215   0.60644   0.00000  Uiso   1.00
C1215  C     0.92721   0.87110   0.62942   0.00000  Uiso   1.00
C1216  C     0.82058   0.96155   0.39794   0.00000  Uiso   1.00
C1217  C     0.80874   0.91467   0.39780   0.00000  Uiso   1.00
C1218  C     0.84092   0.88862   0.37532   0.00000  Uiso   1.00
C1219  C     0.67067   0.98810   0.60242   0.00000  Uiso   1.00
C1220  C     0.66792   0.93999   0.60620   0.00000  Uiso   1.00
C1221  C     0.62896   0.92670   0.62908   0.00000  Uiso   1.00
C1222  C     0.79908   0.56464   0.89948   0.00000  Uiso   1.00
C1223  C     0.83003   0.91999   0.25002   0.00000  Uiso   1.00
C1224  C     0.76639   0.59626   0.88415   0.00000  Uiso   1.00
C1225  C     0.78784   0.63450   0.86594   0.00000  Uiso   1.00
C1226  C     0.69960   0.93649   0.10030   0.00000  Uiso   1.00
C1227  C     0.73152   0.90423   0.11589   0.00000  Uiso   1.00
C1228  C     0.70912   0.86648   0.13402   0.00000  Uiso   1.00
C1229  C     0.92144   0.73929   0.89595   0.00000  Uiso   1.00
C1230  C     0.90715   0.78488   0.88886   0.00000  Uiso   1.00
C1231  C     0.86743   0.78639   0.86386   0.00000  Uiso   1.00
C1232  C     0.57905   0.75674   0.10384   0.00000  Uiso   1.00
C1233  C     0.59092   0.71038   0.11043   0.00000  Uiso   1.00
C1234  C     0.66997   0.58001   0.74998   0.00000  Uiso   1.00
C1235  C     0.63041   0.70647   0.13551   0.00000  Uiso   1.00
C1236  C     0.70511   0.93299   0.89929   0.00000  Uiso   1.00
C1237  C     0.73994   0.90360   0.88412   0.00000  Uiso   1.00
C1238  C     0.72149   0.86285   0.86776   0.00000  Uiso   1.00
C1239  C     0.79499   0.56711   0.10080   0.00000  Uiso   1.00
C1240  C     0.76010   0.59642   0.11602   0.00000  Uiso   1.00
C1241  C     0.77842   0.63729   0.13224   0.00000  Uiso   1.00
C1242  C     0.57151   0.78774   0.89681   0.00000  Uiso   1.00
C1243  C     0.56256   0.83514   0.89985   0.00000  Uiso   1.00
C1244  C     0.59587   0.86101   0.87860   0.00000  Uiso   1.00
C1245  C     0.58004   0.83000   0.25001   0.00000  Uiso   1.00
C1246  C     0.92765   0.71419   0.10323   0.00000  Uiso   1.00
C1247  C     0.93654   0.66668   0.10207   0.00000  Uiso   1.00
C1248  C     0.90316   0.64193   0.12434   0.00000  Uiso   1.00
C1249  C     0.51305   0.63487   0.46674   0.00000  Uiso   1.00
C1250  C     0.55398   0.85271   0.53454   0.00000  Uiso   1.00
C1251  C     0.86518   0.51345   0.46694   0.00000  Uiso   1.00
C1252  C     0.64713   0.55353   0.53428   0.00000  Uiso   1.00
C1253  C     0.98698   0.86508   0.46679   0.00000  Uiso   1.00
C1254  C     0.94581   0.64734   0.53414   0.00000  Uiso   1.00
C1255  C     0.63488   0.98650   0.46653   0.00000  Uiso   1.00
C1256  C     0.91996   0.66999   0.74999   0.00000  Uiso   1.00
C1257  C     0.85283   0.94629   0.53442   0.00000  Uiso   1.00
C1258  C     0.63995   0.96374   0.95635   0.00000  Uiso   1.00
C1259  C     0.86009   0.53726   0.04303   0.00000  Uiso   1.00
C1260  C     0.61588   0.74815   0.97056   0.00000  Uiso   1.00
C1261  C     0.88454   0.75487   0.02807   0.00000  Uiso   1.00
C1262  C     0.86173   0.53110   0.95842   0.00000  Uiso   1.00
C1263  C     0.63777   0.97087   0.04088   0.00000  Uiso   1.00
C1264  C     0.90783   0.67953   0.96943   0.00000  Uiso   1.00
C1265  C     0.59320   0.81956   0.03330   0.00000  Uiso   1.00
C1266  C     0.67000   0.91997   0.75001   0.00000  Uiso   1.00
C1267  C     0.82999   0.58005   0.24997   0.00000  Uiso   1.00
C1268  C     0.91996   0.83002   0.75000   0.00000  Uiso   1.00
C1269  C     0.75000   0.99998   0.64416   0.00000  Uiso   1.00
C1270  C     0.58006   0.66999   0.24998   0.00000  Uiso   1.00
C1271  C     0.83003   0.58001   0.75001   0.00000  Uiso   1.00
C1272  C     0.66999   0.91997   0.24996   0.00000  Uiso   1.00
C1273  C     0.57999   0.66995   0.74996   0.00000  Uiso   1.00
C1274  C     0.91999   0.83003   0.25002   0.00000  Uiso   1.00
C1275  C     0.63835   0.88832   0.24995   0.00000  Uiso   1.00
C1276  C     0.86167   0.61165   0.75001   0.00000  Uiso   1.00
C1277  C     0.61171   0.63837   0.24998   0.00000  Uiso   1.00
C1278  C     0.88833   0.86166   0.74999   0.00000  Uiso   1.00
C1279  C     0.86162   0.61171   0.24995   0.00000  Uiso   1.00
C1280  C     0.50003   0.75000   0.35594   0.00000  Uiso   1.00
C1281  C     0.63836   0.88832   0.75002   0.00000  Uiso   1.00
C1282  C     0.88834   0.86168   0.25005   0.00000  Uiso   1.00
C1283  C     0.61163   0.63830   0.74993   0.00000  Uiso   1.00
C1284  C     0.63830   0.61163   0.74994   0.00000  Uiso   1.00
C1285  C     0.86168   0.88835   0.25004   0.00000  Uiso   1.00
C1286  C     0.61167   0.86166   0.75004   0.00000  Uiso   1.00
C1287  C     0.88831   0.63836   0.24994   0.00000  Uiso   1.00
C1288  C     0.86168   0.88833   0.75000   0.00000  Uiso   1.00
C1289  C     0.63835   0.61169   0.24998   0.00000  Uiso   1.00
C1290  C     0.88832   0.63835   0.74998   0.00000  Uiso   1.00
C1291  C     0.99997   0.75001   0.64415   0.00000  Uiso   1.00
C1292  C     0.61170   0.86163   0.25000   0.00000  Uiso   1.00
C1293  C     0.51295   0.78655   0.41873   0.00000  Uiso   1.00
C1294  C     0.99877   0.71131   0.58166   0.00000  Uiso   1.00
C1295  C     0.71340   0.51276   0.41864   0.00000  Uiso   1.00
C1296  C     0.78872   0.99898   0.58174   0.00000  Uiso   1.00
C1297  C     0.98723   0.71336   0.41862   0.00000  Uiso   1.00
C1298  C     0.50101   0.78869   0.58172   0.00000  Uiso   1.00
C1299  C     0.78667   0.98734   0.41871   0.00000  Uiso   1.00
C1300  C     0.71129   0.50087   0.58163   0.00000  Uiso   1.00
C1301  C     0.77835   0.52665   0.91911   0.00000  Uiso   1.00
C1302  C     0.50032   0.75006   0.85585   0.00000  Uiso   1.00
C1303  C     0.72120   0.97403   0.08073   0.00000  Uiso   1.00
C1304  C     0.96346   0.73831   0.91805   0.00000  Uiso   1.00
C1305  C     0.53698   0.76026   0.08205   0.00000  Uiso   1.00
C1306  C     0.72331   0.97235   0.91886   0.00000  Uiso   1.00
C1307  C     0.77681   0.52781   0.08111   0.00000  Uiso   1.00
C1308  C     0.53752   0.76256   0.91840   0.00000  Uiso   1.00
C1309  C     0.96228   0.73841   0.08166   0.00000  Uiso   1.00
C1310  C     0.50009   0.74996   0.39842   0.00000  Uiso   1.00
C1311  C     0.99990   0.75000   0.60184   0.00000  Uiso   1.00
C1312  C     0.75003   0.50006   0.39841   0.00000  Uiso   1.00
C1313  C     0.99972   0.74991   0.14417   0.00000  Uiso   1.00
C1314  C     0.75001   0.99994   0.60184   0.00000  Uiso   1.00
C1315  C     0.75044   0.99988   0.89847   0.00000  Uiso   1.00
C1316  C     0.74951   0.50034   0.10144   0.00000  Uiso   1.00
C1317  C     0.50062   0.75008   0.89824   0.00000  Uiso   1.00
C1318  C     0.99948   0.74977   0.10183   0.00000  Uiso   1.00
C1319  C     0.99351   0.71180   0.45928   0.00000  Uiso   1.00
C1320  C     0.50785   0.78788   0.54118   0.00000  Uiso   1.00
C1321  C     0.78823   0.99365   0.45936   0.00000  Uiso   1.00
C1322  C     0.71209   0.50770   0.54109   0.00000  Uiso   1.00
C1323  C     0.50655   0.78814   0.45936   0.00000  Uiso   1.00
C1324  C     0.75009   0.50010   0.85598   0.00000  Uiso   1.00
C1325  C     0.99199   0.71212   0.54109   0.00000  Uiso   1.00
C1326  C     0.71183   0.50637   0.45927   0.00000  Uiso   1.00
C1327  C     0.78793   0.99217   0.54118   0.00000  Uiso   1.00
C1328  C     0.71743   0.97962   0.95901   0.00000  Uiso   1.00
C1329  C     0.78256   0.52081   0.04088   0.00000  Uiso   1.00
C1330  C     0.53816   0.75944   0.95944   0.00000  Uiso   1.00
C1331  C     0.96188   0.74144   0.04064   0.00000  Uiso   1.00
C1332  C     0.78352   0.51959   0.95940   0.00000  Uiso   1.00
C1333  C     0.71624   0.98116   0.04042   0.00000  Uiso   1.00
C1334  C     0.96461   0.73476   0.95897   0.00000  Uiso   1.00
C1335  C     0.74991   0.99993   0.14399   0.00000  Uiso   1.00
C1336  C     0.53573   0.76492   0.04125   0.00000  Uiso   1.00
C1337  C     0.50000   0.74998   0.47971   0.00000  Uiso   1.00
C1338  C     0.99995   0.74999   0.52071   0.00000  Uiso   1.00
C1339  C     0.75002   0.99999   0.47971   0.00000  Uiso   1.00
C1340  C     0.75001   0.99995   0.52070   0.00000  Uiso   1.00
C1341  C     0.75018   0.50000   0.97961   0.00000  Uiso   1.00
C1342  C     0.74974   0.50055   0.02027   0.00000  Uiso   1.00
C1343  C     0.50057   0.74919   0.97950   0.00000  Uiso   1.00
C1344  C     0.99963   0.75117   0.02061   0.00000  Uiso   1.00
C1345  C     0.99108   0.67374   0.48057   0.00000  Uiso   1.00
C1346  C     0.66997   0.58003   0.24999   0.00000  Uiso   1.00
C1347  C     0.51986   0.82412   0.52004   0.00000  Uiso   1.00
C1348  C     0.82631   0.99137   0.48073   0.00000  Uiso   1.00
C1349  C     0.67581   0.51954   0.51986   0.00000  Uiso   1.00
C1350  C     0.50891   0.82622   0.48070   0.00000  Uiso   1.00
C1351  C     0.98001   0.67588   0.51985   0.00000  Uiso   1.00
C1352  C     0.67373   0.50857   0.48053   0.00000  Uiso   1.00
C1353  C     0.82421   0.98034   0.52002   0.00000  Uiso   1.00
C1354  C     0.67974   0.96872   0.97882   0.00000  Uiso   1.00
C1355  C     0.82012   0.53202   0.02093   0.00000  Uiso   1.00
C1356  C     0.57491   0.76790   0.98143   0.00000  Uiso   1.00
H1357  H     0.60113   0.84216   0.34477   0.00000  Uiso   1.00
H1358  H     0.60745   0.62747   0.63133   0.00000  Uiso   1.00
H1359  H     0.59690   0.85215   0.84742   0.00000  Uiso   1.00
H1360  H     0.58814   0.89502   0.88088   0.00000  Uiso   1.00
H1361  H     0.53113   0.84226   0.88724   0.00000  Uiso   1.00
H1362  H     0.56230   0.84479   0.93088   0.00000  Uiso   1.00
H1363  H     0.60359   0.78187   0.90765   0.00000  Uiso   1.00
H1364  H     0.57355   0.77846   0.86584   0.00000  Uiso   1.00
H1365  H     0.90154   0.65283   0.15494   0.00000  Uiso   1.00
H1366  H     0.87189   0.64597   0.11039   0.00000  Uiso   1.00
H1367  H     0.91124   0.60793   0.12416   0.00000  Uiso   1.00
H1368  H     0.93680   0.65566   0.07143   0.00000  Uiso   1.00
H1369  H     0.57369   0.66608   0.57689   0.00000  Uiso   1.00
H1370  H     0.96794   0.65996   0.11492   0.00000  Uiso   1.00
H1371  H     0.92488   0.72494   0.13377   0.00000  Uiso   1.00
H1372  H     0.89592   0.71941   0.09123   0.00000  Uiso   1.00
H1373  H     0.52782   0.57388   0.47623   0.00000  Uiso   1.00
H1374  H     0.59175   0.90275   0.52444   0.00000  Uiso   1.00
H1375  H     0.92622   0.52837   0.47648   0.00000  Uiso   1.00
H1376  H     0.59702   0.59109   0.52403   0.00000  Uiso   1.00
H1377  H     0.97205   0.92604   0.47632   0.00000  Uiso   1.00
H1378  H     0.90796   0.59739   0.52376   0.00000  Uiso   1.00
H1379  H     0.57390   0.97137   0.47592   0.00000  Uiso   1.00
H1380  H     0.57232   0.69604   0.62109   0.00000  Uiso   1.00
H1381  H     0.90288   0.90866   0.52419   0.00000  Uiso   1.00
H1382  H     0.60170   0.98709   0.91485   0.00000  Uiso   1.00
H1383  H     0.90989   0.57411   0.05625   0.00000  Uiso   1.00
H1384  H     0.64604   0.70406   0.93876   0.00000  Uiso   1.00
H1385  H     0.82276   0.76245   0.01590   0.00000  Uiso   1.00
H1386  H     0.89780   0.50439   0.91699   0.00000  Uiso   1.00
H1387  H     0.58217   0.94242   0.05160   0.00000  Uiso   1.00
H1388  H     0.86084   0.63829   0.98050   0.00000  Uiso   1.00
H1389  H     0.59832   0.86602   0.07312   0.00000  Uiso   1.00
H1390  H     0.99613   0.66903   0.63150   0.00000  Uiso   1.00
H1391  H     0.50118   0.64207   0.58680   0.00000  Uiso   1.00
H1392  H     0.65757   0.60071   0.34457   0.00000  Uiso   1.00
H1393  H     0.62762   0.60867   0.38868   0.00000  Uiso   1.00
H1394  H     0.66881   0.64516   0.37556   0.00000  Uiso   1.00
H1395  H     0.69283   0.59718   0.42812   0.00000  Uiso   1.00
H1396  H     0.72300   0.59007   0.38453   0.00000  Uiso   1.00
H1397  H     0.60924   0.87210   0.38895   0.00000  Uiso   1.00
H1398  H     0.67454   0.52699   0.36778   0.00000  Uiso   1.00
H1399  H     0.64829   0.53628   0.41175   0.00000  Uiso   1.00
H1400  H     0.86985   0.55991   0.65933   0.00000  Uiso   1.00
H1401  H     0.90019   0.56194   0.61482   0.00000  Uiso   1.00
H1402  H     0.87235   0.60798   0.63156   0.00000  Uiso   1.00
H1403  H     0.83383   0.57406   0.57704   0.00000  Uiso   1.00
H1404  H     0.80383   0.57257   0.62115   0.00000  Uiso   1.00
H1405  H     0.83103   0.99654   0.63167   0.00000  Uiso   1.00
H1406  H     0.85800   0.50170   0.58703   0.00000  Uiso   1.00
H1407  H     0.89901   0.65753   0.34447   0.00000  Uiso   1.00
H1408  H     0.64558   0.83086   0.37573   0.00000  Uiso   1.00
H1409  H     0.89117   0.62752   0.38856   0.00000  Uiso   1.00
H1410  H     0.85463   0.66863   0.37547   0.00000  Uiso   1.00
H1411  H     0.90280   0.69265   0.42804   0.00000  Uiso   1.00
H1412  H     0.90981   0.72288   0.38448   0.00000  Uiso   1.00
H1413  H     0.97284   0.67464   0.36767   0.00000  Uiso   1.00
H1414  H     0.96370   0.64825   0.41157   0.00000  Uiso   1.00
H1415  H     0.94049   0.86984   0.65925   0.00000  Uiso   1.00
H1416  H     0.93840   0.90014   0.61471   0.00000  Uiso   1.00
H1417  H     0.89231   0.87234   0.63150   0.00000  Uiso   1.00
H1418  H     0.92598   0.83379   0.57700   0.00000  Uiso   1.00
H1419  H     0.59751   0.80695   0.42825   0.00000  Uiso   1.00
H1420  H     0.92754   0.80384   0.62115   0.00000  Uiso   1.00
H1421  H     0.50372   0.83103   0.63159   0.00000  Uiso   1.00
H1422  H     0.99845   0.85793   0.58692   0.00000  Uiso   1.00
H1423  H     0.84254   0.89934   0.34469   0.00000  Uiso   1.00
H1424  H     0.87259   0.89157   0.38884   0.00000  Uiso   1.00
H1425  H     0.83146   0.85494   0.37568   0.00000  Uiso   1.00
H1426  H     0.80743   0.90300   0.42820   0.00000  Uiso   1.00
H1427  H     0.77717   0.90995   0.38457   0.00000  Uiso   1.00
H1428  H     0.82543   0.97308   0.36786   0.00000  Uiso   1.00
H1429  H     0.85182   0.96398   0.41183   0.00000  Uiso   1.00
H1430  H     0.59024   0.77681   0.38460   0.00000  Uiso   1.00
H1431  H     0.63019   0.93994   0.65892   0.00000  Uiso   1.00
H1432  H     0.59989   0.93779   0.61430   0.00000  Uiso   1.00
H1433  H     0.62779   0.89182   0.63112   0.00000  Uiso   1.00
H1434  H     0.66631   0.92571   0.57674   0.00000  Uiso   1.00
H1435  H     0.69626   0.92731   0.62096   0.00000  Uiso   1.00
H1436  H     0.66894   0.50332   0.63143   0.00000  Uiso   1.00
H1437  H     0.64202   0.99804   0.58669   0.00000  Uiso   1.00
H1438  H     0.80771   0.65103   0.88773   0.00000  Uiso   1.00
H1439  H     0.80781   0.62457   0.84110   0.00000  Uiso   1.00
H1440  H     0.76356   0.65677   0.85515   0.00000  Uiso   1.00
H1441  H     0.52731   0.82539   0.36798   0.00000  Uiso   1.00
H1442  H     0.74578   0.58168   0.86188   0.00000  Uiso   1.00
H1443  H     0.74615   0.60704   0.90853   0.00000  Uiso   1.00
H1444  H     0.81864   0.58269   0.92031   0.00000  Uiso   1.00
H1445  H     0.82038   0.55420   0.87587   0.00000  Uiso   1.00
H1446  H     0.68918   0.87687   0.15871   0.00000  Uiso   1.00
H1447  H     0.68905   0.85034   0.11213   0.00000  Uiso   1.00
H1448  H     0.73284   0.84372   0.14499   0.00000  Uiso   1.00
H1449  H     0.75171   0.89299   0.09166   0.00000  Uiso   1.00
H1450  H     0.75226   0.91840   0.13827   0.00000  Uiso   1.00
H1451  H     0.67829   0.94739   0.12372   0.00000  Uiso   1.00
H1452  H     0.53676   0.85157   0.41202   0.00000  Uiso   1.00
H1453  H     0.67985   0.91877   0.07938   0.00000  Uiso   1.00
H1454  H     0.87359   0.77212   0.83497   0.00000  Uiso   1.00
H1455  H     0.84130   0.76913   0.87824   0.00000  Uiso   1.00
H1456  H     0.85768   0.81965   0.85962   0.00000  Uiso   1.00
H1457  H     0.90055   0.80025   0.91721   0.00000  Uiso   1.00
H1458  H     0.93218   0.80329   0.87416   0.00000  Uiso   1.00
H1459  H     0.92423   0.72199   0.86805   0.00000  Uiso   1.00
H1460  H     0.89539   0.72379   0.91151   0.00000  Uiso   1.00
H1461  H     0.65744   0.72260   0.12144   0.00000  Uiso   1.00
H1462  H     0.62487   0.72059   0.16457   0.00000  Uiso   1.00
H1463  H     0.55936   0.63007   0.65908   0.00000  Uiso   1.00
H1464  H     0.63844   0.67269   0.13935   0.00000  Uiso   1.00
H1465  H     0.56495   0.69302   0.12480   0.00000  Uiso   1.00
H1466  H     0.59682   0.69508   0.08191   0.00000  Uiso   1.00
H1467  H     0.60578   0.77084   0.08808   0.00000  Uiso   1.00
H1468  H     0.57737   0.77391   0.13190   0.00000  Uiso   1.00
H1469  H     0.70521   0.84489   0.89097   0.00000  Uiso   1.00
H1470  H     0.69882   0.86989   0.84403   0.00000  Uiso   1.00
H1471  H     0.74723   0.84300   0.85591   0.00000  Uiso   1.00
H1472  H     0.75838   0.91893   0.86078   0.00000  Uiso   1.00
H1473  H     0.76190   0.89569   0.90821   0.00000  Uiso   1.00
H1474  H     0.56125   0.59976   0.61449   0.00000  Uiso   1.00
H1475  H     0.68691   0.91384   0.92024   0.00000  Uiso   1.00
H1476  H     0.68324   0.94189   0.87553   0.00000  Uiso   1.00
H1477  H     0.80127   0.63042   0.15585   0.00000  Uiso   1.00
H1478  H     0.79442   0.65531   0.10890   0.00000  Uiso   1.00
H1479  H     0.75263   0.65700   0.14420   0.00000  Uiso   1.00
H1480  H     0.73802   0.60419   0.09198   0.00000  Uiso   1.00
H1481  H     0.74180   0.58109   0.13945   0.00000  Uiso   1.00
H1482  H     0.81684   0.55815   0.12456   0.00000  Uiso   1.00
H1483  H     0.81319   0.58634   0.07993   0.00000  Uiso   1.00
H1484  H     0.62733   0.85578   0.89185   0.00000  Uiso   1.00
O1485  O     0.75000   0.50000   0.25000   0.00000  Uiso   1.00
O1486  O     0.75000   0.96538   0.66251   0.00000  Uiso   1.00
O1487  O     0.96538   0.75000   0.33749   0.00000  Uiso   1.00
O1488  O     0.53461   0.75000   0.66251   0.00000  Uiso   1.00
O1489  O     0.50000   0.71538   0.83749   0.00000  Uiso   1.00
O1490  O     0.50000   0.78461   0.16251   0.00000  Uiso   1.00
O1491  O     0.78461   0.50000   0.83749   0.00000  Uiso   1.00
O1492  O     0.71538   0.50000   0.16251   0.00000  Uiso   1.00
O1493  O     0.50000   0.78461   0.83749   0.00000  Uiso   1.00
O1494  O     0.50000   0.71538   0.16251   0.00000  Uiso   1.00
O1495  O     0.71538   0.50000   0.83749   0.00000  Uiso   1.00
O1496  O     0.75000   0.50000   0.75000   0.00000  Uiso   1.00
O1497  O     0.78461   0.50000   0.16251   0.00000  Uiso   1.00
O1498  O     0.70126   0.58332   0.27298   0.00000  Uiso   1.00
O1499  O     0.79873   0.91668   0.72702   0.00000  Uiso   1.00
O1500  O     0.91668   0.70126   0.27298   0.00000  Uiso   1.00
O1501  O     0.58332   0.79873   0.72702   0.00000  Uiso   1.00
O1502  O     0.79873   0.91668   0.27298   0.00000  Uiso   1.00
O1503  O     0.70126   0.58332   0.72702   0.00000  Uiso   1.00
O1504  O     0.58332   0.79873   0.27298   0.00000  Uiso   1.00
O1505  O     0.91668   0.70126   0.72702   0.00000  Uiso   1.00
O1506  O     0.70126   0.91668   0.72702   0.00000  Uiso   1.00
O1507  O     0.50000   0.75000   0.25000   0.00000  Uiso   1.00
O1508  O     0.79873   0.58332   0.27298   0.00000  Uiso   1.00
O1509  O     0.91668   0.79873   0.72702   0.00000  Uiso   1.00
O1510  O     0.58332   0.70126   0.27298   0.00000  Uiso   1.00
O1511  O     0.79873   0.58332   0.72702   0.00000  Uiso   1.00
O1512  O     0.70126   0.91668   0.27298   0.00000  Uiso   1.00
O1513  O     0.58332   0.70126   0.72702   0.00000  Uiso   1.00
O1514  O     0.91668   0.79873   0.27298   0.00000  Uiso   1.00
O1515  O     0.95126   0.83332   0.77298   0.00000  Uiso   1.00
O1516  O     0.54873   0.66668   0.22702   0.00000  Uiso   1.00
O1517  O     0.66668   0.95126   0.77298   0.00000  Uiso   1.00
O1518  O     0.50000   0.75000   0.75000   0.00000  Uiso   1.00
O1519  O     0.83332   0.54873   0.22702   0.00000  Uiso   1.00
O1520  O     0.54873   0.66668   0.77298   0.00000  Uiso   1.00
O1521  O     0.95126   0.83332   0.22702   0.00000  Uiso   1.00
O1522  O     0.83332   0.54873   0.77298   0.00000  Uiso   1.00
O1523  O     0.66668   0.95126   0.22702   0.00000  Uiso   1.00
O1524  O     0.95126   0.66668   0.22702   0.00000  Uiso   1.00
O1525  O     0.54873   0.83332   0.77298   0.00000  Uiso   1.00
O1526  O     0.66668   0.54873   0.22702   0.00000  Uiso   1.00
O1527  O     0.83332   0.95126   0.77298   0.00000  Uiso   1.00
O1528  O     0.54873   0.83332   0.22702   0.00000  Uiso   1.00
O1529  O     0.75000   0.96538   0.33749   0.00000  Uiso   1.00
O1530  O     0.95126   0.66668   0.77298   0.00000  Uiso   1.00
O1531  O     0.83332   0.95126   0.22702   0.00000  Uiso   1.00
O1532  O     0.66668   0.54873   0.77298   0.00000  Uiso   1.00
O1533  O     0.53529   0.63609   0.43777   0.00000  Uiso   1.00
O1534  O     0.51101   0.59763   0.48832   0.00000  Uiso   1.00
O1535  O     0.57210   0.84507   0.56511   0.00000  Uiso   1.00
O1536  O     0.56785   0.88648   0.51183   0.00000  Uiso   1.00
O1537  O     0.86392   0.53564   0.43794   0.00000  Uiso   1.00
O1538  O     0.90246   0.51153   0.48857   0.00000  Uiso   1.00
O1539  O     0.65474   0.57167   0.56485   0.00000  Uiso   1.00
O1540  O     0.75000   0.53461   0.66251   0.00000  Uiso   1.00
O1541  O     0.61334   0.56726   0.51147   0.00000  Uiso   1.00
O1542  O     0.96495   0.86386   0.43762   0.00000  Uiso   1.00
O1543  O     0.98882   0.90229   0.48849   0.00000  Uiso   1.00
O1544  O     0.92764   0.65500   0.56464   0.00000  Uiso   1.00
O1545  O     0.93192   0.61361   0.51130   0.00000  Uiso   1.00
O1546  O     0.63614   0.96447   0.43739   0.00000  Uiso   1.00
O1547  O     0.59763   0.98822   0.48813   0.00000  Uiso   1.00
O1548  O     0.84521   0.92813   0.56493   0.00000  Uiso   1.00
O1549  O     0.88659   0.93252   0.51166   0.00000  Uiso   1.00
O1550  O     0.61811   0.93232   0.96041   0.00000  Uiso   1.00
O1551  O     0.53461   0.75000   0.33749   0.00000  Uiso   1.00
O1552  O     0.62877   0.99431   0.92905   0.00000  Uiso   1.00
O1553  O     0.87167   0.50948   0.06516   0.00000  Uiso   1.00
O1554  O     0.88345   0.57443   0.03971   0.00000  Uiso   1.00
O1555  O     0.64862   0.75881   0.98657   0.00000  Uiso   1.00
O1556  O     0.61661   0.71538   0.94337   0.00000  Uiso   1.00
O1557  O     0.88360   0.78276   0.05260   0.00000  Uiso   1.00
O1558  O     0.84793   0.74523   0.00722   0.00000  Uiso   1.00
O1559  O     0.88795   0.55849   0.96469   0.00000  Uiso   1.00
O1560  O     0.86945   0.50056   0.93004   0.00000  Uiso   1.00
O1561  O     0.63006   0.99933   0.06374   0.00000  Uiso   1.00
O1562  O     0.96538   0.75000   0.66251   0.00000  Uiso   1.00
O1563  O     0.60862   0.93839   0.03556   0.00000  Uiso   1.00
O1564  O     0.92110   0.65787   0.94273   0.00000  Uiso   1.00
O1565  O     0.87319   0.66550   0.99093   0.00000  Uiso   1.00
O1566  O     0.62288   0.83344   0.01464   0.00000  Uiso   1.00
O1567  O     0.57940   0.84141   0.06620   0.00000  Uiso   1.00
O1568  O     0.75000   0.53461   0.33749   0.00000  Uiso   1.00
Zn1569 Zn    0.70052   0.50000   0.21730   0.00000  Uiso   1.00
Zn1570 Zn    0.54947   0.75000   0.28270   0.00000  Uiso   1.00
Zn1571 Zn    0.75000   0.95052   0.71730   0.00000  Uiso   1.00
Zn1572 Zn    0.75000   0.54947   0.28270   0.00000  Uiso   1.00
Zn1573 Zn    0.54947   0.75000   0.71730   0.00000  Uiso   1.00
Zn1574 Zn    0.95052   0.75000   0.28270   0.00000  Uiso   1.00
Zn1575 Zn    0.75000   0.54947   0.71730   0.00000  Uiso   1.00
Zn1576 Zn    0.75000   0.95052   0.28270   0.00000  Uiso   1.00
Zn1577 Zn    0.79947   0.50000   0.78270   0.00000  Uiso   1.00
Zn1578 Zn    0.50000   0.70052   0.21730   0.00000  Uiso   1.00
Zn1579 Zn    0.50000   0.79947   0.78270   0.00000  Uiso   1.00
Zn1580 Zn    0.79947   0.50000   0.21730   0.00000  Uiso   1.00
Zn1581 Zn    0.70052   0.50000   0.78270   0.00000  Uiso   1.00
Zn1582 Zn    0.50000   0.79947   0.21730   0.00000  Uiso   1.00
Zn1583 Zn    0.50000   0.70052   0.78270   0.00000  Uiso   1.00
Zn1584 Zn    0.95052   0.75000   0.71730   0.00000  Uiso   1.00
loop_
_geom_bond_atom_site_label_1
_geom_bond_atom_site_label_2
_geom_bond_distance
_geom_bond_site_symmetry_2
_ccdc_geom_bond_type
C1     C124    1.464   .     S
C1     O380    1.270   .     A
C1     O1133   1.270   1_545 S
C2     O311    1.274   .     A
C2     O339    1.274   .     A
C2     C100    1.421   .     S
C3     C143    1.413   .     A
C3     C73     1.492   .     S
C3     C6      1.395   1_554 S
C4     C144    1.420   .     A
C4     C74     1.493   .     S
C4     C167    1.418   1_556 S
C5     C145    1.420   .     A
C5     C75     1.491   .     S
C5     C166    1.417   1_554 S
C6     C146    1.414   .     A
C6     C76     1.494   .     S
C6     C3      1.395   1_556 S
C7     C148    1.412   .     A
C7     C77     1.496   .     S
C7     C168    1.400   1_554 S
C8     H264    1.103   .     S
C8     C105    1.531   .     S
C8     H253    1.110   .     S
C8     C9      1.535   .     S
C9     C10     1.527   .     S
C9     H242    1.110   .     S
C9     H231    1.112   .     S
C10    H169    1.111   .     S
C10    H220    1.110   .     S
C10    H209    1.111   .     S
C11    H203    1.104   .     S
C11    C12     1.536   .     S
C11    C502    1.530   1_455 S
C11    H598    1.111   1_455 S
C12    H192    1.109   .     S
C12    H181    1.112   .     S
C12    C14     1.527   .     S
C13    O336    1.275   .     A
C13    C99     1.420   .     S
C13    O312    1.275   .     A
C14    H170    1.110   .     S
C14    H286    1.111   .     S
C14    H275    1.111   .     S
C15    H210    1.110   .     S
C15    C107    1.531   .     S
C15    C16     1.535   .     S
C15    H211    1.103   .     S
C16    H207    1.112   .     S
C16    C17     1.527   .     S
C16    H208    1.110   .     S
C17    H206    1.110   .     S
C17    H205    1.111   .     S
C17    H204    1.111   .     S
C18    H218    1.104   .     S
C18    C19     1.536   .     S
C18    C900    1.530   1_545 S
C18    H1009   1.111   1_545 S
C19    C20     1.527   .     S
C19    H215    1.112   .     S
C19    H216    1.109   .     S
C20    H212    1.111   .     S
C20    H214    1.110   .     S
C20    H213    1.111   .     S
C21    C22     1.535   .     S
C21    C109    1.531   .     S
C21    H226    1.103   .     S
C21    H225    1.110   .     S
C22    C23     1.527   .     S
C22    H224    1.110   .     S
C22    H223    1.112   .     S
C23    H219    1.111   .     S
C23    H222    1.110   .     S
C23    H221    1.111   .     S
C24    C98     1.420   .     S
C24    O313    1.275   .     A
C24    O337    1.275   .     A
C25    C26     1.536   .     S
C25    H234    1.105   .     S
C25    C506    1.530   .     S
C25    H629    1.111   .     S
C26    H230    1.112   .     S
C26    C27     1.527   .     S
C26    H232    1.109   .     S
C27    H229    1.110   .     S
C27    H227    1.111   .     S
C27    H228    1.111   .     S
C28    C111    1.531   .     S
C28    C29     1.535   .     S
C28    H240    1.110   .     S
C28    H241    1.103   .     S
C29    C30     1.527   .     S
C29    H238    1.112   .     S
C29    H239    1.110   .     S
C30    H235    1.111   .     S
C30    H237    1.110   .     S
C30    H236    1.111   .     S
C31    H249    1.104   .     S
C31    C32     1.536   .     S
C31    C904    1.530   .     S
C31    H1040   1.111   .     S
C32    H247    1.109   .     S
C32    C33     1.527   .     S
C32    H246    1.112   .     S
C33    H245    1.110   .     S
C33    H243    1.111   .     S
C33    H244    1.111   .     S
C34    H257    1.109   .     S
C34    H256    1.107   .     S
C34    C113    1.532   .     S
C34    C36     1.538   .     S
C35    O343    1.275   .     A
C35    O314    1.275   .     A
C35    C97     1.421   .     S
C36    H255    1.112   .     S
C36    H254    1.108   .     S
C36    C37     1.527   .     S
C37    H251    1.111   .     S
C37    H250    1.111   .     S
C37    H252    1.110   .     S
C38    C39     1.538   .     S
C38    H263    1.109   .     S
C38    C115    1.532   .     S
C38    H265    1.107   .     S
C39    H261    1.112   .     S
C39    C40     1.527   .     S
C39    H262    1.108   .     S
C40    H258    1.111   .     S
C40    H260    1.110   .     S
C40    H259    1.111   .     S
C41    H272    1.102   .     S
C41    H271    1.110   .     S
C41    C116    1.535   .     S
C41    C42     1.537   .     S
C42    H270    1.109   .     S
C42    C43     1.527   .     S
C42    H269    1.112   .     S
C43    H266    1.111   .     S
C43    H267    1.111   .     S
C43    H268    1.111   .     S
C44    H279    1.103   .     S
C44    H280    1.111   .     S
C44    C45     1.537   .     S
C44    C117    1.535   .     S
C45    C47     1.527   .     S
C45    H277    1.109   .     S
C45    H278    1.112   .     S
C46    C96     1.421   .     S
C46    O315    1.275   .     A
C46    O344    1.275   .     A
C47    H276    1.111   .     S
C47    H274    1.111   .     S
C47    H273    1.111   .     S
C48    H287    1.107   .     S
C48    C49     1.539   .     S
C48    H288    1.110   .     S
C48    C118    1.531   .     S
C49    H284    1.108   .     S
C49    C50     1.527   .     S
C49    H285    1.112   .     S
C50    H281    1.111   .     S
C50    H282    1.111   .     S
C50    H283    1.111   .     S
C51    C52     1.540   .     S
C51    C119    1.531   .     S
C51    H294    1.110   .     S
C51    H295    1.107   .     S
C52    C53     1.526   .     S
C52    H293    1.108   .     S
C52    H292    1.112   .     S
C53    H289    1.111   .     S
C53    H291    1.111   .     S
C53    H290    1.111   .     S
C54    H176    1.109   .     S
C54    C55     1.535   .     S
C54    H175    1.100   .     S
C54    C120    1.535   .     S
C55    H173    1.111   .     S
C55    C56     1.527   .     S
C55    H174    1.112   .     S
C56    H171    1.111   .     S
C56    H296    1.110   .     S
C56    H172    1.110   .     S
C57    C104    1.420   .     S
C57    O316    1.275   .     A
C57    O340    1.274   .     A
C58    H183    1.110   .     S
C58    H184    1.101   .     S
C58    C59     1.535   .     S
C58    C121    1.534   .     S
C59    C60     1.526   .     S
C59    H182    1.111   .     S
C59    H180    1.112   .     S
C60    H177    1.111   .     S
C60    H178    1.110   .     S
C60    H179    1.110   .     S
C61    O345    1.224   .     D
C61    O346    1.399   .     S
C61    C553    1.496   1_455 S
C62    O347    1.224   .     D
C62    O348    1.399   .     S
C62    C159    1.497   .     S
C63    O349    1.224   .     D
C63    O350    1.399   .     S
C63    C952    1.496   1_545 S
C64    C161    1.497   .     S
C64    O351    1.224   .     D
C64    O353    1.399   .     S
C65    O354    1.224   .     D
C65    O355    1.399   .     S
C65    C558    1.496   .     S
C66    O357    1.399   .     S
C66    O356    1.224   .     D
C66    C163    1.497   .     S
C67    O358    1.224   .     D
C67    O359    1.399   .     S
C67    C956    1.496   .     S
C68    O342    1.274   .     A
C68    C102    1.420   .     S
C68    O317    1.275   .     A
C69    O360    1.224   .     D
C69    C165    1.497   .     S
C69    O361    1.399   .     S
C70    C166    1.488   .     S
C70    O364    1.398   .     S
C70    O362    1.223   .     D
C71    O366    1.398   .     S
C71    C167    1.488   .     S
C71    O365    1.223   .     D
C72    C168    1.492   .     S
C72    O368    1.400   .     S
C72    O367    1.223   .     D
C73    O369    1.224   .     D
C73    O370    1.399   .     S
C74    O371    1.222   .     D
C74    O372    1.399   .     S
C75    O373    1.223   .     D
C75    O375    1.396   .     S
C76    O377    1.399   .     S
C76    O376    1.224   .     D
C77    O379    1.400   .     S
C77    O378    1.223   .     D
C78    O329    1.274   .     A
C78    C93     1.420   .     S
C78    O318    1.275   .     A
C79    C91     1.420   .     S
C79    O320    1.275   .     A
C79    O331    1.275   .     A
C80    O327    1.274   .     A
C80    O321    1.274   .     A
C80    C90     1.421   .     S
C81    C126    1.458   .     S
C81    O298    1.268   .     A
C81    O1144   1.268   .     S
C82    O322    1.274   .     A
C82    C89     1.421   .     S
C82    O328    1.274   .     A
C83    C88     1.420   .     S
C83    O334    1.275   .     A
C83    O323    1.274   .     A
C84    O324    1.274   .     A
C84    O335    1.275   .     A
C84    C87     1.420   .     S
C85    O325    1.275   .     A
C85    C95     1.421   .     S
C85    O332    1.275   .     A
C86    O326    1.275   .     A
C86    O333    1.275   .     A
C86    C94     1.422   .     S
C87    C104    1.197   .     T
C88    C102    1.197   .     T
C89    C101    1.198   .     T
C90    C100    1.198   .     T
C91    C99     1.197   .     T
C92    O363    1.269   .     A
C92    C122    1.464   .     S
C92    O695    1.269   1_455 S
C93    C98     1.197   .     T
C94    C97     1.198   .     T
C95    C96     1.198   .     T
C101   C158    1.421   .     S
C103   C123    1.458   .     S
C103   O374    1.268   .     A
C103   O696    1.268   .     S
C105   C135    1.416   .     A
C105   C122    1.415   .     A
C106   C137    1.414   .     A
C106   C123    1.412   .     A
C106   C407    1.530   .     S
C107   C124    1.415   .     A
C107   C138    1.416   .     A
C108   C126    1.412   .     A
C108   C139    1.414   .     A
C108   C810    1.530   .     S
C109   C131    1.416   .     A
C109   C518    1.415   .     S
C110   C132    1.414   .     A
C110   C421    1.530   1_455 S
C110   C519    1.412   1_455 S
C111   C133    1.416   .     A
C111   C916    1.415   .     S
C112   C134    1.414   .     A
C112   C823    1.530   1_545 S
C112   C918    1.412   1_545 S
C113   C144    1.416   .     A
C113   C919    1.417   1_545 S
C114   O301    1.269   .     A
C114   C129    1.461   .     S
C114   O305    1.267   .     A
C115   C145    1.416   .     A
C115   C920    1.418   .     S
C116   C146    1.415   .     A
C116   C525    1.414   .     S
C117   C148    1.414   .     A
C117   C526    1.412   1_455 S
C118   C140    1.415   .     A
C118   C127    1.414   .     A
C119   C128    1.416   .     A
C119   C141    1.416   .     A
C120   C129    1.416   .     A
C120   C142    1.418   .     A
C121   C130    1.415   .     A
C121   C143    1.417   .     A
C122   C505    1.415   1_455 S
C123   C506    1.412   .     S
C124   C903    1.415   1_545 S
C125   C130    1.459   .     S
C125   O698    1.270   .     S
C125   O702    1.266   .     S
C126   C904    1.412   .     S
C127   C905    1.417   .     S
C127   C928    1.464   .     S
C128   C907    1.418   1_545 S
C128   C939    1.466   1_545 S
C129   C512    1.414   1_455 S
C130   C513    1.412   .     S
C131   C157    1.416   .     A
C131   C545    1.416   .     S
C132   C159    1.415   .     A
C132   C546    1.416   1_455 S
C133   C151    1.416   .     A
C133   C160    1.416   .     A
C134   C161    1.415   .     A
C134   C944    1.416   1_545 S
C135   C149    1.416   .     A
C135   C162    1.416   .     A
C136   O303    1.268   .     A
C136   O307    1.271   .     A
C136   C919    1.464   1_545 S
C137   C163    1.414   .     A
C137   C150    1.416   .     A
C138   C164    1.416   .     A
C138   C943    1.416   1_545 S
C139   C152    1.416   .     A
C139   C165    1.414   .     A
C140   C166    1.420   .     A
C140   C945    1.414   .     S
C141   C154    1.414   .     A
C141   C167    1.422   .     A
C142   C168    1.415   .     A
C142   C155    1.417   .     A
C143   C156    1.417   .     A
C144   C153    1.412   .     A
C145   C946    1.412   .     S
C146   C551    1.417   .     S
C147   C920    1.466   .     S
C147   O1096   1.269   .     S
C147   O1101   1.272   .     S
C148   C552    1.416   1_455 S
C149   C527    1.416   1_455 S
C149   C546    1.413   1_455 S
C150   C528    1.416   .     S
C150   C545    1.413   .     S
C151   C152    1.413   .     A
C151   C930    1.416   .     S
C152   C926    1.416   .     S
C153   C932    1.414   1_545 S
C153   C154    1.401   1_556 S
C154   C937    1.412   1_545 S
C154   C153    1.401   1_554 S
C155   C542    1.417   1_455 S
C155   C552    1.418   1_456 S
C156   C544    1.416   .     S
C156   C551    1.418   1_554 S
C157   C163    1.401   .     A
C157   C457    1.496   .     S
C158   O310    1.274   .     A
C158   O338    1.274   .     A
C159   C162    1.401   .     A
C160   C165    1.401   .     A
C160   C855    1.496   .     S
C161   C164    1.401   .     A
C162   C461    1.496   1_455 S
C164   C859    1.496   1_545 S
C166   C5      1.417   1_556 S
C167   C4      1.418   1_554 S
C168   C7      1.400   1_556 S
H185   O346    1.014   .     S
H186   O348    1.014   .     S
H187   O350    1.014   .     S
H188   O353    1.014   .     S
H189   O355    1.014   .     S
H190   O357    1.014   .     S
H191   O359    1.014   .     S
H193   O361    1.014   .     S
H194   O364    1.014   .     S
H195   O366    1.013   .     S
H196   O368    1.014   .     S
H197   O370    1.014   .     S
H198   O372    1.014   .     S
H199   O375    1.014   .     S
H200   O377    1.014   .     S
H201   O379    1.013   .     S
H202   C407    1.111   .     S
H217   C810    1.111   .     S
H233   C421    1.111   1_455 S
H248   C823    1.111   1_545 S
O297   Zn384   1.932   .     S
O297   Zn392   1.934   .     S
O297   Zn381   1.931   .     S
O297   Zn1180  1.934   1_545 S
O298   Zn383   1.947   .     S
O299   Zn386   1.945   .     S
O299   C488    1.269   .     S
O300   Zn385   1.945   .     S
O300   C499    1.268   1_455 S
O301   Zn395   1.946   .     S
O302   Zn394   1.946   .     S
O302   C521    1.270   1_455 S
O303   Zn389   1.947   .     S
O304   Zn381   1.947   .     S
O304   C939    1.269   1_545 S
O305   Zn391   1.947   .     S
O306   Zn390   1.947   .     S
O306   C521    1.266   1_455 S
O307   Zn393   1.945   .     S
O308   Zn387   1.934   .     S
O308   Zn389   1.931   .     S
O308   Zn393   1.934   .     S
O308   Zn1175  1.932   1_545 S
O309   Zn392   1.945   .     S
O309   C939    1.272   1_545 S
O310   Zn384   1.914   .     S
O311   Zn383   1.914   .     S
O312   Zn386   1.912   .     S
O313   Zn385   1.912   .     S
O314   Zn388   1.914   .     S
O315   Zn387   1.914   .     S
O316   Zn382   1.913   .     S
O317   Zn396   1.913   .     S
O318   Zn383   1.912   .     S
O319   Zn394   1.934   .     S
O319   Zn390   1.932   .     S
O319   Zn382   1.931   .     S
O319   Zn782   1.934   1_455 S
O320   Zn384   1.912   .     S
O321   Zn396   1.914   .     S
O322   Zn382   1.914   .     S
O323   Zn387   1.911   .     S
O324   Zn388   1.911   .     S
O325   Zn385   1.914   .     S
O326   Zn386   1.914   .     S
O327   Zn787   1.914   .     S
O328   Zn390   1.914   .     S
O329   Zn1185  1.912   .     S
O330   Zn395   1.934   .     S
O330   Zn385   1.934   .     S
O330   Zn391   1.932   .     S
O330   Zn792   1.931   1_455 S
O331   Zn392   1.912   .     S
O332   Zn395   1.914   .     S
O333   Zn790   1.914   .     S
O334   Zn389   1.913   .     S
O335   Zn1173  1.913   .     S
O336   Zn786   1.912   .     S
O337   Zn391   1.912   .     S
O338   Zn381   1.914   .     S
O339   Zn1181  1.914   .     S
O340   Zn394   1.911   .     S
O341   Zn388   1.946   .     S
O341   C793    1.270   .     S
O342   Zn791   1.911   .     S
O343   Zn1184  1.914   .     S
O344   Zn393   1.914   .     S
O352   Zn387   1.946   .     S
O352   C873    1.268   1_545 S
O363   Zn382   1.947   .     S
O374   Zn396   1.947   .     S
O380   Zn384   1.947   .     S
Zn381  O1127   1.913   1_545 S
Zn383  O1100   1.932   .     S
Zn386  O715    1.934   .     S
Zn388  O1089   1.934   .     S
Zn389  O1131   1.914   1_545 S
Zn390  O732    1.912   1_455 S
Zn391  O723    1.914   1_455 S
Zn392  O1135   1.914   1_545 S
Zn393  O1121   1.912   1_545 S
Zn394  O729    1.914   1_455 S
Zn395  O738    1.911   1_455 S
Zn396  O726    1.931   .     S
C397   C520    1.464   .     S
C397   O776    1.270   .     A
C397   O1529   1.270   1_545 S
C398   O707    1.274   .     A
C398   O735    1.274   .     A
C398   C496    1.421   .     S
C399   C539    1.413   .     A
C399   C469    1.492   .     S
C399   C402    1.395   1_554 S
C400   C540    1.420   .     A
C400   C470    1.493   .     S
C400   C563    1.418   1_556 S
C401   C541    1.420   .     A
C401   C471    1.491   .     S
C401   C562    1.417   1_554 S
C402   C542    1.414   .     A
C402   C472    1.494   .     S
C402   C399    1.395   1_556 S
C403   C544    1.412   .     A
C403   C473    1.496   .     S
C403   C564    1.400   1_554 S
C404   H660    1.103   .     S
C404   C501    1.531   .     S
C404   H649    1.110   .     S
C404   C405    1.535   .     S
C405   C406    1.527   .     S
C405   H638    1.110   .     S
C405   H627    1.112   .     S
C406   H565    1.111   .     S
C406   H616    1.110   .     S
C406   H605    1.111   .     S
C407   H599    1.104   .     S
C407   C408    1.536   .     S
C408   H588    1.109   .     S
C408   H577    1.112   .     S
C408   C410    1.527   .     S
C409   O732    1.275   .     A
C409   C495    1.420   .     S
C409   O708    1.275   .     A
C410   H566    1.110   .     S
C410   H682    1.111   .     S
C410   H671    1.111   .     S
C411   H606    1.110   .     S
C411   C503    1.531   .     S
C411   C412    1.535   .     S
C411   H607    1.103   .     S
C412   H603    1.112   .     S
C412   C413    1.527   .     S
C412   H604    1.110   .     S
C413   H602    1.110   .     S
C413   H601    1.111   .     S
C413   H600    1.111   .     S
C414   H614    1.104   .     S
C414   C415    1.536   .     S
C414   C1296   1.530   1_545 S
C414   H1405   1.111   1_545 S
C415   C416    1.527   .     S
C415   H611    1.112   .     S
C415   H612    1.109   .     S
C416   H608    1.111   .     S
C416   H610    1.110   .     S
C416   H609    1.111   .     S
C417   C418    1.535   .     S
C417   C505    1.531   .     S
C417   H622    1.103   .     S
C417   H621    1.110   .     S
C418   C419    1.527   .     S
C418   H620    1.110   .     S
C418   H619    1.112   .     S
C419   H615    1.111   .     S
C419   H618    1.110   .     S
C419   H617    1.111   .     S
C420   C494    1.420   .     S
C420   O709    1.275   .     A
C420   O733    1.275   .     A
C421   C422    1.536   .     S
C421   H630    1.105   .     S
C421   C110    1.530   1_655 S
C421   H233    1.111   1_655 S
C422   H626    1.112   .     S
C422   C423    1.527   .     S
C422   H628    1.109   .     S
C423   H625    1.110   .     S
C423   H623    1.111   .     S
C423   H624    1.111   .     S
C424   C507    1.531   .     S
C424   C425    1.535   .     S
C424   H636    1.110   .     S
C424   H637    1.103   .     S
C425   C426    1.527   .     S
C425   H634    1.112   .     S
C425   H635    1.110   .     S
C426   H631    1.111   .     S
C426   H633    1.110   .     S
C426   H632    1.111   .     S
C427   H645    1.104   .     S
C427   C428    1.536   .     S
C427   C1300   1.530   .     S
C427   H1436   1.111   .     S
C428   H643    1.109   .     S
C428   C429    1.527   .     S
C428   H642    1.112   .     S
C429   H641    1.110   .     S
C429   H639    1.111   .     S
C429   H640    1.111   .     S
C430   H653    1.109   .     S
C430   H652    1.107   .     S
C430   C509    1.532   .     S
C430   C432    1.538   .     S
C431   O739    1.275   .     A
C431   O710    1.275   .     A
C431   C493    1.421   .     S
C432   H651    1.112   .     S
C432   H650    1.108   .     S
C432   C433    1.527   .     S
C433   H647    1.111   .     S
C433   H646    1.111   .     S
C433   H648    1.110   .     S
C434   C435    1.538   .     S
C434   H659    1.109   .     S
C434   C511    1.532   .     S
C434   H661    1.107   .     S
C435   H657    1.112   .     S
C435   C436    1.527   .     S
C435   H658    1.108   .     S
C436   H654    1.111   .     S
C436   H656    1.110   .     S
C436   H655    1.111   .     S
C437   H668    1.102   .     S
C437   H667    1.110   .     S
C437   C512    1.535   .     S
C437   C438    1.537   .     S
C438   H666    1.109   .     S
C438   C439    1.527   .     S
C438   H665    1.112   .     S
C439   H662    1.111   .     S
C439   H663    1.111   .     S
C439   H664    1.111   .     S
C440   H675    1.103   .     S
C440   H676    1.111   .     S
C440   C441    1.537   .     S
C440   C513    1.535   .     S
C441   C443    1.527   .     S
C441   H673    1.109   .     S
C441   H674    1.112   .     S
C442   C492    1.421   .     S
C442   O711    1.275   .     A
C442   O740    1.275   .     A
C443   H672    1.111   .     S
C443   H670    1.111   .     S
C443   H669    1.111   .     S
C444   H683    1.107   .     S
C444   C445    1.539   .     S
C444   H684    1.110   .     S
C444   C514    1.531   .     S
C445   H680    1.108   .     S
C445   C446    1.527   .     S
C445   H681    1.112   .     S
C446   H677    1.111   .     S
C446   H678    1.111   .     S
C446   H679    1.111   .     S
C447   C448    1.540   .     S
C447   C515    1.531   .     S
C447   H690    1.110   .     S
C447   H691    1.107   .     S
C448   C449    1.526   .     S
C448   H689    1.108   .     S
C448   H688    1.112   .     S
C449   H685    1.111   .     S
C449   H687    1.111   .     S
C449   H686    1.111   .     S
C450   H572    1.109   .     S
C450   C451    1.535   .     S
C450   H571    1.100   .     S
C450   C516    1.535   .     S
C451   H569    1.111   .     S
C451   C452    1.527   .     S
C451   H570    1.112   .     S
C452   H567    1.111   .     S
C452   H692    1.110   .     S
C452   H568    1.110   .     S
C453   C500    1.420   .     S
C453   O712    1.275   .     A
C453   O736    1.274   .     A
C454   H579    1.110   .     S
C454   H580    1.101   .     S
C454   C455    1.535   .     S
C454   C517    1.534   .     S
C455   C456    1.526   .     S
C455   H578    1.111   .     S
C455   H576    1.112   .     S
C456   H573    1.111   .     S
C456   H574    1.110   .     S
C456   H575    1.110   .     S
C457   O741    1.224   .     D
C457   O742    1.399   .     S
C458   O743    1.224   .     D
C458   O744    1.399   .     S
C458   C555    1.497   .     S
C459   O745    1.224   .     D
C459   O746    1.399   .     S
C459   C1348   1.496   1_545 S
C460   C557    1.497   .     S
C460   O747    1.224   .     D
C460   O749    1.399   .     S
C461   O750    1.224   .     D
C461   O751    1.399   .     S
C461   C162    1.496   1_655 S
C462   O753    1.399   .     S
C462   O752    1.224   .     D
C462   C559    1.497   .     S
C463   O754    1.224   .     D
C463   O755    1.399   .     S
C463   C1352   1.496   .     S
C464   O738    1.274   .     A
C464   C498    1.420   .     S
C464   O713    1.275   .     A
C465   O756    1.224   .     D
C465   C561    1.497   .     S
C465   O757    1.399   .     S
C466   C562    1.488   .     S
C466   O760    1.398   .     S
C466   O758    1.223   .     D
C467   O762    1.398   .     S
C467   C563    1.488   .     S
C467   O761    1.223   .     D
C468   C564    1.492   .     S
C468   O764    1.400   .     S
C468   O763    1.223   .     D
C469   O765    1.224   .     D
C469   O766    1.399   .     S
C470   O767    1.222   .     D
C470   O768    1.399   .     S
C471   O769    1.223   .     D
C471   O771    1.396   .     S
C472   O773    1.399   .     S
C472   O772    1.224   .     D
C473   O775    1.400   .     S
C473   O774    1.223   .     D
C474   O725    1.274   .     A
C474   C489    1.420   .     S
C474   O714    1.275   .     A
C475   C487    1.420   .     S
C475   O716    1.275   .     A
C475   O727    1.275   .     A
C476   O723    1.274   .     A
C476   O717    1.274   .     A
C476   C486    1.421   .     S
C477   C522    1.458   .     S
C477   O694    1.268   .     A
C477   O1540   1.268   .     S
C478   O718    1.274   .     A
C478   C485    1.421   .     S
C478   O724    1.274   .     A
C479   C484    1.420   .     S
C479   O730    1.275   .     A
C479   O719    1.274   .     A
C480   O720    1.274   .     A
C480   O731    1.275   .     A
C480   C483    1.420   .     S
C481   O721    1.275   .     A
C481   C491    1.421   .     S
C481   O728    1.275   .     A
C482   O722    1.275   .     A
C482   O729    1.275   .     A
C482   C490    1.422   .     S
C483   C500    1.197   .     T
C484   C498    1.197   .     T
C485   C497    1.198   .     T
C486   C496    1.198   .     T
C487   C495    1.197   .     T
C488   O759    1.269   .     A
C488   C518    1.464   .     S
C489   C494    1.197   .     T
C490   C493    1.198   .     T
C491   C492    1.198   .     T
C497   C554    1.421   .     S
C499   C519    1.458   .     S
C499   O770    1.268   .     A
C499   O300    1.268   1_655 S
C501   C531    1.416   .     A
C501   C518    1.415   .     A
C502   C533    1.414   .     A
C502   C519    1.412   .     A
C502   C11     1.530   1_655 S
C503   C520    1.415   .     A
C503   C534    1.416   .     A
C504   C522    1.412   .     A
C504   C535    1.414   .     A
C504   C1206   1.530   .     S
C505   C527    1.416   .     A
C505   C122    1.415   1_655 S
C506   C528    1.414   .     A
C507   C529    1.416   .     A
C507   C1312   1.415   .     S
C508   C530    1.414   .     A
C508   C1219   1.530   1_545 S
C508   C1314   1.412   1_545 S
C509   C540    1.416   .     A
C509   C1315   1.417   1_545 S
C510   O697    1.269   .     A
C510   C525    1.461   .     S
C510   O701    1.267   .     A
C511   C541    1.416   .     A
C511   C1316   1.418   .     S
C512   C542    1.415   .     A
C512   C129    1.414   1_655 S
C513   C544    1.414   .     A
C514   C536    1.415   .     A
C514   C523    1.414   .     A
C515   C524    1.416   .     A
C515   C537    1.416   .     A
C516   C525    1.416   .     A
C516   C538    1.418   .     A
C517   C526    1.415   .     A
C517   C539    1.417   .     A
C519   C110    1.412   1_655 S
C520   C1299   1.415   1_545 S
C521   C526    1.459   .     S
C521   O302    1.270   1_655 S
C521   O306    1.266   1_655 S
C522   C1300   1.412   .     S
C523   C1301   1.417   .     S
C523   C1324   1.464   .     S
C524   C1303   1.418   1_545 S
C524   C1335   1.466   1_545 S
C526   C117    1.412   1_655 S
C527   C553    1.416   .     A
C527   C149    1.416   1_655 S
C528   C555    1.415   .     A
C529   C547    1.416   .     A
C529   C556    1.416   .     A
C530   C557    1.415   .     A
C530   C1340   1.416   1_545 S
C531   C545    1.416   .     A
C531   C558    1.416   .     A
C532   O699    1.268   .     A
C532   O703    1.271   .     A
C532   C1315   1.464   1_545 S
C533   C559    1.414   .     A
C533   C546    1.416   .     A
C534   C560    1.416   .     A
C534   C1339   1.416   1_545 S
C535   C548    1.416   .     A
C535   C561    1.414   .     A
C536   C562    1.420   .     A
C536   C1341   1.414   .     S
C537   C550    1.414   .     A
C537   C563    1.422   .     A
C538   C564    1.415   .     A
C538   C551    1.417   .     A
C539   C552    1.417   .     A
C540   C549    1.412   .     A
C541   C1342   1.412   .     S
C542   C155    1.417   1_655 S
C543   C1316   1.466   .     S
C543   O1492   1.269   .     S
C543   O1497   1.272   .     S
C546   C132    1.416   1_655 S
C546   C149    1.413   1_655 S
C547   C548    1.413   .     A
C547   C1326   1.416   .     S
C548   C1322   1.416   .     S
C549   C1328   1.414   1_545 S
C549   C550    1.401   1_556 S
C550   C1333   1.412   1_545 S
C550   C549    1.401   1_554 S
C551   C156    1.418   1_556 S
C552   C148    1.416   1_655 S
C552   C155    1.418   1_654 S
C553   C559    1.401   .     A
C553   C61     1.496   1_655 S
C554   O706    1.274   .     A
C554   O734    1.274   .     A
C555   C558    1.401   .     A
C556   C561    1.401   .     A
C556   C1251   1.496   .     S
C557   C560    1.401   .     A
C560   C1255   1.496   1_545 S
C562   C401    1.417   1_556 S
C563   C400    1.418   1_554 S
C564   C403    1.400   1_556 S
H581   O742    1.014   .     S
H582   O744    1.014   .     S
H583   O746    1.014   .     S
H584   O749    1.014   .     S
H585   O751    1.014   .     S
H586   O753    1.014   .     S
H587   O755    1.014   .     S
H589   O757    1.014   .     S
H590   O760    1.014   .     S
H591   O762    1.013   .     S
H592   O764    1.014   .     S
H593   O766    1.014   .     S
H594   O768    1.014   .     S
H595   O771    1.014   .     S
H596   O773    1.014   .     S
H597   O775    1.013   .     S
H598   C11     1.111   1_655 S
H613   C1206   1.111   .     S
H644   C1219   1.111   1_545 S
O693   Zn780   1.932   .     S
O693   Zn788   1.934   .     S
O693   Zn777   1.931   .     S
O693   Zn1576  1.934   1_545 S
O694   Zn779   1.947   .     S
O695   Zn782   1.945   .     S
O695   C92     1.269   1_655 S
O696   Zn781   1.945   .     S
O697   Zn791   1.946   .     S
O698   Zn790   1.946   .     S
O699   Zn785   1.947   .     S
O700   Zn777   1.947   .     S
O700   C1335   1.269   1_545 S
O701   Zn787   1.947   .     S
O702   Zn786   1.947   .     S
O703   Zn789   1.945   .     S
O704   Zn783   1.934   .     S
O704   Zn785   1.931   .     S
O704   Zn789   1.934   .     S
O704   Zn1571  1.932   1_545 S
O705   Zn788   1.945   .     S
O705   C1335   1.272   1_545 S
O706   Zn780   1.914   .     S
O707   Zn779   1.914   .     S
O708   Zn782   1.912   .     S
O709   Zn781   1.912   .     S
O710   Zn784   1.914   .     S
O711   Zn783   1.914   .     S
O712   Zn778   1.913   .     S
O713   Zn792   1.913   .     S
O714   Zn779   1.912   .     S
O715   Zn790   1.934   .     S
O715   Zn786   1.932   .     S
O715   Zn778   1.931   .     S
O716   Zn780   1.912   .     S
O717   Zn792   1.914   .     S
O718   Zn778   1.914   .     S
O719   Zn783   1.911   .     S
O720   Zn784   1.911   .     S
O721   Zn781   1.914   .     S
O722   Zn782   1.914   .     S
O723   Zn391   1.914   1_655 S
O724   Zn786   1.914   .     S
O725   Zn1581  1.912   .     S
O726   Zn791   1.934   .     S
O726   Zn781   1.934   .     S
O726   Zn787   1.932   .     S
O727   Zn788   1.912   .     S
O728   Zn791   1.914   .     S
O729   Zn394   1.914   1_655 S
O730   Zn785   1.913   .     S
O731   Zn1569  1.913   .     S
O732   Zn390   1.912   1_655 S
O733   Zn787   1.912   .     S
O734   Zn777   1.914   .     S
O735   Zn1577  1.914   .     S
O736   Zn790   1.911   .     S
O737   Zn784   1.946   .     S
O737   C1189   1.270   .     S
O738   Zn395   1.911   1_655 S
O739   Zn1580  1.914   .     S
O740   Zn789   1.914   .     S
O748   Zn783   1.946   .     S
O748   C1269   1.268   1_545 S
O759   Zn778   1.947   .     S
O770   Zn792   1.947   .     S
O776   Zn780   1.947   .     S
Zn777  O1523   1.913   1_545 S
Zn779  O1496   1.932   .     S
Zn782  O319    1.934   1_655 S
Zn784  O1485   1.934   .     S
Zn785  O1527   1.914   1_545 S
Zn788  O1531   1.914   1_545 S
Zn789  O1517   1.912   1_545 S
Zn792  O330    1.931   1_655 S
C793   C916    1.464   .     S
C793   O1172   1.270   .     A
C794   O1103   1.274   .     A
C794   O1131   1.274   .     A
C794   C892    1.421   .     S
C795   C935    1.413   .     A
C795   C865    1.492   .     S
C795   C798    1.395   1_554 S
C796   C936    1.420   .     A
C796   C866    1.493   .     S
C796   C959    1.418   1_556 S
C797   C937    1.420   .     A
C797   C867    1.491   .     S
C797   C958    1.417   1_554 S
C798   C938    1.414   .     A
C798   C868    1.494   .     S
C798   C795    1.395   1_556 S
C799   C940    1.412   .     A
C799   C869    1.496   .     S
C799   C960    1.400   1_554 S
C800   H1056   1.103   .     S
C800   C897    1.531   .     S
C800   H1045   1.110   .     S
C800   C801    1.535   .     S
C801   C802    1.527   .     S
C801   H1034   1.110   .     S
C801   H1023   1.112   .     S
C802   H961    1.111   .     S
C802   H1012   1.110   .     S
C802   H1001   1.111   .     S
C803   H995    1.104   .     S
C803   C804    1.536   .     S
C803   C1294   1.530   1_455 S
C803   H1390   1.111   1_455 S
C804   H984    1.109   .     S
C804   H973    1.112   .     S
C804   C806    1.527   .     S
C805   O1128   1.275   .     A
C805   C891    1.420   .     S
C805   O1104   1.275   .     A
C806   H962    1.110   .     S
C806   H1078   1.111   .     S
C806   H1067   1.111   .     S
C807   H1002   1.110   .     S
C807   C899    1.531   .     S
C807   C808    1.535   .     S
C807   H1003   1.103   .     S
C808   H999    1.112   .     S
C808   C809    1.527   .     S
C808   H1000   1.110   .     S
C809   H998    1.110   .     S
C809   H997    1.111   .     S
C809   H996    1.111   .     S
C810   H1010   1.104   .     S
C810   C811    1.536   .     S
C811   C812    1.527   .     S
C811   H1007   1.112   .     S
C811   H1008   1.109   .     S
C812   H1004   1.111   .     S
C812   H1006   1.110   .     S
C812   H1005   1.111   .     S
C813   C814    1.535   .     S
C813   C901    1.531   .     S
C813   H1018   1.103   .     S
C813   H1017   1.110   .     S
C814   C815    1.527   .     S
C814   H1016   1.110   .     S
C814   H1015   1.112   .     S
C815   H1011   1.111   .     S
C815   H1014   1.110   .     S
C815   H1013   1.111   .     S
C816   C890    1.420   .     S
C816   O1105   1.275   .     A
C816   O1129   1.275   .     A
C817   C818    1.536   .     S
C817   H1026   1.105   .     S
C817   C1298   1.530   .     S
C817   H1421   1.111   .     S
C818   H1022   1.112   .     S
C818   C819    1.527   .     S
C818   H1024   1.109   .     S
C819   H1021   1.110   .     S
C819   H1019   1.111   .     S
C819   H1020   1.111   .     S
C820   C903    1.531   .     S
C820   C821    1.535   .     S
C820   H1032   1.110   .     S
C820   H1033   1.103   .     S
C821   C822    1.527   .     S
C821   H1030   1.112   .     S
C821   H1031   1.110   .     S
C822   H1027   1.111   .     S
C822   H1029   1.110   .     S
C822   H1028   1.111   .     S
C823   H1041   1.104   .     S
C823   C824    1.536   .     S
C823   C112    1.530   1_565 S
C823   H248    1.111   1_565 S
C824   H1039   1.109   .     S
C824   C825    1.527   .     S
C824   H1038   1.112   .     S
C825   H1037   1.110   .     S
C825   H1035   1.111   .     S
C825   H1036   1.111   .     S
C826   H1049   1.109   .     S
C826   H1048   1.107   .     S
C826   C905    1.532   .     S
C826   C828    1.538   .     S
C827   O1135   1.275   .     A
C827   O1106   1.275   .     A
C827   C889    1.421   .     S
C828   H1047   1.112   .     S
C828   H1046   1.108   .     S
C828   C829    1.527   .     S
C829   H1043   1.111   .     S
C829   H1042   1.111   .     S
C829   H1044   1.110   .     S
C830   C831    1.538   .     S
C830   H1055   1.109   .     S
C830   C907    1.532   .     S
C830   H1057   1.107   .     S
C831   H1053   1.112   .     S
C831   C832    1.527   .     S
C831   H1054   1.108   .     S
C832   H1050   1.111   .     S
C832   H1052   1.110   .     S
C832   H1051   1.111   .     S
C833   H1064   1.102   .     S
C833   H1063   1.110   .     S
C833   C908    1.535   .     S
C833   C834    1.537   .     S
C834   H1062   1.109   .     S
C834   C835    1.527   .     S
C834   H1061   1.112   .     S
C835   H1058   1.111   .     S
C835   H1059   1.111   .     S
C835   H1060   1.111   .     S
C836   H1071   1.103   .     S
C836   H1072   1.111   .     S
C836   C837    1.537   .     S
C836   C909    1.535   .     S
C837   C839    1.527   .     S
C837   H1069   1.109   .     S
C837   H1070   1.112   .     S
C838   C888    1.421   .     S
C838   O1107   1.275   .     A
C838   O1136   1.275   .     A
C839   H1068   1.111   .     S
C839   H1066   1.111   .     S
C839   H1065   1.111   .     S
C840   H1079   1.107   .     S
C840   C841    1.539   .     S
C840   H1080   1.110   .     S
C840   C910    1.531   .     S
C841   H1076   1.108   .     S
C841   C842    1.527   .     S
C841   H1077   1.112   .     S
C842   H1073   1.111   .     S
C842   H1074   1.111   .     S
C842   H1075   1.111   .     S
C843   C844    1.540   .     S
C843   C911    1.531   .     S
C843   H1086   1.110   .     S
C843   H1087   1.107   .     S
C844   C845    1.526   .     S
C844   H1085   1.108   .     S
C844   H1084   1.112   .     S
C845   H1081   1.111   .     S
C845   H1083   1.111   .     S
C845   H1082   1.111   .     S
C846   H968    1.109   .     S
C846   C847    1.535   .     S
C846   H967    1.100   .     S
C846   C912    1.535   .     S
C847   H965    1.111   .     S
C847   C848    1.527   .     S
C847   H966    1.112   .     S
C848   H963    1.111   .     S
C848   H1088   1.110   .     S
C848   H964    1.110   .     S
C849   C896    1.420   .     S
C849   O1108   1.275   .     A
C849   O1132   1.274   .     A
C850   H975    1.110   .     S
C850   H976    1.101   .     S
C850   C851    1.535   .     S
C850   C913    1.534   .     S
C851   C852    1.526   .     S
C851   H974    1.111   .     S
C851   H972    1.112   .     S
C852   H969    1.111   .     S
C852   H970    1.110   .     S
C852   H971    1.110   .     S
C853   O1137   1.224   .     D
C853   O1138   1.399   .     S
C853   C1345   1.496   1_455 S
C854   O1139   1.224   .     D
C854   O1140   1.399   .     S
C854   C951    1.497   .     S
C855   O1141   1.224   .     D
C855   O1142   1.399   .     S
C856   C953    1.497   .     S
C856   O1143   1.224   .     D
C856   O1145   1.399   .     S
C857   O1146   1.224   .     D
C857   O1147   1.399   .     S
C857   C1350   1.496   .     S
C858   O1149   1.399   .     S
C858   O1148   1.224   .     D
C858   C955    1.497   .     S
C859   O1150   1.224   .     D
C859   O1151   1.399   .     S
C859   C164    1.496   1_565 S
C860   O1134   1.274   .     A
C860   C894    1.420   .     S
C860   O1109   1.275   .     A
C861   O1152   1.224   .     D
C861   C957    1.497   .     S
C861   O1153   1.399   .     S
C862   C958    1.488   .     S
C862   O1156   1.398   .     S
C862   O1154   1.223   .     D
C863   O1158   1.398   .     S
C863   C959    1.488   .     S
C863   O1157   1.223   .     D
C864   C960    1.492   .     S
C864   O1160   1.400   .     S
C864   O1159   1.223   .     D
C865   O1161   1.224   .     D
C865   O1162   1.399   .     S
C866   O1163   1.222   .     D
C866   O1164   1.399   .     S
C867   O1165   1.223   .     D
C867   O1167   1.396   .     S
C868   O1169   1.399   .     S
C868   O1168   1.224   .     D
C869   O1171   1.400   .     S
C869   O1170   1.223   .     D
C870   O1121   1.274   .     A
C870   C885    1.420   .     S
C870   O1110   1.275   .     A
C871   C883    1.420   .     S
C871   O1112   1.275   .     A
C871   O1123   1.275   .     A
C872   O1119   1.274   .     A
C872   O1113   1.274   .     A
C872   C882    1.421   .     S
C873   C918    1.458   .     S
C873   O1090   1.268   .     A
C873   O352    1.268   1_565 S
C874   O1114   1.274   .     A
C874   C881    1.421   .     S
C874   O1120   1.274   .     A
C875   C880    1.420   .     S
C875   O1126   1.275   .     A
C875   O1115   1.274   .     A
C876   O1116   1.274   .     A
C876   O1127   1.275   .     A
C876   C879    1.420   .     S
C877   O1117   1.275   .     A
C877   C887    1.421   .     S
C877   O1124   1.275   .     A
C878   O1118   1.275   .     A
C878   O1125   1.275   .     A
C878   C886    1.422   .     S
C879   C896    1.197   .     T
C880   C894    1.197   .     T
C881   C893    1.198   .     T
C882   C892    1.198   .     T
C883   C891    1.197   .     T
C884   O1155   1.269   .     A
C884   C914    1.464   .     S
C884   O1487   1.269   1_455 S
C885   C890    1.197   .     T
C886   C889    1.198   .     T
C887   C888    1.198   .     T
C893   C950    1.421   .     S
C895   C915    1.458   .     S
C895   O1166   1.268   .     A
C895   O1488   1.268   .     S
C897   C927    1.416   .     A
C897   C914    1.415   .     A
C898   C929    1.414   .     A
C898   C915    1.412   .     A
C898   C1199   1.530   .     S
C899   C916    1.415   .     A
C899   C930    1.416   .     A
C900   C918    1.412   .     A
C900   C931    1.414   .     A
C900   C18     1.530   1_565 S
C901   C923    1.416   .     A
C901   C1310   1.415   .     S
C902   C924    1.414   .     A
C902   C1213   1.530   1_455 S
C902   C1311   1.412   1_455 S
C903   C925    1.416   .     A
C903   C124    1.415   1_565 S
C904   C926    1.414   .     A
C905   C936    1.416   .     A
C906   O1093   1.269   .     A
C906   C921    1.461   .     S
C906   O1097   1.267   .     A
C907   C937    1.416   .     A
C907   C128    1.418   1_565 S
C908   C938    1.415   .     A
C908   C1317   1.414   .     S
C909   C940    1.414   .     A
C909   C1318   1.412   1_455 S
C910   C932    1.415   .     A
C910   C919    1.414   .     A
C911   C920    1.416   .     A
C911   C933    1.416   .     A
C912   C921    1.416   .     A
C912   C934    1.418   .     A
C913   C922    1.415   .     A
C913   C935    1.417   .     A
C914   C1297   1.415   1_455 S
C915   C1298   1.412   .     S
C917   C922    1.459   .     S
C917   O1490   1.270   .     S
C917   O1494   1.266   .     S
C918   C112    1.412   1_565 S
C919   C113    1.417   1_565 S
C919   C136    1.464   1_565 S
C921   C1304   1.414   1_455 S
C922   C1305   1.412   .     S
C923   C949    1.416   .     A
C923   C1337   1.416   .     S
C924   C951    1.415   .     A
C924   C1338   1.416   1_455 S
C925   C943    1.416   .     A
C925   C952    1.416   .     A
C926   C953    1.415   .     A
C927   C941    1.416   .     A
C927   C954    1.416   .     A
C928   O1095   1.268   .     A
C928   O1099   1.271   .     A
C929   C955    1.414   .     A
C929   C942    1.416   .     A
C930   C956    1.416   .     A
C931   C944    1.416   .     A
C931   C957    1.414   .     A
C932   C958    1.420   .     A
C932   C153    1.414   1_565 S
C933   C946    1.414   .     A
C933   C959    1.422   .     A
C934   C960    1.415   .     A
C934   C947    1.417   .     A
C935   C948    1.417   .     A
C936   C945    1.412   .     A
C937   C154    1.412   1_565 S
C938   C1343   1.417   .     S
C939   C128    1.466   1_565 S
C939   O304    1.269   1_565 S
C939   O309    1.272   1_565 S
C940   C1344   1.416   1_455 S
C941   C1319   1.416   1_455 S
C941   C1338   1.413   1_455 S
C942   C1320   1.416   .     S
C942   C1337   1.413   .     S
C943   C944    1.413   .     A
C943   C138    1.416   1_565 S
C944   C134    1.416   1_565 S
C945   C946    1.401   1_556 S
C946   C945    1.401   1_554 S
C947   C1334   1.417   1_455 S
C947   C1344   1.418   1_456 S
C948   C1336   1.416   .     S
C948   C1343   1.418   1_554 S
C949   C955    1.401   .     A
C949   C1249   1.496   .     S
C950   O1102   1.274   .     A
C950   O1130   1.274   .     A
C951   C954    1.401   .     A
C952   C957    1.401   .     A
C952   C63     1.496   1_565 S
C953   C956    1.401   .     A
C954   C1253   1.496   1_455 S
C958   C797    1.417   1_556 S
C959   C796    1.418   1_554 S
C960   C799    1.400   1_556 S
H977   O1138   1.014   .     S
H978   O1140   1.014   .     S
H979   O1142   1.014   .     S
H980   O1145   1.014   .     S
H981   O1147   1.014   .     S
H982   O1149   1.014   .     S
H983   O1151   1.014   .     S
H985   O1153   1.014   .     S
H986   O1156   1.014   .     S
H987   O1158   1.013   .     S
H988   O1160   1.014   .     S
H989   O1162   1.014   .     S
H990   O1164   1.014   .     S
H991   O1167   1.014   .     S
H992   O1169   1.014   .     S
H993   O1171   1.013   .     S
H994   C1199   1.111   .     S
H1009  C18     1.111   1_565 S
H1025  C1213   1.111   1_455 S
O1089  Zn1176  1.932   .     S
O1089  Zn1184  1.934   .     S
O1089  Zn1173  1.931   .     S
O1090  Zn1175  1.947   .     S
O1091  Zn1178  1.945   .     S
O1091  C1280   1.269   .     S
O1092  Zn1177  1.945   .     S
O1092  C1291   1.268   1_455 S
O1093  Zn1187  1.946   .     S
O1094  Zn1186  1.946   .     S
O1094  C1313   1.270   1_455 S
O1095  Zn1181  1.947   .     S
O1096  Zn1173  1.947   .     S
O1097  Zn1183  1.947   .     S
O1098  Zn1182  1.947   .     S
O1098  C1313   1.266   1_455 S
O1099  Zn1185  1.945   .     S
O1100  Zn1179  1.934   .     S
O1100  Zn1181  1.931   .     S
O1100  Zn1185  1.934   .     S
O1101  Zn1184  1.945   .     S
O1102  Zn1176  1.914   .     S
O1103  Zn1175  1.914   .     S
O1104  Zn1178  1.912   .     S
O1105  Zn1177  1.912   .     S
O1106  Zn1180  1.914   .     S
O1107  Zn1179  1.914   .     S
O1108  Zn1174  1.913   .     S
O1109  Zn1188  1.913   .     S
O1110  Zn1175  1.912   .     S
O1111  Zn1186  1.934   .     S
O1111  Zn1182  1.932   .     S
O1111  Zn1174  1.931   .     S
O1111  Zn1574  1.934   1_455 S
O1112  Zn1176  1.912   .     S
O1113  Zn1188  1.914   .     S
O1114  Zn1174  1.914   .     S
O1115  Zn1179  1.911   .     S
O1116  Zn1180  1.911   .     S
O1117  Zn1177  1.914   .     S
O1118  Zn1178  1.914   .     S
O1119  Zn1579  1.914   .     S
O1120  Zn1182  1.914   .     S
O1121  Zn393   1.912   1_565 S
O1122  Zn1187  1.934   .     S
O1122  Zn1177  1.934   .     S
O1122  Zn1183  1.932   .     S
O1122  Zn1584  1.931   1_455 S
O1123  Zn1184  1.912   .     S
O1124  Zn1187  1.914   .     S
O1125  Zn1582  1.914   .     S
O1126  Zn1181  1.913   .     S
O1127  Zn381   1.913   1_565 S
O1128  Zn1578  1.912   .     S
O1129  Zn1183  1.912   .     S
O1130  Zn1173  1.914   .     S
O1131  Zn389   1.914   1_565 S
O1132  Zn1186  1.911   .     S
O1133  Zn1180  1.946   .     S
O1133  C1      1.270   1_565 S
O1134  Zn1583  1.911   .     S
O1135  Zn392   1.914   1_565 S
O1136  Zn1185  1.914   .     S
O1144  Zn1179  1.946   .     S
O1155  Zn1174  1.947   .     S
O1166  Zn1188  1.947   .     S
O1172  Zn1176  1.947   .     S
Zn1175 O308    1.932   1_565 S
Zn1178 O1507   1.934   .     S
Zn1180 O297    1.934   1_565 S
Zn1182 O1524   1.912   1_455 S
Zn1183 O1515   1.914   1_455 S
Zn1186 O1521   1.914   1_455 S
Zn1187 O1530   1.911   1_455 S
Zn1188 O1518   1.931   .     S
C1189  C1312   1.464   .     S
C1189  O1568   1.270   .     A
C1190  O1499   1.274   .     A
C1190  O1527   1.274   .     A
C1190  C1288   1.421   .     S
C1191  C1331   1.413   .     A
C1191  C1261   1.492   .     S
C1191  C1194   1.395   1_554 S
C1192  C1332   1.420   .     A
C1192  C1262   1.493   .     S
C1192  C1355   1.418   1_556 S
C1193  C1333   1.420   .     A
C1193  C1263   1.491   .     S
C1193  C1354   1.417   1_554 S
C1194  C1334   1.414   .     A
C1194  C1264   1.494   .     S
C1194  C1191   1.395   1_556 S
C1195  C1336   1.412   .     A
C1195  C1265   1.496   .     S
C1195  C1356   1.400   1_554 S
C1196  H1452   1.103   .     S
C1196  C1293   1.531   .     S
C1196  H1441   1.110   .     S
C1196  C1197   1.535   .     S
C1197  C1198   1.527   .     S
C1197  H1430   1.110   .     S
C1197  H1419   1.112   .     S
C1198  H1357   1.111   .     S
C1198  H1408   1.110   .     S
C1198  H1397   1.111   .     S
C1199  H1391   1.104   .     S
C1199  C1200   1.536   .     S
C1200  H1380   1.109   .     S
C1200  H1369   1.112   .     S
C1200  C1202   1.527   .     S
C1201  O1524   1.275   .     A
C1201  C1287   1.420   .     S
C1201  O1500   1.275   .     A
C1202  H1358   1.110   .     S
C1202  H1474   1.111   .     S
C1202  H1463   1.111   .     S
C1203  H1398   1.110   .     S
C1203  C1295   1.531   .     S
C1203  C1204   1.535   .     S
C1203  H1399   1.103   .     S
C1204  H1395   1.112   .     S
C1204  C1205   1.527   .     S
C1204  H1396   1.110   .     S
C1205  H1394   1.110   .     S
C1205  H1393   1.111   .     S
C1205  H1392   1.111   .     S
C1206  H1406   1.104   .     S
C1206  C1207   1.536   .     S
C1207  C1208   1.527   .     S
C1207  H1403   1.112   .     S
C1207  H1404   1.109   .     S
C1208  H1400   1.111   .     S
C1208  H1402   1.110   .     S
C1208  H1401   1.111   .     S
C1209  C1210   1.535   .     S
C1209  C1297   1.531   .     S
C1209  H1414   1.103   .     S
C1209  H1413   1.110   .     S
C1210  C1211   1.527   .     S
C1210  H1412   1.110   .     S
C1210  H1411   1.112   .     S
C1211  H1407   1.111   .     S
C1211  H1410   1.110   .     S
C1211  H1409   1.111   .     S
C1212  C1286   1.420   .     S
C1212  O1501   1.275   .     A
C1212  O1525   1.275   .     A
C1213  C1214   1.536   .     S
C1213  H1422   1.105   .     S
C1213  C902    1.530   1_655 S
C1213  H1025   1.111   1_655 S
C1214  H1418   1.112   .     S
C1214  C1215   1.527   .     S
C1214  H1420   1.109   .     S
C1215  H1417   1.110   .     S
C1215  H1415   1.111   .     S
C1215  H1416   1.111   .     S
C1216  C1299   1.531   .     S
C1216  C1217   1.535   .     S
C1216  H1428   1.110   .     S
C1216  H1429   1.103   .     S
C1217  C1218   1.527   .     S
C1217  H1426   1.112   .     S
C1217  H1427   1.110   .     S
C1218  H1423   1.111   .     S
C1218  H1425   1.110   .     S
C1218  H1424   1.111   .     S
C1219  H1437   1.104   .     S
C1219  C1220   1.536   .     S
C1219  C508    1.530   1_565 S
C1219  H644    1.111   1_565 S
C1220  H1435   1.109   .     S
C1220  C1221   1.527   .     S
C1220  H1434   1.112   .     S
C1221  H1433   1.110   .     S
C1221  H1431   1.111   .     S
C1221  H1432   1.111   .     S
C1222  H1445   1.109   .     S
C1222  H1444   1.107   .     S
C1222  C1301   1.532   .     S
C1222  C1224   1.538   .     S
C1223  O1531   1.275   .     A
C1223  O1502   1.275   .     A
C1223  C1285   1.421   .     S
C1224  H1443   1.112   .     S
C1224  H1442   1.108   .     S
C1224  C1225   1.527   .     S
C1225  H1439   1.111   .     S
C1225  H1438   1.111   .     S
C1225  H1440   1.110   .     S
C1226  C1227   1.538   .     S
C1226  H1451   1.109   .     S
C1226  C1303   1.532   .     S
C1226  H1453   1.107   .     S
C1227  H1449   1.112   .     S
C1227  C1228   1.527   .     S
C1227  H1450   1.108   .     S
C1228  H1446   1.111   .     S
C1228  H1448   1.110   .     S
C1228  H1447   1.111   .     S
C1229  H1460   1.102   .     S
C1229  H1459   1.110   .     S
C1229  C1304   1.535   .     S
C1229  C1230   1.537   .     S
C1230  H1458   1.109   .     S
C1230  C1231   1.527   .     S
C1230  H1457   1.112   .     S
C1231  H1454   1.111   .     S
C1231  H1455   1.111   .     S
C1231  H1456   1.111   .     S
C1232  H1467   1.103   .     S
C1232  H1468   1.111   .     S
C1232  C1233   1.537   .     S
C1232  C1305   1.535   .     S
C1233  C1235   1.527   .     S
C1233  H1465   1.109   .     S
C1233  H1466   1.112   .     S
C1234  C1284   1.421   .     S
C1234  O1503   1.275   .     A
C1234  O1532   1.275   .     A
C1235  H1464   1.111   .     S
C1235  H1462   1.111   .     S
C1235  H1461   1.111   .     S
C1236  H1475   1.107   .     S
C1236  C1237   1.539   .     S
C1236  H1476   1.110   .     S
C1236  C1306   1.531   .     S
C1237  H1472   1.108   .     S
C1237  C1238   1.527   .     S
C1237  H1473   1.112   .     S
C1238  H1469   1.111   .     S
C1238  H1470   1.111   .     S
C1238  H1471   1.111   .     S
C1239  C1240   1.540   .     S
C1239  C1307   1.531   .     S
C1239  H1482   1.110   .     S
C1239  H1483   1.107   .     S
C1240  C1241   1.526   .     S
C1240  H1481   1.108   .     S
C1240  H1480   1.112   .     S
C1241  H1477   1.111   .     S
C1241  H1479   1.111   .     S
C1241  H1478   1.111   .     S
C1242  H1364   1.109   .     S
C1242  C1243   1.535   .     S
C1242  H1363   1.100   .     S
C1242  C1308   1.535   .     S
C1243  H1361   1.111   .     S
C1243  C1244   1.527   .     S
C1243  H1362   1.112   .     S
C1244  H1359   1.111   .     S
C1244  H1484   1.110   .     S
C1244  H1360   1.110   .     S
C1245  C1292   1.420   .     S
C1245  O1504   1.275   .     A
C1245  O1528   1.274   .     A
C1246  H1371   1.110   .     S
C1246  H1372   1.101   .     S
C1246  C1247   1.535   .     S
C1246  C1309   1.534   .     S
C1247  C1248   1.526   .     S
C1247  H1370   1.111   .     S
C1247  H1368   1.112   .     S
C1248  H1365   1.111   .     S
C1248  H1366   1.110   .     S
C1248  H1367   1.110   .     S
C1249  O1533   1.224   .     D
C1249  O1534   1.399   .     S
C1250  O1535   1.224   .     D
C1250  O1536   1.399   .     S
C1250  C1347   1.497   .     S
C1251  O1537   1.224   .     D
C1251  O1538   1.399   .     S
C1252  C1349   1.497   .     S
C1252  O1539   1.224   .     D
C1252  O1541   1.399   .     S
C1253  O1542   1.224   .     D
C1253  O1543   1.399   .     S
C1253  C954    1.496   1_655 S
C1254  O1545   1.399   .     S
C1254  O1544   1.224   .     D
C1254  C1351   1.497   .     S
C1255  O1546   1.224   .     D
C1255  O1547   1.399   .     S
C1255  C560    1.496   1_565 S
C1256  O1530   1.274   .     A
C1256  C1290   1.420   .     S
C1256  O1505   1.275   .     A
C1257  O1548   1.224   .     D
C1257  C1353   1.497   .     S
C1257  O1549   1.399   .     S
C1258  C1354   1.488   .     S
C1258  O1552   1.398   .     S
C1258  O1550   1.223   .     D
C1259  O1554   1.398   .     S
C1259  C1355   1.488   .     S
C1259  O1553   1.223   .     D
C1260  C1356   1.492   .     S
C1260  O1556   1.400   .     S
C1260  O1555   1.223   .     D
C1261  O1557   1.224   .     D
C1261  O1558   1.399   .     S
C1262  O1559   1.222   .     D
C1262  O1560   1.399   .     S
C1263  O1561   1.223   .     D
C1263  O1563   1.396   .     S
C1264  O1565   1.399   .     S
C1264  O1564   1.224   .     D
C1265  O1567   1.400   .     S
C1265  O1566   1.223   .     D
C1266  O1517   1.274   .     A
C1266  C1281   1.420   .     S
C1266  O1506   1.275   .     A
C1267  C1279   1.420   .     S
C1267  O1508   1.275   .     A
C1267  O1519   1.275   .     A
C1268  O1515   1.274   .     A
C1268  O1509   1.274   .     A
C1268  C1278   1.421   .     S
C1269  C1314   1.458   .     S
C1269  O1486   1.268   .     A
C1269  O748    1.268   1_565 S
C1270  O1510   1.274   .     A
C1270  C1277   1.421   .     S
C1270  O1516   1.274   .     A
C1271  C1276   1.420   .     S
C1271  O1522   1.275   .     A
C1271  O1511   1.274   .     A
C1272  O1512   1.274   .     A
C1272  O1523   1.275   .     A
C1272  C1275   1.420   .     S
C1273  O1513   1.275   .     A
C1273  C1283   1.421   .     S
C1273  O1520   1.275   .     A
C1274  O1514   1.275   .     A
C1274  O1521   1.275   .     A
C1274  C1282   1.422   .     S
C1275  C1292   1.197   .     T
C1276  C1290   1.197   .     T
C1277  C1289   1.198   .     T
C1278  C1288   1.198   .     T
C1279  C1287   1.197   .     T
C1280  O1551   1.269   .     A
C1280  C1310   1.464   .     S
C1281  C1286   1.197   .     T
C1282  C1285   1.198   .     T
C1283  C1284   1.198   .     T
C1289  C1346   1.421   .     S
C1291  C1311   1.458   .     S
C1291  O1562   1.268   .     A
C1291  O1092   1.268   1_655 S
C1293  C1323   1.416   .     A
C1293  C1310   1.415   .     A
C1294  C1325   1.414   .     A
C1294  C1311   1.412   .     A
C1294  C803    1.530   1_655 S
C1295  C1312   1.415   .     A
C1295  C1326   1.416   .     A
C1296  C1314   1.412   .     A
C1296  C1327   1.414   .     A
C1296  C414    1.530   1_565 S
C1297  C1319   1.416   .     A
C1297  C914    1.415   1_655 S
C1298  C1320   1.414   .     A
C1299  C1321   1.416   .     A
C1299  C520    1.415   1_565 S
C1300  C1322   1.414   .     A
C1301  C1332   1.416   .     A
C1302  O1489   1.269   .     A
C1302  C1317   1.461   .     S
C1302  O1493   1.267   .     A
C1303  C1333   1.416   .     A
C1303  C524    1.418   1_565 S
C1304  C1334   1.415   .     A
C1304  C921    1.414   1_655 S
C1305  C1336   1.414   .     A
C1306  C1328   1.415   .     A
C1306  C1315   1.414   .     A
C1307  C1316   1.416   .     A
C1307  C1329   1.416   .     A
C1308  C1317   1.416   .     A
C1308  C1330   1.418   .     A
C1309  C1318   1.415   .     A
C1309  C1331   1.417   .     A
C1311  C902    1.412   1_655 S
C1313  C1318   1.459   .     S
C1313  O1094   1.270   1_655 S
C1313  O1098   1.266   1_655 S
C1314  C508    1.412   1_565 S
C1315  C509    1.417   1_565 S
C1315  C532    1.464   1_565 S
C1318  C909    1.412   1_655 S
C1319  C1345   1.416   .     A
C1319  C941    1.416   1_655 S
C1320  C1347   1.415   .     A
C1321  C1339   1.416   .     A
C1321  C1348   1.416   .     A
C1322  C1349   1.415   .     A
C1323  C1337   1.416   .     A
C1323  C1350   1.416   .     A
C1324  O1491   1.268   .     A
C1324  O1495   1.271   .     A
C1325  C1351   1.414   .     A
C1325  C1338   1.416   .     A
C1326  C1352   1.416   .     A
C1327  C1340   1.416   .     A
C1327  C1353   1.414   .     A
C1328  C1354   1.420   .     A
C1328  C549    1.414   1_565 S
C1329  C1342   1.414   .     A
C1329  C1355   1.422   .     A
C1330  C1356   1.415   .     A
C1330  C1343   1.417   .     A
C1331  C1344   1.417   .     A
C1332  C1341   1.412   .     A
C1333  C550    1.412   1_565 S
C1334  C947    1.417   1_655 S
C1335  C524    1.466   1_565 S
C1335  O700    1.269   1_565 S
C1335  O705    1.272   1_565 S
C1338  C924    1.416   1_655 S
C1338  C941    1.413   1_655 S
C1339  C1340   1.413   .     A
C1339  C534    1.416   1_565 S
C1340  C530    1.416   1_565 S
C1341  C1342   1.401   1_556 S
C1342  C1341   1.401   1_554 S
C1343  C948    1.418   1_556 S
C1344  C940    1.416   1_655 S
C1344  C947    1.418   1_654 S
C1345  C1351   1.401   .     A
C1345  C853    1.496   1_655 S
C1346  O1498   1.274   .     A
C1346  O1526   1.274   .     A
C1347  C1350   1.401   .     A
C1348  C1353   1.401   .     A
C1348  C459    1.496   1_565 S
C1349  C1352   1.401   .     A
C1354  C1193   1.417   1_556 S
C1355  C1192   1.418   1_554 S
C1356  C1195   1.400   1_556 S
H1373  O1534   1.014   .     S
H1374  O1536   1.014   .     S
H1375  O1538   1.014   .     S
H1376  O1541   1.014   .     S
H1377  O1543   1.014   .     S
H1378  O1545   1.014   .     S
H1379  O1547   1.014   .     S
H1381  O1549   1.014   .     S
H1382  O1552   1.014   .     S
H1383  O1554   1.013   .     S
H1384  O1556   1.014   .     S
H1385  O1558   1.014   .     S
H1386  O1560   1.014   .     S
H1387  O1563   1.014   .     S
H1388  O1565   1.014   .     S
H1389  O1567   1.013   .     S
H1390  C803    1.111   1_655 S
H1405  C414    1.111   1_565 S
O1485  Zn1572  1.932   .     S
O1485  Zn1580  1.934   .     S
O1485  Zn1569  1.931   .     S
O1486  Zn1571  1.947   .     S
O1487  Zn1574  1.945   .     S
O1487  C884    1.269   1_655 S
O1488  Zn1573  1.945   .     S
O1489  Zn1583  1.946   .     S
O1490  Zn1582  1.946   .     S
O1491  Zn1577  1.947   .     S
O1492  Zn1569  1.947   .     S
O1493  Zn1579  1.947   .     S
O1494  Zn1578  1.947   .     S
O1495  Zn1581  1.945   .     S
O1496  Zn1575  1.934   .     S
O1496  Zn1577  1.931   .     S
O1496  Zn1581  1.934   .     S
O1497  Zn1580  1.945   .     S
O1498  Zn1572  1.914   .     S
O1499  Zn1571  1.914   .     S
O1500  Zn1574  1.912   .     S
O1501  Zn1573  1.912   .     S
O1502  Zn1576  1.914   .     S
O1503  Zn1575  1.914   .     S
O1504  Zn1570  1.913   .     S
O1505  Zn1584  1.913   .     S
O1506  Zn1571  1.912   .     S
O1507  Zn1582  1.934   .     S
O1507  Zn1578  1.932   .     S
O1507  Zn1570  1.931   .     S
O1508  Zn1572  1.912   .     S
O1509  Zn1584  1.914   .     S
O1510  Zn1570  1.914   .     S
O1511  Zn1575  1.911   .     S
O1512  Zn1576  1.911   .     S
O1513  Zn1573  1.914   .     S
O1514  Zn1574  1.914   .     S
O1515  Zn1183  1.914   1_655 S
O1516  Zn1578  1.914   .     S
O1517  Zn789   1.912   1_565 S
O1518  Zn1583  1.934   .     S
O1518  Zn1573  1.934   .     S
O1518  Zn1579  1.932   .     S
O1519  Zn1580  1.912   .     S
O1520  Zn1583  1.914   .     S
O1521  Zn1186  1.914   1_655 S
O1522  Zn1577  1.913   .     S
O1523  Zn777   1.913   1_565 S
O1524  Zn1182  1.912   1_655 S
O1525  Zn1579  1.912   .     S
O1526  Zn1569  1.914   .     S
O1527  Zn785   1.914   1_565 S
O1528  Zn1582  1.911   .     S
O1529  Zn1576  1.946   .     S
O1529  C397    1.270   1_565 S
O1530  Zn1187  1.911   1_655 S
O1531  Zn788   1.914   1_565 S
O1532  Zn1581  1.914   .     S
O1540  Zn1575  1.946   .     S
O1551  Zn1570  1.947   .     S
O1562  Zn1584  1.947   .     S
O1568  Zn1572  1.947   .     S
Zn1571 O704    1.932   1_565 S
Zn1574 O1111   1.934   1_655 S
Zn1576 O693    1.934   1_565 S
Zn1584 O1122   1.931   1_655 S
