data_str_m2_o1_o18_pcu_sym.201
_audit_creation_date              2020-01-03
_audit_creation_method            'Materials Studio'
_symmetry_space_group_name_H-M    'P1'
_symmetry_Int_Tables_number       1
_symmetry_cell_setting            triclinic
loop_
_symmetry_equiv_pos_as_xyz
  x,y,z
_cell_length_a                    28.9010
_cell_length_b                    32.4435
_cell_length_c                    30.9892
_cell_angle_alpha                 88.5213
_cell_angle_beta                  71.2646
_cell_angle_gamma                 89.3154
loop_
_atom_site_label
_atom_site_type_symbol
_atom_site_fract_x
_atom_site_fract_y
_atom_site_fract_z
_atom_site_U_iso_or_equiv
_atom_site_adp_type
_atom_site_occupancy
C1     C     0.00009   0.08750   0.25025   0.00000  Uiso   1.00
C2     C     0.33324   0.24583   0.24975   0.00000  Uiso   1.00
C3     C     0.19693   0.21095   0.04773   0.00000  Uiso   1.00
C4     C     0.14364   0.22800   0.45534   0.00000  Uiso   1.00
C5     C     0.23647   0.18564   0.02725   0.00000  Uiso   1.00
C6     C     0.09678   0.21234   0.47514   0.00000  Uiso   1.00
C7     C     0.28989   0.02127   0.27134   0.00000  Uiso   1.00
C8     C     0.04344   0.31204   0.22869   0.00000  Uiso   1.00
C9     C     0.28968   0.31192   0.27087   0.00000  Uiso   1.00
C10    C     0.04365   0.02138   0.22920   0.00000  Uiso   1.00
C11    C     0.33312   0.29049   0.24957   0.00000  Uiso   1.00
C12    C     0.00020   0.04283   0.25046   0.00000  Uiso   1.00
C13    C     0.18075   0.14625   0.28324   0.00000  Uiso   1.00
C14    C     0.15260   0.18719   0.21686   0.00000  Uiso   1.00
C15    C     0.13172   0.14556   0.28325   0.00000  Uiso   1.00
C16    C     0.20167   0.18773   0.21671   0.00000  Uiso   1.00
C17    C     0.30466   0.16726   0.33630   0.00000  Uiso   1.00
C18    C     0.02867   0.16822   0.16357   0.00000  Uiso   1.00
C19    C     0.28545   0.16981   0.38636   0.00000  Uiso   1.00
C20    C     0.04780   0.17518   0.11350   0.00000  Uiso   1.00
C21    C     0.28084   0.14389   0.46156   0.00000  Uiso   1.00
C22    C     0.04308   0.16982   0.03687   0.00000  Uiso   1.00
C23    C     0.30270   0.14305   0.41395   0.00000  Uiso   1.00
C24    C     0.02581   0.15813   0.08349   0.00000  Uiso   1.00
C25    C     0.24504   0.19572   0.40600   0.00000  Uiso   1.00
C26    C     0.09039   0.19916   0.09547   0.00000  Uiso   1.00
C27    C     0.22456   0.19880   0.45398   0.00000  Uiso   1.00
C28    C     0.11111   0.20675   0.04806   0.00000  Uiso   1.00
C29    C     0.24749   0.17585   0.48115   0.00000  Uiso   1.00
C30    C     0.08254   0.19706   0.02030   0.00000  Uiso   1.00
C31    C     0.17884   0.21875   0.47708   0.00000  Uiso   1.00
C32    C     0.16146   0.21698   0.02573   0.00000  Uiso   1.00
Cu33   Cu    0.04689   0.16667   0.25000   0.00000  Uiso   1.00
Cu34   Cu    0.28645   0.16666   0.25000   0.00000  Uiso   1.00
H35    H     0.19061   0.12954   0.30971   0.00000  Uiso   1.00
H36    H     0.14276   0.20410   0.19058   0.00000  Uiso   1.00
N37    N     0.11736   0.16668   0.24999   0.00000  Uiso   1.00
N38    N     0.21597   0.16666   0.25001   0.00000  Uiso   1.00
O39    O     0.03958   0.10655   0.25000   0.00000  Uiso   1.00
O40    O     0.29375   0.22678   0.25000   0.00000  Uiso   1.00
O41    O     0.29372   0.10654   0.25001   0.00000  Uiso   1.00
O42    O     0.03961   0.22679   0.25000   0.00000  Uiso   1.00
O43    O     0.01852   0.16668   0.31492   0.00000  Uiso   1.00
O44    O     0.31481   0.16666   0.18509   0.00000  Uiso   1.00
O45    O     0.27267   0.16667   0.31492   0.00000  Uiso   1.00
O46    O     0.06067   0.16667   0.18508   0.00000  Uiso   1.00
F47    F     0.26593   0.17343   0.05149   0.00000  Uiso   1.00
F48    F     0.06485   0.21360   0.45112   0.00000  Uiso   1.00
F49    F     0.10872   0.21750   0.12508   0.00000  Uiso   1.00
F50    F     0.22787   0.21841   0.37718   0.00000  Uiso   1.00
O51    O     0.32138   0.13004   0.09794   0.00000  Uiso   1.00
H52    H     0.32253   0.11588   0.12624   0.00000  Uiso   1.00
O53    O     0.00469   0.11426   0.39336   0.00000  Uiso   1.00
H54    H     0.01631   0.10011   0.41668   0.00000  Uiso   1.00
O55    O     0.28758   0.11023   0.48710   0.00000  Uiso   1.00
H56    H     0.26033   0.10876   0.01629   0.00000  Uiso   1.00
O57    O     0.02700   0.15021   0.00563   0.00000  Uiso   1.00
H58    H     0.01900   0.12150   0.01701   0.00000  Uiso   1.00
O59    O     0.19578   0.23047   0.08694   0.00000  Uiso   1.00
H60    H     0.17740   0.25664   0.08779   0.00000  Uiso   1.00
O61    O     0.15218   0.25402   0.41785   0.00000  Uiso   1.00
H62    H     0.17974   0.27222   0.41734   0.00000  Uiso   1.00
F63    F     0.24768   0.04140   0.29320   0.00000  Uiso   1.00
F64    F     0.08563   0.29191   0.20677   0.00000  Uiso   1.00
F65    F     0.24738   0.29162   0.29237   0.00000  Uiso   1.00
F66    F     0.08598   0.04168   0.20777   0.00000  Uiso   1.00
O67    O     0.09973   0.12285   0.31781   0.00000  Uiso   1.00
H68    H     0.07467   0.11175   0.30624   0.00000  Uiso   1.00
O69    O     0.23379   0.21018   0.18193   0.00000  Uiso   1.00
H70    H     0.25887   0.22141   0.19339   0.00000  Uiso   1.00
C71    C     0.33342   0.08750   0.25025   0.00000  Uiso   1.00
C72    C     0.66658   0.24583   0.24975   0.00000  Uiso   1.00
C73    C     0.53026   0.21095   0.04773   0.00000  Uiso   1.00
C74    C     0.47697   0.22800   0.45534   0.00000  Uiso   1.00
C75    C     0.56980   0.18564   0.02725   0.00000  Uiso   1.00
C76    C     0.43011   0.21234   0.47514   0.00000  Uiso   1.00
C77    C     0.62322   0.02127   0.27134   0.00000  Uiso   1.00
C78    C     0.37677   0.31204   0.22869   0.00000  Uiso   1.00
C79    C     0.62302   0.31192   0.27087   0.00000  Uiso   1.00
C80    C     0.37698   0.02138   0.22920   0.00000  Uiso   1.00
C81    C     0.66646   0.29049   0.24957   0.00000  Uiso   1.00
C82    C     0.33354   0.04283   0.25046   0.00000  Uiso   1.00
C83    C     0.51408   0.14625   0.28324   0.00000  Uiso   1.00
C84    C     0.48593   0.18719   0.21686   0.00000  Uiso   1.00
C85    C     0.46505   0.14556   0.28325   0.00000  Uiso   1.00
C86    C     0.53501   0.18773   0.21671   0.00000  Uiso   1.00
C87    C     0.63800   0.16726   0.33630   0.00000  Uiso   1.00
C88    C     0.36201   0.16822   0.16357   0.00000  Uiso   1.00
C89    C     0.61878   0.16981   0.38636   0.00000  Uiso   1.00
C90    C     0.38113   0.17518   0.11350   0.00000  Uiso   1.00
C91    C     0.61417   0.14389   0.46156   0.00000  Uiso   1.00
C92    C     0.37641   0.16982   0.03687   0.00000  Uiso   1.00
C93    C     0.63603   0.14305   0.41395   0.00000  Uiso   1.00
C94    C     0.35914   0.15813   0.08349   0.00000  Uiso   1.00
C95    C     0.57838   0.19572   0.40600   0.00000  Uiso   1.00
C96    C     0.42373   0.19916   0.09547   0.00000  Uiso   1.00
C97    C     0.55789   0.19880   0.45398   0.00000  Uiso   1.00
C98    C     0.44444   0.20675   0.04806   0.00000  Uiso   1.00
C99    C     0.58082   0.17585   0.48115   0.00000  Uiso   1.00
C100   C     0.41587   0.19706   0.02030   0.00000  Uiso   1.00
C101   C     0.51218   0.21875   0.47708   0.00000  Uiso   1.00
C102   C     0.49479   0.21698   0.02573   0.00000  Uiso   1.00
Cu103  Cu    0.38022   0.16667   0.25000   0.00000  Uiso   1.00
Cu104  Cu    0.61978   0.16666   0.25000   0.00000  Uiso   1.00
H105   H     0.52394   0.12954   0.30971   0.00000  Uiso   1.00
H106   H     0.47609   0.20410   0.19058   0.00000  Uiso   1.00
N107   N     0.45069   0.16668   0.24999   0.00000  Uiso   1.00
N108   N     0.54931   0.16666   0.25001   0.00000  Uiso   1.00
O109   O     0.37291   0.10655   0.25000   0.00000  Uiso   1.00
O110   O     0.62709   0.22678   0.25000   0.00000  Uiso   1.00
O111   O     0.62706   0.10654   0.25001   0.00000  Uiso   1.00
O112   O     0.37294   0.22679   0.25000   0.00000  Uiso   1.00
O113   O     0.35186   0.16668   0.31492   0.00000  Uiso   1.00
O114   O     0.64814   0.16666   0.18509   0.00000  Uiso   1.00
O115   O     0.60600   0.16667   0.31492   0.00000  Uiso   1.00
O116   O     0.39400   0.16667   0.18508   0.00000  Uiso   1.00
F117   F     0.59927   0.17343   0.05149   0.00000  Uiso   1.00
F118   F     0.39818   0.21360   0.45112   0.00000  Uiso   1.00
F119   F     0.44206   0.21750   0.12508   0.00000  Uiso   1.00
F120   F     0.56121   0.21841   0.37718   0.00000  Uiso   1.00
O121   O     0.65472   0.13004   0.09794   0.00000  Uiso   1.00
H122   H     0.65587   0.11588   0.12624   0.00000  Uiso   1.00
O123   O     0.33802   0.11426   0.39336   0.00000  Uiso   1.00
H124   H     0.34964   0.10011   0.41668   0.00000  Uiso   1.00
O125   O     0.62092   0.11023   0.48710   0.00000  Uiso   1.00
H126   H     0.59367   0.10876   0.01629   0.00000  Uiso   1.00
O127   O     0.36033   0.15021   0.00563   0.00000  Uiso   1.00
H128   H     0.35233   0.12150   0.01701   0.00000  Uiso   1.00
O129   O     0.52911   0.23047   0.08694   0.00000  Uiso   1.00
H130   H     0.51074   0.25664   0.08779   0.00000  Uiso   1.00
O131   O     0.48552   0.25402   0.41785   0.00000  Uiso   1.00
H132   H     0.51307   0.27222   0.41734   0.00000  Uiso   1.00
F133   F     0.58102   0.04140   0.29320   0.00000  Uiso   1.00
F134   F     0.41896   0.29191   0.20677   0.00000  Uiso   1.00
F135   F     0.58071   0.29162   0.29237   0.00000  Uiso   1.00
F136   F     0.41931   0.04168   0.20777   0.00000  Uiso   1.00
O137   O     0.43306   0.12285   0.31781   0.00000  Uiso   1.00
H138   H     0.40801   0.11175   0.30624   0.00000  Uiso   1.00
O139   O     0.56713   0.21018   0.18193   0.00000  Uiso   1.00
H140   H     0.59220   0.22141   0.19339   0.00000  Uiso   1.00
C141   C     0.66675   0.08750   0.25025   0.00000  Uiso   1.00
C142   C     0.99991   0.24583   0.24975   0.00000  Uiso   1.00
C143   C     0.86360   0.21095   0.04773   0.00000  Uiso   1.00
C144   C     0.81030   0.22800   0.45534   0.00000  Uiso   1.00
C145   C     0.90313   0.18564   0.02725   0.00000  Uiso   1.00
C146   C     0.76345   0.21234   0.47514   0.00000  Uiso   1.00
C147   C     0.95655   0.02127   0.27134   0.00000  Uiso   1.00
C148   C     0.71010   0.31204   0.22869   0.00000  Uiso   1.00
C149   C     0.95635   0.31192   0.27087   0.00000  Uiso   1.00
C150   C     0.71032   0.02138   0.22920   0.00000  Uiso   1.00
C151   C     0.99979   0.29049   0.24957   0.00000  Uiso   1.00
C152   C     0.66687   0.04283   0.25046   0.00000  Uiso   1.00
C153   C     0.84741   0.14625   0.28324   0.00000  Uiso   1.00
C154   C     0.81926   0.18719   0.21686   0.00000  Uiso   1.00
C155   C     0.79838   0.14556   0.28325   0.00000  Uiso   1.00
C156   C     0.86834   0.18773   0.21671   0.00000  Uiso   1.00
C157   C     0.97133   0.16726   0.33630   0.00000  Uiso   1.00
C158   C     0.69534   0.16822   0.16357   0.00000  Uiso   1.00
C159   C     0.95211   0.16981   0.38636   0.00000  Uiso   1.00
C160   C     0.71447   0.17518   0.11350   0.00000  Uiso   1.00
C161   C     0.94750   0.14389   0.46156   0.00000  Uiso   1.00
C162   C     0.70974   0.16982   0.03687   0.00000  Uiso   1.00
C163   C     0.96937   0.14305   0.41395   0.00000  Uiso   1.00
C164   C     0.69248   0.15813   0.08349   0.00000  Uiso   1.00
C165   C     0.91171   0.19572   0.40600   0.00000  Uiso   1.00
C166   C     0.75706   0.19916   0.09547   0.00000  Uiso   1.00
C167   C     0.89122   0.19880   0.45398   0.00000  Uiso   1.00
C168   C     0.77778   0.20675   0.04806   0.00000  Uiso   1.00
C169   C     0.91416   0.17585   0.48115   0.00000  Uiso   1.00
C170   C     0.74921   0.19706   0.02030   0.00000  Uiso   1.00
C171   C     0.84551   0.21875   0.47708   0.00000  Uiso   1.00
C172   C     0.82813   0.21698   0.02573   0.00000  Uiso   1.00
Cu173  Cu    0.71355   0.16667   0.25000   0.00000  Uiso   1.00
Cu174  Cu    0.95311   0.16666   0.25000   0.00000  Uiso   1.00
H175   H     0.85728   0.12954   0.30971   0.00000  Uiso   1.00
H176   H     0.80943   0.20410   0.19058   0.00000  Uiso   1.00
N177   N     0.78403   0.16668   0.24999   0.00000  Uiso   1.00
N178   N     0.88264   0.16666   0.25001   0.00000  Uiso   1.00
O179   O     0.70625   0.10655   0.25000   0.00000  Uiso   1.00
O180   O     0.96042   0.22678   0.25000   0.00000  Uiso   1.00
O181   O     0.96039   0.10654   0.25001   0.00000  Uiso   1.00
O182   O     0.70628   0.22679   0.25000   0.00000  Uiso   1.00
O183   O     0.68519   0.16668   0.31492   0.00000  Uiso   1.00
O184   O     0.98148   0.16666   0.18509   0.00000  Uiso   1.00
O185   O     0.93933   0.16667   0.31492   0.00000  Uiso   1.00
O186   O     0.72733   0.16667   0.18508   0.00000  Uiso   1.00
F187   F     0.93260   0.17343   0.05149   0.00000  Uiso   1.00
F188   F     0.73151   0.21360   0.45112   0.00000  Uiso   1.00
F189   F     0.77539   0.21750   0.12508   0.00000  Uiso   1.00
F190   F     0.89454   0.21841   0.37718   0.00000  Uiso   1.00
O191   O     0.98805   0.13004   0.09794   0.00000  Uiso   1.00
H192   H     0.98920   0.11588   0.12624   0.00000  Uiso   1.00
O193   O     0.67136   0.11426   0.39336   0.00000  Uiso   1.00
H194   H     0.68298   0.10011   0.41668   0.00000  Uiso   1.00
O195   O     0.95425   0.11023   0.48710   0.00000  Uiso   1.00
H196   H     0.92700   0.10876   0.01629   0.00000  Uiso   1.00
O197   O     0.69367   0.15021   0.00563   0.00000  Uiso   1.00
H198   H     0.68567   0.12150   0.01701   0.00000  Uiso   1.00
O199   O     0.86245   0.23047   0.08694   0.00000  Uiso   1.00
H200   H     0.84407   0.25664   0.08779   0.00000  Uiso   1.00
O201   O     0.81885   0.25402   0.41785   0.00000  Uiso   1.00
H202   H     0.84640   0.27222   0.41734   0.00000  Uiso   1.00
F203   F     0.91435   0.04140   0.29320   0.00000  Uiso   1.00
F204   F     0.75230   0.29191   0.20677   0.00000  Uiso   1.00
F205   F     0.91405   0.29162   0.29237   0.00000  Uiso   1.00
F206   F     0.75264   0.04168   0.20777   0.00000  Uiso   1.00
O207   O     0.76639   0.12285   0.31781   0.00000  Uiso   1.00
H208   H     0.74134   0.11175   0.30624   0.00000  Uiso   1.00
O209   O     0.90046   0.21018   0.18193   0.00000  Uiso   1.00
H210   H     0.92554   0.22141   0.19339   0.00000  Uiso   1.00
C211   C     0.00009   0.42084   0.25025   0.00000  Uiso   1.00
C212   C     0.33324   0.57916   0.24975   0.00000  Uiso   1.00
C213   C     0.19693   0.54428   0.04773   0.00000  Uiso   1.00
C214   C     0.14364   0.56134   0.45534   0.00000  Uiso   1.00
C215   C     0.23647   0.51897   0.02725   0.00000  Uiso   1.00
C216   C     0.09678   0.54567   0.47514   0.00000  Uiso   1.00
C217   C     0.28989   0.35460   0.27134   0.00000  Uiso   1.00
C218   C     0.04344   0.64537   0.22869   0.00000  Uiso   1.00
C219   C     0.28968   0.64526   0.27087   0.00000  Uiso   1.00
C220   C     0.04365   0.35472   0.22920   0.00000  Uiso   1.00
C221   C     0.33312   0.62382   0.24957   0.00000  Uiso   1.00
C222   C     0.00020   0.37616   0.25046   0.00000  Uiso   1.00
C223   C     0.18075   0.47958   0.28324   0.00000  Uiso   1.00
C224   C     0.15260   0.52053   0.21686   0.00000  Uiso   1.00
C225   C     0.13172   0.47889   0.28325   0.00000  Uiso   1.00
C226   C     0.20167   0.52107   0.21671   0.00000  Uiso   1.00
C227   C     0.30466   0.50059   0.33630   0.00000  Uiso   1.00
C228   C     0.02867   0.50155   0.16357   0.00000  Uiso   1.00
C229   C     0.28545   0.50314   0.38636   0.00000  Uiso   1.00
C230   C     0.04780   0.50852   0.11350   0.00000  Uiso   1.00
C231   C     0.28084   0.47723   0.46156   0.00000  Uiso   1.00
C232   C     0.04308   0.50316   0.03687   0.00000  Uiso   1.00
C233   C     0.30270   0.47638   0.41395   0.00000  Uiso   1.00
C234   C     0.02581   0.49146   0.08349   0.00000  Uiso   1.00
C235   C     0.24504   0.52905   0.40600   0.00000  Uiso   1.00
C236   C     0.09039   0.53249   0.09547   0.00000  Uiso   1.00
C237   C     0.22456   0.53213   0.45398   0.00000  Uiso   1.00
C238   C     0.11111   0.54008   0.04806   0.00000  Uiso   1.00
C239   C     0.24749   0.50918   0.48115   0.00000  Uiso   1.00
C240   C     0.08254   0.53040   0.02030   0.00000  Uiso   1.00
C241   C     0.17884   0.55208   0.47708   0.00000  Uiso   1.00
C242   C     0.16146   0.55031   0.02573   0.00000  Uiso   1.00
Cu243  Cu    0.04689   0.50001   0.25000   0.00000  Uiso   1.00
Cu244  Cu    0.28645   0.49999   0.25000   0.00000  Uiso   1.00
H245   H     0.19061   0.46287   0.30971   0.00000  Uiso   1.00
H246   H     0.14276   0.53743   0.19058   0.00000  Uiso   1.00
N247   N     0.11736   0.50001   0.24999   0.00000  Uiso   1.00
N248   N     0.21597   0.49999   0.25001   0.00000  Uiso   1.00
O249   O     0.03958   0.43989   0.25000   0.00000  Uiso   1.00
O250   O     0.29375   0.56011   0.25000   0.00000  Uiso   1.00
O251   O     0.29372   0.43988   0.25001   0.00000  Uiso   1.00
O252   O     0.03961   0.56012   0.25000   0.00000  Uiso   1.00
O253   O     0.01852   0.50001   0.31492   0.00000  Uiso   1.00
O254   O     0.31481   0.49999   0.18509   0.00000  Uiso   1.00
O255   O     0.27267   0.50000   0.31492   0.00000  Uiso   1.00
O256   O     0.06067   0.50000   0.18508   0.00000  Uiso   1.00
F257   F     0.26593   0.50676   0.05149   0.00000  Uiso   1.00
F258   F     0.06485   0.54694   0.45112   0.00000  Uiso   1.00
F259   F     0.10872   0.55083   0.12508   0.00000  Uiso   1.00
F260   F     0.22787   0.55174   0.37718   0.00000  Uiso   1.00
O261   O     0.32138   0.46337   0.09794   0.00000  Uiso   1.00
H262   H     0.32253   0.44921   0.12624   0.00000  Uiso   1.00
O263   O     0.00469   0.44760   0.39336   0.00000  Uiso   1.00
H264   H     0.01631   0.43344   0.41668   0.00000  Uiso   1.00
O265   O     0.28758   0.44356   0.48710   0.00000  Uiso   1.00
H266   H     0.26033   0.44209   0.01629   0.00000  Uiso   1.00
O267   O     0.02700   0.48354   0.00563   0.00000  Uiso   1.00
H268   H     0.01900   0.45483   0.01701   0.00000  Uiso   1.00
O269   O     0.19578   0.56380   0.08694   0.00000  Uiso   1.00
H270   H     0.17740   0.58998   0.08779   0.00000  Uiso   1.00
O271   O     0.15218   0.58735   0.41785   0.00000  Uiso   1.00
H272   H     0.17974   0.60555   0.41734   0.00000  Uiso   1.00
F273   F     0.24768   0.37473   0.29320   0.00000  Uiso   1.00
F274   F     0.08563   0.62524   0.20677   0.00000  Uiso   1.00
F275   F     0.24738   0.62495   0.29237   0.00000  Uiso   1.00
F276   F     0.08598   0.37501   0.20777   0.00000  Uiso   1.00
O277   O     0.09973   0.45618   0.31781   0.00000  Uiso   1.00
H278   H     0.07467   0.44509   0.30624   0.00000  Uiso   1.00
O279   O     0.23379   0.54352   0.18193   0.00000  Uiso   1.00
H280   H     0.25887   0.55474   0.19339   0.00000  Uiso   1.00
C281   C     0.33342   0.42084   0.25025   0.00000  Uiso   1.00
C282   C     0.66658   0.57916   0.24975   0.00000  Uiso   1.00
C283   C     0.53026   0.54428   0.04773   0.00000  Uiso   1.00
C284   C     0.47697   0.56134   0.45534   0.00000  Uiso   1.00
C285   C     0.56980   0.51897   0.02725   0.00000  Uiso   1.00
C286   C     0.43011   0.54567   0.47514   0.00000  Uiso   1.00
C287   C     0.62322   0.35460   0.27134   0.00000  Uiso   1.00
C288   C     0.37677   0.64537   0.22869   0.00000  Uiso   1.00
C289   C     0.62302   0.64526   0.27087   0.00000  Uiso   1.00
C290   C     0.37698   0.35472   0.22920   0.00000  Uiso   1.00
C291   C     0.66646   0.62382   0.24957   0.00000  Uiso   1.00
C292   C     0.33354   0.37616   0.25046   0.00000  Uiso   1.00
C293   C     0.51408   0.47958   0.28324   0.00000  Uiso   1.00
C294   C     0.48593   0.52053   0.21686   0.00000  Uiso   1.00
C295   C     0.46505   0.47889   0.28325   0.00000  Uiso   1.00
C296   C     0.53501   0.52107   0.21671   0.00000  Uiso   1.00
C297   C     0.63800   0.50059   0.33630   0.00000  Uiso   1.00
C298   C     0.36201   0.50155   0.16357   0.00000  Uiso   1.00
C299   C     0.61878   0.50314   0.38636   0.00000  Uiso   1.00
C300   C     0.38113   0.50852   0.11350   0.00000  Uiso   1.00
C301   C     0.61417   0.47723   0.46156   0.00000  Uiso   1.00
C302   C     0.37641   0.50316   0.03687   0.00000  Uiso   1.00
C303   C     0.63603   0.47638   0.41395   0.00000  Uiso   1.00
C304   C     0.35914   0.49146   0.08349   0.00000  Uiso   1.00
C305   C     0.57838   0.52905   0.40600   0.00000  Uiso   1.00
C306   C     0.42373   0.53249   0.09547   0.00000  Uiso   1.00
C307   C     0.55789   0.53213   0.45398   0.00000  Uiso   1.00
C308   C     0.44444   0.54008   0.04806   0.00000  Uiso   1.00
C309   C     0.58082   0.50918   0.48115   0.00000  Uiso   1.00
C310   C     0.41587   0.53040   0.02030   0.00000  Uiso   1.00
C311   C     0.51218   0.55208   0.47708   0.00000  Uiso   1.00
C312   C     0.49479   0.55031   0.02573   0.00000  Uiso   1.00
Cu313  Cu    0.38022   0.50001   0.25000   0.00000  Uiso   1.00
Cu314  Cu    0.61978   0.49999   0.25000   0.00000  Uiso   1.00
H315   H     0.52394   0.46287   0.30971   0.00000  Uiso   1.00
H316   H     0.47609   0.53743   0.19058   0.00000  Uiso   1.00
N317   N     0.45069   0.50001   0.24999   0.00000  Uiso   1.00
N318   N     0.54931   0.49999   0.25001   0.00000  Uiso   1.00
O319   O     0.37291   0.43989   0.25000   0.00000  Uiso   1.00
O320   O     0.62709   0.56011   0.25000   0.00000  Uiso   1.00
O321   O     0.62706   0.43988   0.25001   0.00000  Uiso   1.00
O322   O     0.37294   0.56012   0.25000   0.00000  Uiso   1.00
O323   O     0.35186   0.50001   0.31492   0.00000  Uiso   1.00
O324   O     0.64814   0.49999   0.18509   0.00000  Uiso   1.00
O325   O     0.60600   0.50000   0.31492   0.00000  Uiso   1.00
O326   O     0.39400   0.50000   0.18508   0.00000  Uiso   1.00
F327   F     0.59927   0.50676   0.05149   0.00000  Uiso   1.00
F328   F     0.39818   0.54694   0.45112   0.00000  Uiso   1.00
F329   F     0.44206   0.55083   0.12508   0.00000  Uiso   1.00
F330   F     0.56121   0.55174   0.37718   0.00000  Uiso   1.00
O331   O     0.65472   0.46337   0.09794   0.00000  Uiso   1.00
H332   H     0.65587   0.44921   0.12624   0.00000  Uiso   1.00
O333   O     0.33802   0.44760   0.39336   0.00000  Uiso   1.00
H334   H     0.34964   0.43344   0.41668   0.00000  Uiso   1.00
O335   O     0.62092   0.44356   0.48710   0.00000  Uiso   1.00
H336   H     0.59367   0.44209   0.01629   0.00000  Uiso   1.00
O337   O     0.36033   0.48354   0.00563   0.00000  Uiso   1.00
H338   H     0.35233   0.45483   0.01701   0.00000  Uiso   1.00
O339   O     0.52911   0.56380   0.08694   0.00000  Uiso   1.00
H340   H     0.51074   0.58998   0.08779   0.00000  Uiso   1.00
O341   O     0.48552   0.58735   0.41785   0.00000  Uiso   1.00
H342   H     0.51307   0.60555   0.41734   0.00000  Uiso   1.00
F343   F     0.58102   0.37473   0.29320   0.00000  Uiso   1.00
F344   F     0.41896   0.62524   0.20677   0.00000  Uiso   1.00
F345   F     0.58071   0.62495   0.29237   0.00000  Uiso   1.00
F346   F     0.41931   0.37501   0.20777   0.00000  Uiso   1.00
O347   O     0.43306   0.45618   0.31781   0.00000  Uiso   1.00
H348   H     0.40801   0.44509   0.30624   0.00000  Uiso   1.00
O349   O     0.56713   0.54352   0.18193   0.00000  Uiso   1.00
H350   H     0.59220   0.55474   0.19339   0.00000  Uiso   1.00
C351   C     0.66675   0.42084   0.25025   0.00000  Uiso   1.00
C352   C     0.99991   0.57916   0.24975   0.00000  Uiso   1.00
C353   C     0.86360   0.54428   0.04773   0.00000  Uiso   1.00
C354   C     0.81030   0.56134   0.45534   0.00000  Uiso   1.00
C355   C     0.90313   0.51897   0.02725   0.00000  Uiso   1.00
C356   C     0.76345   0.54567   0.47514   0.00000  Uiso   1.00
C357   C     0.95655   0.35460   0.27134   0.00000  Uiso   1.00
C358   C     0.71010   0.64537   0.22869   0.00000  Uiso   1.00
C359   C     0.95635   0.64526   0.27087   0.00000  Uiso   1.00
C360   C     0.71032   0.35472   0.22920   0.00000  Uiso   1.00
C361   C     0.99979   0.62382   0.24957   0.00000  Uiso   1.00
C362   C     0.66687   0.37616   0.25046   0.00000  Uiso   1.00
C363   C     0.84741   0.47958   0.28324   0.00000  Uiso   1.00
C364   C     0.81926   0.52053   0.21686   0.00000  Uiso   1.00
C365   C     0.79838   0.47889   0.28325   0.00000  Uiso   1.00
C366   C     0.86834   0.52107   0.21671   0.00000  Uiso   1.00
C367   C     0.97133   0.50059   0.33630   0.00000  Uiso   1.00
C368   C     0.69534   0.50155   0.16357   0.00000  Uiso   1.00
C369   C     0.95211   0.50314   0.38636   0.00000  Uiso   1.00
C370   C     0.71447   0.50852   0.11350   0.00000  Uiso   1.00
C371   C     0.94750   0.47723   0.46156   0.00000  Uiso   1.00
C372   C     0.70974   0.50316   0.03687   0.00000  Uiso   1.00
C373   C     0.96937   0.47638   0.41395   0.00000  Uiso   1.00
C374   C     0.69248   0.49146   0.08349   0.00000  Uiso   1.00
C375   C     0.91171   0.52905   0.40600   0.00000  Uiso   1.00
C376   C     0.75706   0.53249   0.09547   0.00000  Uiso   1.00
C377   C     0.89122   0.53213   0.45398   0.00000  Uiso   1.00
C378   C     0.77778   0.54008   0.04806   0.00000  Uiso   1.00
C379   C     0.91416   0.50918   0.48115   0.00000  Uiso   1.00
C380   C     0.74921   0.53040   0.02030   0.00000  Uiso   1.00
C381   C     0.84551   0.55208   0.47708   0.00000  Uiso   1.00
C382   C     0.82813   0.55031   0.02573   0.00000  Uiso   1.00
Cu383  Cu    0.71355   0.50001   0.25000   0.00000  Uiso   1.00
Cu384  Cu    0.95311   0.49999   0.25000   0.00000  Uiso   1.00
H385   H     0.85728   0.46287   0.30971   0.00000  Uiso   1.00
H386   H     0.80943   0.53743   0.19058   0.00000  Uiso   1.00
N387   N     0.78403   0.50001   0.24999   0.00000  Uiso   1.00
N388   N     0.88264   0.49999   0.25001   0.00000  Uiso   1.00
O389   O     0.70625   0.43989   0.25000   0.00000  Uiso   1.00
O390   O     0.96042   0.56011   0.25000   0.00000  Uiso   1.00
O391   O     0.96039   0.43988   0.25001   0.00000  Uiso   1.00
O392   O     0.70628   0.56012   0.25000   0.00000  Uiso   1.00
O393   O     0.68519   0.50001   0.31492   0.00000  Uiso   1.00
O394   O     0.98148   0.49999   0.18509   0.00000  Uiso   1.00
O395   O     0.93933   0.50000   0.31492   0.00000  Uiso   1.00
O396   O     0.72733   0.50000   0.18508   0.00000  Uiso   1.00
F397   F     0.93260   0.50676   0.05149   0.00000  Uiso   1.00
F398   F     0.73151   0.54694   0.45112   0.00000  Uiso   1.00
F399   F     0.77539   0.55083   0.12508   0.00000  Uiso   1.00
F400   F     0.89454   0.55174   0.37718   0.00000  Uiso   1.00
O401   O     0.98805   0.46337   0.09794   0.00000  Uiso   1.00
H402   H     0.98920   0.44921   0.12624   0.00000  Uiso   1.00
O403   O     0.67136   0.44760   0.39336   0.00000  Uiso   1.00
H404   H     0.68298   0.43344   0.41668   0.00000  Uiso   1.00
O405   O     0.95425   0.44356   0.48710   0.00000  Uiso   1.00
H406   H     0.92700   0.44209   0.01629   0.00000  Uiso   1.00
O407   O     0.69367   0.48354   0.00563   0.00000  Uiso   1.00
H408   H     0.68567   0.45483   0.01701   0.00000  Uiso   1.00
O409   O     0.86245   0.56380   0.08694   0.00000  Uiso   1.00
H410   H     0.84407   0.58998   0.08779   0.00000  Uiso   1.00
O411   O     0.81885   0.58735   0.41785   0.00000  Uiso   1.00
H412   H     0.84640   0.60555   0.41734   0.00000  Uiso   1.00
F413   F     0.91435   0.37473   0.29320   0.00000  Uiso   1.00
F414   F     0.75230   0.62524   0.20677   0.00000  Uiso   1.00
F415   F     0.91405   0.62495   0.29237   0.00000  Uiso   1.00
F416   F     0.75264   0.37501   0.20777   0.00000  Uiso   1.00
O417   O     0.76639   0.45618   0.31781   0.00000  Uiso   1.00
H418   H     0.74134   0.44509   0.30624   0.00000  Uiso   1.00
O419   O     0.90046   0.54352   0.18193   0.00000  Uiso   1.00
H420   H     0.92554   0.55474   0.19339   0.00000  Uiso   1.00
C421   C     0.00009   0.75417   0.25025   0.00000  Uiso   1.00
C422   C     0.33324   0.91249   0.24975   0.00000  Uiso   1.00
C423   C     0.19693   0.87761   0.04773   0.00000  Uiso   1.00
C424   C     0.14364   0.89467   0.45534   0.00000  Uiso   1.00
C425   C     0.23647   0.85230   0.02725   0.00000  Uiso   1.00
C426   C     0.09678   0.87900   0.47514   0.00000  Uiso   1.00
C427   C     0.28989   0.68794   0.27134   0.00000  Uiso   1.00
C428   C     0.04344   0.97871   0.22869   0.00000  Uiso   1.00
C429   C     0.28968   0.97859   0.27087   0.00000  Uiso   1.00
C430   C     0.04365   0.68805   0.22920   0.00000  Uiso   1.00
C431   C     0.33312   0.95716   0.24957   0.00000  Uiso   1.00
C432   C     0.00020   0.70949   0.25046   0.00000  Uiso   1.00
C433   C     0.18075   0.81292   0.28324   0.00000  Uiso   1.00
C434   C     0.15260   0.85386   0.21686   0.00000  Uiso   1.00
C435   C     0.13172   0.81223   0.28325   0.00000  Uiso   1.00
C436   C     0.20167   0.85440   0.21671   0.00000  Uiso   1.00
C437   C     0.30466   0.83393   0.33630   0.00000  Uiso   1.00
C438   C     0.02867   0.83488   0.16357   0.00000  Uiso   1.00
C439   C     0.28545   0.83647   0.38636   0.00000  Uiso   1.00
C440   C     0.04780   0.84185   0.11350   0.00000  Uiso   1.00
C441   C     0.28084   0.81056   0.46156   0.00000  Uiso   1.00
C442   C     0.04308   0.83649   0.03687   0.00000  Uiso   1.00
C443   C     0.30270   0.80972   0.41395   0.00000  Uiso   1.00
C444   C     0.02581   0.82480   0.08349   0.00000  Uiso   1.00
C445   C     0.24504   0.86239   0.40600   0.00000  Uiso   1.00
C446   C     0.09039   0.86583   0.09547   0.00000  Uiso   1.00
C447   C     0.22456   0.86546   0.45398   0.00000  Uiso   1.00
C448   C     0.11111   0.87341   0.04806   0.00000  Uiso   1.00
C449   C     0.24749   0.84252   0.48115   0.00000  Uiso   1.00
C450   C     0.08254   0.86373   0.02030   0.00000  Uiso   1.00
C451   C     0.17884   0.88542   0.47708   0.00000  Uiso   1.00
C452   C     0.16146   0.88365   0.02573   0.00000  Uiso   1.00
Cu453  Cu    0.04689   0.83334   0.25000   0.00000  Uiso   1.00
Cu454  Cu    0.28645   0.83333   0.25000   0.00000  Uiso   1.00
H455   H     0.19061   0.79621   0.30971   0.00000  Uiso   1.00
H456   H     0.14276   0.87077   0.19058   0.00000  Uiso   1.00
N457   N     0.11736   0.83334   0.24999   0.00000  Uiso   1.00
N458   N     0.21597   0.83332   0.25001   0.00000  Uiso   1.00
O459   O     0.03958   0.77322   0.25000   0.00000  Uiso   1.00
O460   O     0.29375   0.89345   0.25000   0.00000  Uiso   1.00
O461   O     0.29372   0.77321   0.25001   0.00000  Uiso   1.00
O462   O     0.03961   0.89346   0.25000   0.00000  Uiso   1.00
O463   O     0.01852   0.83334   0.31492   0.00000  Uiso   1.00
O464   O     0.31481   0.83332   0.18509   0.00000  Uiso   1.00
O465   O     0.27267   0.83333   0.31492   0.00000  Uiso   1.00
O466   O     0.06067   0.83333   0.18508   0.00000  Uiso   1.00
F467   F     0.26593   0.84009   0.05149   0.00000  Uiso   1.00
F468   F     0.06485   0.88027   0.45112   0.00000  Uiso   1.00
F469   F     0.10872   0.88416   0.12508   0.00000  Uiso   1.00
F470   F     0.22787   0.88507   0.37718   0.00000  Uiso   1.00
O471   O     0.32138   0.79671   0.09794   0.00000  Uiso   1.00
H472   H     0.32253   0.78255   0.12624   0.00000  Uiso   1.00
O473   O     0.00469   0.78093   0.39336   0.00000  Uiso   1.00
H474   H     0.01631   0.76678   0.41668   0.00000  Uiso   1.00
O475   O     0.28758   0.77689   0.48710   0.00000  Uiso   1.00
H476   H     0.26033   0.77542   0.01629   0.00000  Uiso   1.00
O477   O     0.02700   0.81688   0.00563   0.00000  Uiso   1.00
H478   H     0.01900   0.78817   0.01701   0.00000  Uiso   1.00
O479   O     0.19578   0.89713   0.08694   0.00000  Uiso   1.00
H480   H     0.17740   0.92331   0.08779   0.00000  Uiso   1.00
O481   O     0.15218   0.92068   0.41785   0.00000  Uiso   1.00
H482   H     0.17974   0.93888   0.41734   0.00000  Uiso   1.00
F483   F     0.24768   0.70807   0.29320   0.00000  Uiso   1.00
F484   F     0.08563   0.95858   0.20677   0.00000  Uiso   1.00
F485   F     0.24738   0.95829   0.29237   0.00000  Uiso   1.00
F486   F     0.08598   0.70835   0.20777   0.00000  Uiso   1.00
O487   O     0.09973   0.78951   0.31781   0.00000  Uiso   1.00
H488   H     0.07467   0.77842   0.30624   0.00000  Uiso   1.00
O489   O     0.23379   0.87685   0.18193   0.00000  Uiso   1.00
H490   H     0.25887   0.88808   0.19339   0.00000  Uiso   1.00
C491   C     0.33342   0.75417   0.25025   0.00000  Uiso   1.00
C492   C     0.66658   0.91249   0.24975   0.00000  Uiso   1.00
C493   C     0.53026   0.87761   0.04773   0.00000  Uiso   1.00
C494   C     0.47697   0.89467   0.45534   0.00000  Uiso   1.00
C495   C     0.56980   0.85230   0.02725   0.00000  Uiso   1.00
C496   C     0.43011   0.87900   0.47514   0.00000  Uiso   1.00
C497   C     0.62322   0.68794   0.27134   0.00000  Uiso   1.00
C498   C     0.37677   0.97871   0.22869   0.00000  Uiso   1.00
C499   C     0.62302   0.97859   0.27087   0.00000  Uiso   1.00
C500   C     0.37698   0.68805   0.22920   0.00000  Uiso   1.00
C501   C     0.66646   0.95716   0.24957   0.00000  Uiso   1.00
C502   C     0.33354   0.70949   0.25046   0.00000  Uiso   1.00
C503   C     0.51408   0.81292   0.28324   0.00000  Uiso   1.00
C504   C     0.48593   0.85386   0.21686   0.00000  Uiso   1.00
C505   C     0.46505   0.81223   0.28325   0.00000  Uiso   1.00
C506   C     0.53501   0.85440   0.21671   0.00000  Uiso   1.00
C507   C     0.63800   0.83393   0.33630   0.00000  Uiso   1.00
C508   C     0.36201   0.83488   0.16357   0.00000  Uiso   1.00
C509   C     0.61878   0.83647   0.38636   0.00000  Uiso   1.00
C510   C     0.38113   0.84185   0.11350   0.00000  Uiso   1.00
C511   C     0.61417   0.81056   0.46156   0.00000  Uiso   1.00
C512   C     0.37641   0.83649   0.03687   0.00000  Uiso   1.00
C513   C     0.63603   0.80972   0.41395   0.00000  Uiso   1.00
C514   C     0.35914   0.82480   0.08349   0.00000  Uiso   1.00
C515   C     0.57838   0.86239   0.40600   0.00000  Uiso   1.00
C516   C     0.42373   0.86583   0.09547   0.00000  Uiso   1.00
C517   C     0.55789   0.86546   0.45398   0.00000  Uiso   1.00
C518   C     0.44444   0.87341   0.04806   0.00000  Uiso   1.00
C519   C     0.58082   0.84252   0.48115   0.00000  Uiso   1.00
C520   C     0.41587   0.86373   0.02030   0.00000  Uiso   1.00
C521   C     0.51218   0.88542   0.47708   0.00000  Uiso   1.00
C522   C     0.49479   0.88365   0.02573   0.00000  Uiso   1.00
Cu523  Cu    0.38022   0.83334   0.25000   0.00000  Uiso   1.00
Cu524  Cu    0.61978   0.83333   0.25000   0.00000  Uiso   1.00
H525   H     0.52394   0.79621   0.30971   0.00000  Uiso   1.00
H526   H     0.47609   0.87077   0.19058   0.00000  Uiso   1.00
N527   N     0.45069   0.83334   0.24999   0.00000  Uiso   1.00
N528   N     0.54931   0.83332   0.25001   0.00000  Uiso   1.00
O529   O     0.37291   0.77322   0.25000   0.00000  Uiso   1.00
O530   O     0.62709   0.89345   0.25000   0.00000  Uiso   1.00
O531   O     0.62706   0.77321   0.25001   0.00000  Uiso   1.00
O532   O     0.37294   0.89346   0.25000   0.00000  Uiso   1.00
O533   O     0.35186   0.83334   0.31492   0.00000  Uiso   1.00
O534   O     0.64814   0.83332   0.18509   0.00000  Uiso   1.00
O535   O     0.60600   0.83333   0.31492   0.00000  Uiso   1.00
O536   O     0.39400   0.83333   0.18508   0.00000  Uiso   1.00
F537   F     0.59927   0.84009   0.05149   0.00000  Uiso   1.00
F538   F     0.39818   0.88027   0.45112   0.00000  Uiso   1.00
F539   F     0.44206   0.88416   0.12508   0.00000  Uiso   1.00
F540   F     0.56121   0.88507   0.37718   0.00000  Uiso   1.00
O541   O     0.65472   0.79671   0.09794   0.00000  Uiso   1.00
H542   H     0.65587   0.78255   0.12624   0.00000  Uiso   1.00
O543   O     0.33802   0.78093   0.39336   0.00000  Uiso   1.00
H544   H     0.34964   0.76678   0.41668   0.00000  Uiso   1.00
O545   O     0.62092   0.77689   0.48710   0.00000  Uiso   1.00
H546   H     0.59367   0.77542   0.01629   0.00000  Uiso   1.00
O547   O     0.36033   0.81688   0.00563   0.00000  Uiso   1.00
H548   H     0.35233   0.78817   0.01701   0.00000  Uiso   1.00
O549   O     0.52911   0.89713   0.08694   0.00000  Uiso   1.00
H550   H     0.51074   0.92331   0.08779   0.00000  Uiso   1.00
O551   O     0.48552   0.92068   0.41785   0.00000  Uiso   1.00
H552   H     0.51307   0.93888   0.41734   0.00000  Uiso   1.00
F553   F     0.58102   0.70807   0.29320   0.00000  Uiso   1.00
F554   F     0.41896   0.95858   0.20677   0.00000  Uiso   1.00
F555   F     0.58071   0.95829   0.29237   0.00000  Uiso   1.00
F556   F     0.41931   0.70835   0.20777   0.00000  Uiso   1.00
O557   O     0.43306   0.78951   0.31781   0.00000  Uiso   1.00
H558   H     0.40801   0.77842   0.30624   0.00000  Uiso   1.00
O559   O     0.56713   0.87685   0.18193   0.00000  Uiso   1.00
H560   H     0.59220   0.88808   0.19339   0.00000  Uiso   1.00
C561   C     0.66675   0.75417   0.25025   0.00000  Uiso   1.00
C562   C     0.99991   0.91249   0.24975   0.00000  Uiso   1.00
C563   C     0.86360   0.87761   0.04773   0.00000  Uiso   1.00
C564   C     0.81030   0.89467   0.45534   0.00000  Uiso   1.00
C565   C     0.90313   0.85230   0.02725   0.00000  Uiso   1.00
C566   C     0.76345   0.87900   0.47514   0.00000  Uiso   1.00
C567   C     0.95655   0.68794   0.27134   0.00000  Uiso   1.00
C568   C     0.71010   0.97871   0.22869   0.00000  Uiso   1.00
C569   C     0.95635   0.97859   0.27087   0.00000  Uiso   1.00
C570   C     0.71032   0.68805   0.22920   0.00000  Uiso   1.00
C571   C     0.99979   0.95716   0.24957   0.00000  Uiso   1.00
C572   C     0.66687   0.70949   0.25046   0.00000  Uiso   1.00
C573   C     0.84741   0.81292   0.28324   0.00000  Uiso   1.00
C574   C     0.81926   0.85386   0.21686   0.00000  Uiso   1.00
C575   C     0.79838   0.81223   0.28325   0.00000  Uiso   1.00
C576   C     0.86834   0.85440   0.21671   0.00000  Uiso   1.00
C577   C     0.97133   0.83393   0.33630   0.00000  Uiso   1.00
C578   C     0.69534   0.83488   0.16357   0.00000  Uiso   1.00
C579   C     0.95211   0.83647   0.38636   0.00000  Uiso   1.00
C580   C     0.71447   0.84185   0.11350   0.00000  Uiso   1.00
C581   C     0.94750   0.81056   0.46156   0.00000  Uiso   1.00
C582   C     0.70974   0.83649   0.03687   0.00000  Uiso   1.00
C583   C     0.96937   0.80972   0.41395   0.00000  Uiso   1.00
C584   C     0.69248   0.82480   0.08349   0.00000  Uiso   1.00
C585   C     0.91171   0.86239   0.40600   0.00000  Uiso   1.00
C586   C     0.75706   0.86583   0.09547   0.00000  Uiso   1.00
C587   C     0.89122   0.86546   0.45398   0.00000  Uiso   1.00
C588   C     0.77778   0.87341   0.04806   0.00000  Uiso   1.00
C589   C     0.91416   0.84252   0.48115   0.00000  Uiso   1.00
C590   C     0.74921   0.86373   0.02030   0.00000  Uiso   1.00
C591   C     0.84551   0.88542   0.47708   0.00000  Uiso   1.00
C592   C     0.82813   0.88365   0.02573   0.00000  Uiso   1.00
Cu593  Cu    0.71355   0.83334   0.25000   0.00000  Uiso   1.00
Cu594  Cu    0.95311   0.83333   0.25000   0.00000  Uiso   1.00
H595   H     0.85728   0.79621   0.30971   0.00000  Uiso   1.00
H596   H     0.80943   0.87077   0.19058   0.00000  Uiso   1.00
N597   N     0.78403   0.83334   0.24999   0.00000  Uiso   1.00
N598   N     0.88264   0.83332   0.25001   0.00000  Uiso   1.00
O599   O     0.70625   0.77322   0.25000   0.00000  Uiso   1.00
O600   O     0.96042   0.89345   0.25000   0.00000  Uiso   1.00
O601   O     0.96039   0.77321   0.25001   0.00000  Uiso   1.00
O602   O     0.70628   0.89346   0.25000   0.00000  Uiso   1.00
O603   O     0.68519   0.83334   0.31492   0.00000  Uiso   1.00
O604   O     0.98148   0.83332   0.18509   0.00000  Uiso   1.00
O605   O     0.93933   0.83333   0.31492   0.00000  Uiso   1.00
O606   O     0.72733   0.83333   0.18508   0.00000  Uiso   1.00
F607   F     0.93260   0.84009   0.05149   0.00000  Uiso   1.00
F608   F     0.73151   0.88027   0.45112   0.00000  Uiso   1.00
F609   F     0.77539   0.88416   0.12508   0.00000  Uiso   1.00
F610   F     0.89454   0.88507   0.37718   0.00000  Uiso   1.00
O611   O     0.98805   0.79671   0.09794   0.00000  Uiso   1.00
H612   H     0.98920   0.78255   0.12624   0.00000  Uiso   1.00
O613   O     0.67136   0.78093   0.39336   0.00000  Uiso   1.00
H614   H     0.68298   0.76678   0.41668   0.00000  Uiso   1.00
O615   O     0.95425   0.77689   0.48710   0.00000  Uiso   1.00
H616   H     0.92700   0.77542   0.01629   0.00000  Uiso   1.00
O617   O     0.69367   0.81688   0.00563   0.00000  Uiso   1.00
H618   H     0.68567   0.78817   0.01701   0.00000  Uiso   1.00
O619   O     0.86245   0.89713   0.08694   0.00000  Uiso   1.00
H620   H     0.84407   0.92331   0.08779   0.00000  Uiso   1.00
O621   O     0.81885   0.92068   0.41785   0.00000  Uiso   1.00
H622   H     0.84640   0.93888   0.41734   0.00000  Uiso   1.00
F623   F     0.91435   0.70807   0.29320   0.00000  Uiso   1.00
F624   F     0.75230   0.95858   0.20677   0.00000  Uiso   1.00
F625   F     0.91405   0.95829   0.29237   0.00000  Uiso   1.00
F626   F     0.75264   0.70835   0.20777   0.00000  Uiso   1.00
O627   O     0.76639   0.78951   0.31781   0.00000  Uiso   1.00
H628   H     0.74134   0.77842   0.30624   0.00000  Uiso   1.00
O629   O     0.90046   0.87685   0.18193   0.00000  Uiso   1.00
H630   H     0.92554   0.88808   0.19339   0.00000  Uiso   1.00
C631   C     0.00009   0.08750   0.75025   0.00000  Uiso   1.00
C632   C     0.33324   0.24583   0.74975   0.00000  Uiso   1.00
C633   C     0.19693   0.21095   0.54773   0.00000  Uiso   1.00
C634   C     0.14364   0.22800   0.95534   0.00000  Uiso   1.00
C635   C     0.23647   0.18564   0.52725   0.00000  Uiso   1.00
C636   C     0.09678   0.21234   0.97514   0.00000  Uiso   1.00
C637   C     0.28989   0.02127   0.77134   0.00000  Uiso   1.00
C638   C     0.04344   0.31204   0.72869   0.00000  Uiso   1.00
C639   C     0.28968   0.31192   0.77087   0.00000  Uiso   1.00
C640   C     0.04365   0.02138   0.72920   0.00000  Uiso   1.00
C641   C     0.33312   0.29049   0.74957   0.00000  Uiso   1.00
C642   C     0.00020   0.04283   0.75046   0.00000  Uiso   1.00
C643   C     0.18075   0.14625   0.78324   0.00000  Uiso   1.00
C644   C     0.15260   0.18719   0.71686   0.00000  Uiso   1.00
C645   C     0.13172   0.14556   0.78325   0.00000  Uiso   1.00
C646   C     0.20167   0.18773   0.71671   0.00000  Uiso   1.00
C647   C     0.30466   0.16726   0.83630   0.00000  Uiso   1.00
C648   C     0.02867   0.16822   0.66357   0.00000  Uiso   1.00
C649   C     0.28545   0.16981   0.88636   0.00000  Uiso   1.00
C650   C     0.04780   0.17518   0.61350   0.00000  Uiso   1.00
C651   C     0.28084   0.14389   0.96156   0.00000  Uiso   1.00
C652   C     0.04308   0.16982   0.53687   0.00000  Uiso   1.00
C653   C     0.30270   0.14305   0.91395   0.00000  Uiso   1.00
C654   C     0.02581   0.15813   0.58349   0.00000  Uiso   1.00
C655   C     0.24504   0.19572   0.90600   0.00000  Uiso   1.00
C656   C     0.09039   0.19916   0.59547   0.00000  Uiso   1.00
C657   C     0.22456   0.19880   0.95398   0.00000  Uiso   1.00
C658   C     0.11111   0.20675   0.54806   0.00000  Uiso   1.00
C659   C     0.24749   0.17585   0.98115   0.00000  Uiso   1.00
C660   C     0.08254   0.19706   0.52030   0.00000  Uiso   1.00
C661   C     0.17884   0.21875   0.97708   0.00000  Uiso   1.00
C662   C     0.16146   0.21698   0.52573   0.00000  Uiso   1.00
Cu663  Cu    0.04689   0.16667   0.75000   0.00000  Uiso   1.00
Cu664  Cu    0.28645   0.16666   0.75000   0.00000  Uiso   1.00
H665   H     0.19061   0.12954   0.80971   0.00000  Uiso   1.00
H666   H     0.14276   0.20410   0.69058   0.00000  Uiso   1.00
N667   N     0.11736   0.16668   0.74999   0.00000  Uiso   1.00
N668   N     0.21597   0.16666   0.75001   0.00000  Uiso   1.00
O669   O     0.03958   0.10655   0.75000   0.00000  Uiso   1.00
O670   O     0.29375   0.22678   0.75000   0.00000  Uiso   1.00
O671   O     0.29372   0.10654   0.75001   0.00000  Uiso   1.00
O672   O     0.03961   0.22679   0.75000   0.00000  Uiso   1.00
O673   O     0.01852   0.16668   0.81492   0.00000  Uiso   1.00
O674   O     0.31481   0.16666   0.68509   0.00000  Uiso   1.00
O675   O     0.27267   0.16667   0.81492   0.00000  Uiso   1.00
O676   O     0.06067   0.16667   0.68508   0.00000  Uiso   1.00
F677   F     0.26593   0.17343   0.55149   0.00000  Uiso   1.00
F678   F     0.06485   0.21360   0.95112   0.00000  Uiso   1.00
F679   F     0.10872   0.21750   0.62508   0.00000  Uiso   1.00
F680   F     0.22787   0.21841   0.87718   0.00000  Uiso   1.00
O681   O     0.32138   0.13004   0.59794   0.00000  Uiso   1.00
H682   H     0.32253   0.11588   0.62624   0.00000  Uiso   1.00
O683   O     0.00469   0.11426   0.89336   0.00000  Uiso   1.00
H684   H     0.01631   0.10011   0.91668   0.00000  Uiso   1.00
O685   O     0.28758   0.11023   0.98710   0.00000  Uiso   1.00
H686   H     0.26033   0.10876   0.51629   0.00000  Uiso   1.00
O687   O     0.02700   0.15021   0.50563   0.00000  Uiso   1.00
H688   H     0.01900   0.12150   0.51701   0.00000  Uiso   1.00
O689   O     0.19578   0.23047   0.58694   0.00000  Uiso   1.00
H690   H     0.17740   0.25664   0.58779   0.00000  Uiso   1.00
O691   O     0.15218   0.25402   0.91785   0.00000  Uiso   1.00
H692   H     0.17974   0.27222   0.91734   0.00000  Uiso   1.00
F693   F     0.24768   0.04140   0.79320   0.00000  Uiso   1.00
F694   F     0.08563   0.29191   0.70677   0.00000  Uiso   1.00
F695   F     0.24738   0.29162   0.79237   0.00000  Uiso   1.00
F696   F     0.08598   0.04168   0.70777   0.00000  Uiso   1.00
O697   O     0.09973   0.12285   0.81781   0.00000  Uiso   1.00
H698   H     0.07467   0.11175   0.80624   0.00000  Uiso   1.00
O699   O     0.23379   0.21018   0.68193   0.00000  Uiso   1.00
H700   H     0.25887   0.22141   0.69339   0.00000  Uiso   1.00
C701   C     0.33342   0.08750   0.75025   0.00000  Uiso   1.00
C702   C     0.66658   0.24583   0.74975   0.00000  Uiso   1.00
C703   C     0.53026   0.21095   0.54773   0.00000  Uiso   1.00
C704   C     0.47697   0.22800   0.95534   0.00000  Uiso   1.00
C705   C     0.56980   0.18564   0.52725   0.00000  Uiso   1.00
C706   C     0.43011   0.21234   0.97514   0.00000  Uiso   1.00
C707   C     0.62322   0.02127   0.77134   0.00000  Uiso   1.00
C708   C     0.37677   0.31204   0.72869   0.00000  Uiso   1.00
C709   C     0.62302   0.31192   0.77087   0.00000  Uiso   1.00
C710   C     0.37698   0.02138   0.72920   0.00000  Uiso   1.00
C711   C     0.66646   0.29049   0.74957   0.00000  Uiso   1.00
C712   C     0.33354   0.04283   0.75046   0.00000  Uiso   1.00
C713   C     0.51408   0.14625   0.78324   0.00000  Uiso   1.00
C714   C     0.48593   0.18719   0.71686   0.00000  Uiso   1.00
C715   C     0.46505   0.14556   0.78325   0.00000  Uiso   1.00
C716   C     0.53501   0.18773   0.71671   0.00000  Uiso   1.00
C717   C     0.63800   0.16726   0.83630   0.00000  Uiso   1.00
C718   C     0.36201   0.16822   0.66357   0.00000  Uiso   1.00
C719   C     0.61878   0.16981   0.88636   0.00000  Uiso   1.00
C720   C     0.38113   0.17518   0.61350   0.00000  Uiso   1.00
C721   C     0.61417   0.14389   0.96156   0.00000  Uiso   1.00
C722   C     0.37641   0.16982   0.53687   0.00000  Uiso   1.00
C723   C     0.63603   0.14305   0.91395   0.00000  Uiso   1.00
C724   C     0.35914   0.15813   0.58349   0.00000  Uiso   1.00
C725   C     0.57838   0.19572   0.90600   0.00000  Uiso   1.00
C726   C     0.42373   0.19916   0.59547   0.00000  Uiso   1.00
C727   C     0.55789   0.19880   0.95398   0.00000  Uiso   1.00
C728   C     0.44444   0.20675   0.54806   0.00000  Uiso   1.00
C729   C     0.58082   0.17585   0.98115   0.00000  Uiso   1.00
C730   C     0.41587   0.19706   0.52030   0.00000  Uiso   1.00
C731   C     0.51218   0.21875   0.97708   0.00000  Uiso   1.00
C732   C     0.49479   0.21698   0.52573   0.00000  Uiso   1.00
Cu733  Cu    0.38022   0.16667   0.75000   0.00000  Uiso   1.00
Cu734  Cu    0.61978   0.16666   0.75000   0.00000  Uiso   1.00
H735   H     0.52394   0.12954   0.80971   0.00000  Uiso   1.00
H736   H     0.47609   0.20410   0.69058   0.00000  Uiso   1.00
N737   N     0.45069   0.16668   0.74999   0.00000  Uiso   1.00
N738   N     0.54931   0.16666   0.75001   0.00000  Uiso   1.00
O739   O     0.37291   0.10655   0.75000   0.00000  Uiso   1.00
O740   O     0.62709   0.22678   0.75000   0.00000  Uiso   1.00
O741   O     0.62706   0.10654   0.75001   0.00000  Uiso   1.00
O742   O     0.37294   0.22679   0.75000   0.00000  Uiso   1.00
O743   O     0.35186   0.16668   0.81492   0.00000  Uiso   1.00
O744   O     0.64814   0.16666   0.68509   0.00000  Uiso   1.00
O745   O     0.60600   0.16667   0.81492   0.00000  Uiso   1.00
O746   O     0.39400   0.16667   0.68508   0.00000  Uiso   1.00
F747   F     0.59927   0.17343   0.55149   0.00000  Uiso   1.00
F748   F     0.39818   0.21360   0.95112   0.00000  Uiso   1.00
F749   F     0.44206   0.21750   0.62508   0.00000  Uiso   1.00
F750   F     0.56121   0.21841   0.87718   0.00000  Uiso   1.00
O751   O     0.65472   0.13004   0.59794   0.00000  Uiso   1.00
H752   H     0.65587   0.11588   0.62624   0.00000  Uiso   1.00
O753   O     0.33802   0.11426   0.89336   0.00000  Uiso   1.00
H754   H     0.34964   0.10011   0.91668   0.00000  Uiso   1.00
O755   O     0.62092   0.11023   0.98710   0.00000  Uiso   1.00
H756   H     0.59367   0.10876   0.51629   0.00000  Uiso   1.00
O757   O     0.36033   0.15021   0.50563   0.00000  Uiso   1.00
H758   H     0.35233   0.12150   0.51701   0.00000  Uiso   1.00
O759   O     0.52911   0.23047   0.58694   0.00000  Uiso   1.00
H760   H     0.51074   0.25664   0.58779   0.00000  Uiso   1.00
O761   O     0.48552   0.25402   0.91785   0.00000  Uiso   1.00
H762   H     0.51307   0.27222   0.91734   0.00000  Uiso   1.00
F763   F     0.58102   0.04140   0.79320   0.00000  Uiso   1.00
F764   F     0.41896   0.29191   0.70677   0.00000  Uiso   1.00
F765   F     0.58071   0.29162   0.79237   0.00000  Uiso   1.00
F766   F     0.41931   0.04168   0.70777   0.00000  Uiso   1.00
O767   O     0.43306   0.12285   0.81781   0.00000  Uiso   1.00
H768   H     0.40801   0.11175   0.80624   0.00000  Uiso   1.00
O769   O     0.56713   0.21018   0.68193   0.00000  Uiso   1.00
H770   H     0.59220   0.22141   0.69339   0.00000  Uiso   1.00
C771   C     0.66675   0.08750   0.75025   0.00000  Uiso   1.00
C772   C     0.99991   0.24583   0.74975   0.00000  Uiso   1.00
C773   C     0.86360   0.21095   0.54773   0.00000  Uiso   1.00
C774   C     0.81030   0.22800   0.95534   0.00000  Uiso   1.00
C775   C     0.90313   0.18564   0.52725   0.00000  Uiso   1.00
C776   C     0.76345   0.21234   0.97514   0.00000  Uiso   1.00
C777   C     0.95655   0.02127   0.77134   0.00000  Uiso   1.00
C778   C     0.71010   0.31204   0.72869   0.00000  Uiso   1.00
C779   C     0.95635   0.31192   0.77087   0.00000  Uiso   1.00
C780   C     0.71032   0.02138   0.72920   0.00000  Uiso   1.00
C781   C     0.99979   0.29049   0.74957   0.00000  Uiso   1.00
C782   C     0.66687   0.04283   0.75046   0.00000  Uiso   1.00
C783   C     0.84741   0.14625   0.78324   0.00000  Uiso   1.00
C784   C     0.81926   0.18719   0.71686   0.00000  Uiso   1.00
C785   C     0.79838   0.14556   0.78325   0.00000  Uiso   1.00
C786   C     0.86834   0.18773   0.71671   0.00000  Uiso   1.00
C787   C     0.97133   0.16726   0.83630   0.00000  Uiso   1.00
C788   C     0.69534   0.16822   0.66357   0.00000  Uiso   1.00
C789   C     0.95211   0.16981   0.88636   0.00000  Uiso   1.00
C790   C     0.71447   0.17518   0.61350   0.00000  Uiso   1.00
C791   C     0.94750   0.14389   0.96156   0.00000  Uiso   1.00
C792   C     0.70974   0.16982   0.53687   0.00000  Uiso   1.00
C793   C     0.96937   0.14305   0.91395   0.00000  Uiso   1.00
C794   C     0.69248   0.15813   0.58349   0.00000  Uiso   1.00
C795   C     0.91171   0.19572   0.90600   0.00000  Uiso   1.00
C796   C     0.75706   0.19916   0.59547   0.00000  Uiso   1.00
C797   C     0.89122   0.19880   0.95398   0.00000  Uiso   1.00
C798   C     0.77778   0.20675   0.54806   0.00000  Uiso   1.00
C799   C     0.91416   0.17585   0.98115   0.00000  Uiso   1.00
C800   C     0.74921   0.19706   0.52030   0.00000  Uiso   1.00
C801   C     0.84551   0.21875   0.97708   0.00000  Uiso   1.00
C802   C     0.82813   0.21698   0.52573   0.00000  Uiso   1.00
Cu803  Cu    0.71355   0.16667   0.75000   0.00000  Uiso   1.00
Cu804  Cu    0.95311   0.16666   0.75000   0.00000  Uiso   1.00
H805   H     0.85728   0.12954   0.80971   0.00000  Uiso   1.00
H806   H     0.80943   0.20410   0.69058   0.00000  Uiso   1.00
N807   N     0.78403   0.16668   0.74999   0.00000  Uiso   1.00
N808   N     0.88264   0.16666   0.75001   0.00000  Uiso   1.00
O809   O     0.70625   0.10655   0.75000   0.00000  Uiso   1.00
O810   O     0.96042   0.22678   0.75000   0.00000  Uiso   1.00
O811   O     0.96039   0.10654   0.75001   0.00000  Uiso   1.00
O812   O     0.70628   0.22679   0.75000   0.00000  Uiso   1.00
O813   O     0.68519   0.16668   0.81492   0.00000  Uiso   1.00
O814   O     0.98148   0.16666   0.68509   0.00000  Uiso   1.00
O815   O     0.93933   0.16667   0.81492   0.00000  Uiso   1.00
O816   O     0.72733   0.16667   0.68508   0.00000  Uiso   1.00
F817   F     0.93260   0.17343   0.55149   0.00000  Uiso   1.00
F818   F     0.73151   0.21360   0.95112   0.00000  Uiso   1.00
F819   F     0.77539   0.21750   0.62508   0.00000  Uiso   1.00
F820   F     0.89454   0.21841   0.87718   0.00000  Uiso   1.00
O821   O     0.98805   0.13004   0.59794   0.00000  Uiso   1.00
H822   H     0.98920   0.11588   0.62624   0.00000  Uiso   1.00
O823   O     0.67136   0.11426   0.89336   0.00000  Uiso   1.00
H824   H     0.68298   0.10011   0.91668   0.00000  Uiso   1.00
O825   O     0.95425   0.11023   0.98710   0.00000  Uiso   1.00
H826   H     0.92700   0.10876   0.51629   0.00000  Uiso   1.00
O827   O     0.69367   0.15021   0.50563   0.00000  Uiso   1.00
H828   H     0.68567   0.12150   0.51701   0.00000  Uiso   1.00
O829   O     0.86245   0.23047   0.58694   0.00000  Uiso   1.00
H830   H     0.84407   0.25664   0.58779   0.00000  Uiso   1.00
O831   O     0.81885   0.25402   0.91785   0.00000  Uiso   1.00
H832   H     0.84640   0.27222   0.91734   0.00000  Uiso   1.00
F833   F     0.91435   0.04140   0.79320   0.00000  Uiso   1.00
F834   F     0.75230   0.29191   0.70677   0.00000  Uiso   1.00
F835   F     0.91405   0.29162   0.79237   0.00000  Uiso   1.00
F836   F     0.75264   0.04168   0.70777   0.00000  Uiso   1.00
O837   O     0.76639   0.12285   0.81781   0.00000  Uiso   1.00
H838   H     0.74134   0.11175   0.80624   0.00000  Uiso   1.00
O839   O     0.90046   0.21018   0.68193   0.00000  Uiso   1.00
H840   H     0.92554   0.22141   0.69339   0.00000  Uiso   1.00
C841   C     0.00009   0.42084   0.75025   0.00000  Uiso   1.00
C842   C     0.33324   0.57916   0.74975   0.00000  Uiso   1.00
C843   C     0.19693   0.54428   0.54773   0.00000  Uiso   1.00
C844   C     0.14364   0.56134   0.95534   0.00000  Uiso   1.00
C845   C     0.23647   0.51897   0.52725   0.00000  Uiso   1.00
C846   C     0.09678   0.54567   0.97514   0.00000  Uiso   1.00
C847   C     0.28989   0.35460   0.77134   0.00000  Uiso   1.00
C848   C     0.04344   0.64537   0.72869   0.00000  Uiso   1.00
C849   C     0.28968   0.64526   0.77087   0.00000  Uiso   1.00
C850   C     0.04365   0.35472   0.72920   0.00000  Uiso   1.00
C851   C     0.33312   0.62382   0.74957   0.00000  Uiso   1.00
C852   C     0.00020   0.37616   0.75046   0.00000  Uiso   1.00
C853   C     0.18075   0.47958   0.78324   0.00000  Uiso   1.00
C854   C     0.15260   0.52053   0.71686   0.00000  Uiso   1.00
C855   C     0.13172   0.47889   0.78325   0.00000  Uiso   1.00
C856   C     0.20167   0.52107   0.71671   0.00000  Uiso   1.00
C857   C     0.30466   0.50059   0.83630   0.00000  Uiso   1.00
C858   C     0.02867   0.50155   0.66357   0.00000  Uiso   1.00
C859   C     0.28545   0.50314   0.88636   0.00000  Uiso   1.00
C860   C     0.04780   0.50852   0.61350   0.00000  Uiso   1.00
C861   C     0.28084   0.47723   0.96156   0.00000  Uiso   1.00
C862   C     0.04308   0.50316   0.53687   0.00000  Uiso   1.00
C863   C     0.30270   0.47638   0.91395   0.00000  Uiso   1.00
C864   C     0.02581   0.49146   0.58349   0.00000  Uiso   1.00
C865   C     0.24504   0.52905   0.90600   0.00000  Uiso   1.00
C866   C     0.09039   0.53249   0.59547   0.00000  Uiso   1.00
C867   C     0.22456   0.53213   0.95398   0.00000  Uiso   1.00
C868   C     0.11111   0.54008   0.54806   0.00000  Uiso   1.00
C869   C     0.24749   0.50918   0.98115   0.00000  Uiso   1.00
C870   C     0.08254   0.53040   0.52030   0.00000  Uiso   1.00
C871   C     0.17884   0.55208   0.97708   0.00000  Uiso   1.00
C872   C     0.16146   0.55031   0.52573   0.00000  Uiso   1.00
Cu873  Cu    0.04689   0.50001   0.75000   0.00000  Uiso   1.00
Cu874  Cu    0.28645   0.49999   0.75000   0.00000  Uiso   1.00
H875   H     0.19061   0.46287   0.80971   0.00000  Uiso   1.00
H876   H     0.14276   0.53743   0.69058   0.00000  Uiso   1.00
N877   N     0.11736   0.50001   0.74999   0.00000  Uiso   1.00
N878   N     0.21597   0.49999   0.75001   0.00000  Uiso   1.00
O879   O     0.03958   0.43989   0.75000   0.00000  Uiso   1.00
O880   O     0.29375   0.56011   0.75000   0.00000  Uiso   1.00
O881   O     0.29372   0.43988   0.75001   0.00000  Uiso   1.00
O882   O     0.03961   0.56012   0.75000   0.00000  Uiso   1.00
O883   O     0.01852   0.50001   0.81492   0.00000  Uiso   1.00
O884   O     0.31481   0.49999   0.68509   0.00000  Uiso   1.00
O885   O     0.27267   0.50000   0.81492   0.00000  Uiso   1.00
O886   O     0.06067   0.50000   0.68508   0.00000  Uiso   1.00
F887   F     0.26593   0.50676   0.55149   0.00000  Uiso   1.00
F888   F     0.06485   0.54694   0.95112   0.00000  Uiso   1.00
F889   F     0.10872   0.55083   0.62508   0.00000  Uiso   1.00
F890   F     0.22787   0.55174   0.87718   0.00000  Uiso   1.00
O891   O     0.32138   0.46337   0.59794   0.00000  Uiso   1.00
H892   H     0.32253   0.44921   0.62624   0.00000  Uiso   1.00
O893   O     0.00469   0.44760   0.89336   0.00000  Uiso   1.00
H894   H     0.01631   0.43344   0.91668   0.00000  Uiso   1.00
O895   O     0.28758   0.44356   0.98710   0.00000  Uiso   1.00
H896   H     0.26033   0.44209   0.51629   0.00000  Uiso   1.00
O897   O     0.02700   0.48354   0.50563   0.00000  Uiso   1.00
H898   H     0.01900   0.45483   0.51701   0.00000  Uiso   1.00
O899   O     0.19578   0.56380   0.58694   0.00000  Uiso   1.00
H900   H     0.17740   0.58998   0.58779   0.00000  Uiso   1.00
O901   O     0.15218   0.58735   0.91785   0.00000  Uiso   1.00
H902   H     0.17974   0.60555   0.91734   0.00000  Uiso   1.00
F903   F     0.24768   0.37473   0.79320   0.00000  Uiso   1.00
F904   F     0.08563   0.62524   0.70677   0.00000  Uiso   1.00
F905   F     0.24738   0.62495   0.79237   0.00000  Uiso   1.00
F906   F     0.08598   0.37501   0.70777   0.00000  Uiso   1.00
O907   O     0.09973   0.45618   0.81781   0.00000  Uiso   1.00
H908   H     0.07467   0.44509   0.80624   0.00000  Uiso   1.00
O909   O     0.23379   0.54352   0.68193   0.00000  Uiso   1.00
H910   H     0.25887   0.55474   0.69339   0.00000  Uiso   1.00
C911   C     0.33342   0.42084   0.75025   0.00000  Uiso   1.00
C912   C     0.66658   0.57916   0.74975   0.00000  Uiso   1.00
C913   C     0.53026   0.54428   0.54773   0.00000  Uiso   1.00
C914   C     0.47697   0.56134   0.95534   0.00000  Uiso   1.00
C915   C     0.56980   0.51897   0.52725   0.00000  Uiso   1.00
C916   C     0.43011   0.54567   0.97514   0.00000  Uiso   1.00
C917   C     0.62322   0.35460   0.77134   0.00000  Uiso   1.00
C918   C     0.37677   0.64537   0.72869   0.00000  Uiso   1.00
C919   C     0.62302   0.64526   0.77087   0.00000  Uiso   1.00
C920   C     0.37698   0.35472   0.72920   0.00000  Uiso   1.00
C921   C     0.66646   0.62382   0.74957   0.00000  Uiso   1.00
C922   C     0.33354   0.37616   0.75046   0.00000  Uiso   1.00
C923   C     0.51408   0.47958   0.78324   0.00000  Uiso   1.00
C924   C     0.48593   0.52053   0.71686   0.00000  Uiso   1.00
C925   C     0.46505   0.47889   0.78325   0.00000  Uiso   1.00
C926   C     0.53501   0.52107   0.71671   0.00000  Uiso   1.00
C927   C     0.63800   0.50059   0.83630   0.00000  Uiso   1.00
C928   C     0.36201   0.50155   0.66357   0.00000  Uiso   1.00
C929   C     0.61878   0.50314   0.88636   0.00000  Uiso   1.00
C930   C     0.38113   0.50852   0.61350   0.00000  Uiso   1.00
C931   C     0.61417   0.47723   0.96156   0.00000  Uiso   1.00
C932   C     0.37641   0.50316   0.53687   0.00000  Uiso   1.00
C933   C     0.63603   0.47638   0.91395   0.00000  Uiso   1.00
C934   C     0.35914   0.49146   0.58349   0.00000  Uiso   1.00
C935   C     0.57838   0.52905   0.90600   0.00000  Uiso   1.00
C936   C     0.42373   0.53249   0.59547   0.00000  Uiso   1.00
C937   C     0.55789   0.53213   0.95398   0.00000  Uiso   1.00
C938   C     0.44444   0.54008   0.54806   0.00000  Uiso   1.00
C939   C     0.58082   0.50918   0.98115   0.00000  Uiso   1.00
C940   C     0.41587   0.53040   0.52030   0.00000  Uiso   1.00
C941   C     0.51218   0.55208   0.97708   0.00000  Uiso   1.00
C942   C     0.49479   0.55031   0.52573   0.00000  Uiso   1.00
Cu943  Cu    0.38022   0.50001   0.75000   0.00000  Uiso   1.00
Cu944  Cu    0.61978   0.49999   0.75000   0.00000  Uiso   1.00
H945   H     0.52394   0.46287   0.80971   0.00000  Uiso   1.00
H946   H     0.47609   0.53743   0.69058   0.00000  Uiso   1.00
N947   N     0.45069   0.50001   0.74999   0.00000  Uiso   1.00
N948   N     0.54931   0.49999   0.75001   0.00000  Uiso   1.00
O949   O     0.37291   0.43989   0.75000   0.00000  Uiso   1.00
O950   O     0.62709   0.56011   0.75000   0.00000  Uiso   1.00
O951   O     0.62706   0.43988   0.75001   0.00000  Uiso   1.00
O952   O     0.37294   0.56012   0.75000   0.00000  Uiso   1.00
O953   O     0.35186   0.50001   0.81492   0.00000  Uiso   1.00
O954   O     0.64814   0.49999   0.68509   0.00000  Uiso   1.00
O955   O     0.60600   0.50000   0.81492   0.00000  Uiso   1.00
O956   O     0.39400   0.50000   0.68508   0.00000  Uiso   1.00
F957   F     0.59927   0.50676   0.55149   0.00000  Uiso   1.00
F958   F     0.39818   0.54694   0.95112   0.00000  Uiso   1.00
F959   F     0.44206   0.55083   0.62508   0.00000  Uiso   1.00
F960   F     0.56121   0.55174   0.87718   0.00000  Uiso   1.00
O961   O     0.65472   0.46337   0.59794   0.00000  Uiso   1.00
H962   H     0.65587   0.44921   0.62624   0.00000  Uiso   1.00
O963   O     0.33802   0.44760   0.89336   0.00000  Uiso   1.00
H964   H     0.34964   0.43344   0.91668   0.00000  Uiso   1.00
O965   O     0.62092   0.44356   0.98710   0.00000  Uiso   1.00
H966   H     0.59367   0.44209   0.51629   0.00000  Uiso   1.00
O967   O     0.36033   0.48354   0.50563   0.00000  Uiso   1.00
H968   H     0.35233   0.45483   0.51701   0.00000  Uiso   1.00
O969   O     0.52911   0.56380   0.58694   0.00000  Uiso   1.00
H970   H     0.51074   0.58998   0.58779   0.00000  Uiso   1.00
O971   O     0.48552   0.58735   0.91785   0.00000  Uiso   1.00
H972   H     0.51307   0.60555   0.91734   0.00000  Uiso   1.00
F973   F     0.58102   0.37473   0.79320   0.00000  Uiso   1.00
F974   F     0.41896   0.62524   0.70677   0.00000  Uiso   1.00
F975   F     0.58071   0.62495   0.79237   0.00000  Uiso   1.00
F976   F     0.41931   0.37501   0.70777   0.00000  Uiso   1.00
O977   O     0.43306   0.45618   0.81781   0.00000  Uiso   1.00
H978   H     0.40801   0.44509   0.80624   0.00000  Uiso   1.00
O979   O     0.56713   0.54352   0.68193   0.00000  Uiso   1.00
H980   H     0.59220   0.55474   0.69339   0.00000  Uiso   1.00
C981   C     0.66675   0.42084   0.75025   0.00000  Uiso   1.00
C982   C     0.99991   0.57916   0.74975   0.00000  Uiso   1.00
C983   C     0.86360   0.54428   0.54773   0.00000  Uiso   1.00
C984   C     0.81030   0.56134   0.95534   0.00000  Uiso   1.00
C985   C     0.90313   0.51897   0.52725   0.00000  Uiso   1.00
C986   C     0.76345   0.54567   0.97514   0.00000  Uiso   1.00
C987   C     0.95655   0.35460   0.77134   0.00000  Uiso   1.00
C988   C     0.71010   0.64537   0.72869   0.00000  Uiso   1.00
C989   C     0.95635   0.64526   0.77087   0.00000  Uiso   1.00
C990   C     0.71032   0.35472   0.72920   0.00000  Uiso   1.00
C991   C     0.99979   0.62382   0.74957   0.00000  Uiso   1.00
C992   C     0.66687   0.37616   0.75046   0.00000  Uiso   1.00
C993   C     0.84741   0.47958   0.78324   0.00000  Uiso   1.00
C994   C     0.81926   0.52053   0.71686   0.00000  Uiso   1.00
C995   C     0.79838   0.47889   0.78325   0.00000  Uiso   1.00
C996   C     0.86834   0.52107   0.71671   0.00000  Uiso   1.00
C997   C     0.97133   0.50059   0.83630   0.00000  Uiso   1.00
C998   C     0.69534   0.50155   0.66357   0.00000  Uiso   1.00
C999   C     0.95211   0.50314   0.88636   0.00000  Uiso   1.00
C1000  C     0.71447   0.50852   0.61350   0.00000  Uiso   1.00
C1001  C     0.94750   0.47723   0.96156   0.00000  Uiso   1.00
C1002  C     0.70974   0.50316   0.53687   0.00000  Uiso   1.00
C1003  C     0.96937   0.47638   0.91395   0.00000  Uiso   1.00
C1004  C     0.69248   0.49146   0.58349   0.00000  Uiso   1.00
C1005  C     0.91171   0.52905   0.90600   0.00000  Uiso   1.00
C1006  C     0.75706   0.53249   0.59547   0.00000  Uiso   1.00
C1007  C     0.89122   0.53213   0.95398   0.00000  Uiso   1.00
C1008  C     0.77778   0.54008   0.54806   0.00000  Uiso   1.00
C1009  C     0.91416   0.50918   0.98115   0.00000  Uiso   1.00
C1010  C     0.74921   0.53040   0.52030   0.00000  Uiso   1.00
C1011  C     0.84551   0.55208   0.97708   0.00000  Uiso   1.00
C1012  C     0.82813   0.55031   0.52573   0.00000  Uiso   1.00
Cu1013 Cu    0.71355   0.50001   0.75000   0.00000  Uiso   1.00
Cu1014 Cu    0.95311   0.49999   0.75000   0.00000  Uiso   1.00
H1015  H     0.85728   0.46287   0.80971   0.00000  Uiso   1.00
H1016  H     0.80943   0.53743   0.69058   0.00000  Uiso   1.00
N1017  N     0.78403   0.50001   0.74999   0.00000  Uiso   1.00
N1018  N     0.88264   0.49999   0.75001   0.00000  Uiso   1.00
O1019  O     0.70625   0.43989   0.75000   0.00000  Uiso   1.00
O1020  O     0.96042   0.56011   0.75000   0.00000  Uiso   1.00
O1021  O     0.96039   0.43988   0.75001   0.00000  Uiso   1.00
O1022  O     0.70628   0.56012   0.75000   0.00000  Uiso   1.00
O1023  O     0.68519   0.50001   0.81492   0.00000  Uiso   1.00
O1024  O     0.98148   0.49999   0.68509   0.00000  Uiso   1.00
O1025  O     0.93933   0.50000   0.81492   0.00000  Uiso   1.00
O1026  O     0.72733   0.50000   0.68508   0.00000  Uiso   1.00
F1027  F     0.93260   0.50676   0.55149   0.00000  Uiso   1.00
F1028  F     0.73151   0.54694   0.95112   0.00000  Uiso   1.00
F1029  F     0.77539   0.55083   0.62508   0.00000  Uiso   1.00
F1030  F     0.89454   0.55174   0.87718   0.00000  Uiso   1.00
O1031  O     0.98805   0.46337   0.59794   0.00000  Uiso   1.00
H1032  H     0.98920   0.44921   0.62624   0.00000  Uiso   1.00
O1033  O     0.67136   0.44760   0.89336   0.00000  Uiso   1.00
H1034  H     0.68298   0.43344   0.91668   0.00000  Uiso   1.00
O1035  O     0.95425   0.44356   0.98710   0.00000  Uiso   1.00
H1036  H     0.92700   0.44209   0.51629   0.00000  Uiso   1.00
O1037  O     0.69367   0.48354   0.50563   0.00000  Uiso   1.00
H1038  H     0.68567   0.45483   0.51701   0.00000  Uiso   1.00
O1039  O     0.86245   0.56380   0.58694   0.00000  Uiso   1.00
H1040  H     0.84407   0.58998   0.58779   0.00000  Uiso   1.00
O1041  O     0.81885   0.58735   0.91785   0.00000  Uiso   1.00
H1042  H     0.84640   0.60555   0.91734   0.00000  Uiso   1.00
F1043  F     0.91435   0.37473   0.79320   0.00000  Uiso   1.00
F1044  F     0.75230   0.62524   0.70677   0.00000  Uiso   1.00
F1045  F     0.91405   0.62495   0.79237   0.00000  Uiso   1.00
F1046  F     0.75264   0.37501   0.70777   0.00000  Uiso   1.00
O1047  O     0.76639   0.45618   0.81781   0.00000  Uiso   1.00
H1048  H     0.74134   0.44509   0.80624   0.00000  Uiso   1.00
O1049  O     0.90046   0.54352   0.68193   0.00000  Uiso   1.00
H1050  H     0.92554   0.55474   0.69339   0.00000  Uiso   1.00
C1051  C     0.00009   0.75417   0.75025   0.00000  Uiso   1.00
C1052  C     0.33324   0.91249   0.74975   0.00000  Uiso   1.00
C1053  C     0.19693   0.87761   0.54773   0.00000  Uiso   1.00
C1054  C     0.14364   0.89467   0.95534   0.00000  Uiso   1.00
C1055  C     0.23647   0.85230   0.52725   0.00000  Uiso   1.00
C1056  C     0.09678   0.87900   0.97514   0.00000  Uiso   1.00
C1057  C     0.28989   0.68794   0.77134   0.00000  Uiso   1.00
C1058  C     0.04344   0.97871   0.72869   0.00000  Uiso   1.00
C1059  C     0.28968   0.97859   0.77087   0.00000  Uiso   1.00
C1060  C     0.04365   0.68805   0.72920   0.00000  Uiso   1.00
C1061  C     0.33312   0.95716   0.74957   0.00000  Uiso   1.00
C1062  C     0.00020   0.70949   0.75046   0.00000  Uiso   1.00
C1063  C     0.18075   0.81292   0.78324   0.00000  Uiso   1.00
C1064  C     0.15260   0.85386   0.71686   0.00000  Uiso   1.00
C1065  C     0.13172   0.81223   0.78325   0.00000  Uiso   1.00
C1066  C     0.20167   0.85440   0.71671   0.00000  Uiso   1.00
C1067  C     0.30466   0.83393   0.83630   0.00000  Uiso   1.00
C1068  C     0.02867   0.83488   0.66357   0.00000  Uiso   1.00
C1069  C     0.28545   0.83647   0.88636   0.00000  Uiso   1.00
C1070  C     0.04780   0.84185   0.61350   0.00000  Uiso   1.00
C1071  C     0.28084   0.81056   0.96156   0.00000  Uiso   1.00
C1072  C     0.04308   0.83649   0.53687   0.00000  Uiso   1.00
C1073  C     0.30270   0.80972   0.91395   0.00000  Uiso   1.00
C1074  C     0.02581   0.82480   0.58349   0.00000  Uiso   1.00
C1075  C     0.24504   0.86239   0.90600   0.00000  Uiso   1.00
C1076  C     0.09039   0.86583   0.59547   0.00000  Uiso   1.00
C1077  C     0.22456   0.86546   0.95398   0.00000  Uiso   1.00
C1078  C     0.11111   0.87341   0.54806   0.00000  Uiso   1.00
C1079  C     0.24749   0.84252   0.98115   0.00000  Uiso   1.00
C1080  C     0.08254   0.86373   0.52030   0.00000  Uiso   1.00
C1081  C     0.17884   0.88542   0.97708   0.00000  Uiso   1.00
C1082  C     0.16146   0.88365   0.52573   0.00000  Uiso   1.00
Cu1083 Cu    0.04689   0.83334   0.75000   0.00000  Uiso   1.00
Cu1084 Cu    0.28645   0.83333   0.75000   0.00000  Uiso   1.00
H1085  H     0.19061   0.79621   0.80971   0.00000  Uiso   1.00
H1086  H     0.14276   0.87077   0.69058   0.00000  Uiso   1.00
N1087  N     0.11736   0.83334   0.74999   0.00000  Uiso   1.00
N1088  N     0.21597   0.83332   0.75001   0.00000  Uiso   1.00
O1089  O     0.03958   0.77322   0.75000   0.00000  Uiso   1.00
O1090  O     0.29375   0.89345   0.75000   0.00000  Uiso   1.00
O1091  O     0.29372   0.77321   0.75001   0.00000  Uiso   1.00
O1092  O     0.03961   0.89346   0.75000   0.00000  Uiso   1.00
O1093  O     0.01852   0.83334   0.81492   0.00000  Uiso   1.00
O1094  O     0.31481   0.83332   0.68509   0.00000  Uiso   1.00
O1095  O     0.27267   0.83333   0.81492   0.00000  Uiso   1.00
O1096  O     0.06067   0.83333   0.68508   0.00000  Uiso   1.00
F1097  F     0.26593   0.84009   0.55149   0.00000  Uiso   1.00
F1098  F     0.06485   0.88027   0.95112   0.00000  Uiso   1.00
F1099  F     0.10872   0.88416   0.62508   0.00000  Uiso   1.00
F1100  F     0.22787   0.88507   0.87718   0.00000  Uiso   1.00
O1101  O     0.32138   0.79671   0.59794   0.00000  Uiso   1.00
H1102  H     0.32253   0.78255   0.62624   0.00000  Uiso   1.00
O1103  O     0.00469   0.78093   0.89336   0.00000  Uiso   1.00
H1104  H     0.01631   0.76678   0.91668   0.00000  Uiso   1.00
O1105  O     0.28758   0.77689   0.98710   0.00000  Uiso   1.00
H1106  H     0.26033   0.77542   0.51629   0.00000  Uiso   1.00
O1107  O     0.02700   0.81688   0.50563   0.00000  Uiso   1.00
H1108  H     0.01900   0.78817   0.51701   0.00000  Uiso   1.00
O1109  O     0.19578   0.89713   0.58694   0.00000  Uiso   1.00
H1110  H     0.17740   0.92331   0.58779   0.00000  Uiso   1.00
O1111  O     0.15218   0.92068   0.91785   0.00000  Uiso   1.00
H1112  H     0.17974   0.93888   0.91734   0.00000  Uiso   1.00
F1113  F     0.24768   0.70807   0.79320   0.00000  Uiso   1.00
F1114  F     0.08563   0.95858   0.70677   0.00000  Uiso   1.00
F1115  F     0.24738   0.95829   0.79237   0.00000  Uiso   1.00
F1116  F     0.08598   0.70835   0.70777   0.00000  Uiso   1.00
O1117  O     0.09973   0.78951   0.81781   0.00000  Uiso   1.00
H1118  H     0.07467   0.77842   0.80624   0.00000  Uiso   1.00
O1119  O     0.23379   0.87685   0.68193   0.00000  Uiso   1.00
H1120  H     0.25887   0.88808   0.69339   0.00000  Uiso   1.00
C1121  C     0.33342   0.75417   0.75025   0.00000  Uiso   1.00
C1122  C     0.66658   0.91249   0.74975   0.00000  Uiso   1.00
C1123  C     0.53026   0.87761   0.54773   0.00000  Uiso   1.00
C1124  C     0.47697   0.89467   0.95534   0.00000  Uiso   1.00
C1125  C     0.56980   0.85230   0.52725   0.00000  Uiso   1.00
C1126  C     0.43011   0.87900   0.97514   0.00000  Uiso   1.00
C1127  C     0.62322   0.68794   0.77134   0.00000  Uiso   1.00
C1128  C     0.37677   0.97871   0.72869   0.00000  Uiso   1.00
C1129  C     0.62302   0.97859   0.77087   0.00000  Uiso   1.00
C1130  C     0.37698   0.68805   0.72920   0.00000  Uiso   1.00
C1131  C     0.66646   0.95716   0.74957   0.00000  Uiso   1.00
C1132  C     0.33354   0.70949   0.75046   0.00000  Uiso   1.00
C1133  C     0.51408   0.81292   0.78324   0.00000  Uiso   1.00
C1134  C     0.48593   0.85386   0.71686   0.00000  Uiso   1.00
C1135  C     0.46505   0.81223   0.78325   0.00000  Uiso   1.00
C1136  C     0.53501   0.85440   0.71671   0.00000  Uiso   1.00
C1137  C     0.63800   0.83393   0.83630   0.00000  Uiso   1.00
C1138  C     0.36201   0.83488   0.66357   0.00000  Uiso   1.00
C1139  C     0.61878   0.83647   0.88636   0.00000  Uiso   1.00
C1140  C     0.38113   0.84185   0.61350   0.00000  Uiso   1.00
C1141  C     0.61417   0.81056   0.96156   0.00000  Uiso   1.00
C1142  C     0.37641   0.83649   0.53687   0.00000  Uiso   1.00
C1143  C     0.63603   0.80972   0.91395   0.00000  Uiso   1.00
C1144  C     0.35914   0.82480   0.58349   0.00000  Uiso   1.00
C1145  C     0.57838   0.86239   0.90600   0.00000  Uiso   1.00
C1146  C     0.42373   0.86583   0.59547   0.00000  Uiso   1.00
C1147  C     0.55789   0.86546   0.95398   0.00000  Uiso   1.00
C1148  C     0.44444   0.87341   0.54806   0.00000  Uiso   1.00
C1149  C     0.58082   0.84252   0.98115   0.00000  Uiso   1.00
C1150  C     0.41587   0.86373   0.52030   0.00000  Uiso   1.00
C1151  C     0.51218   0.88542   0.97708   0.00000  Uiso   1.00
C1152  C     0.49479   0.88365   0.52573   0.00000  Uiso   1.00
Cu1153 Cu    0.38022   0.83334   0.75000   0.00000  Uiso   1.00
Cu1154 Cu    0.61978   0.83333   0.75000   0.00000  Uiso   1.00
H1155  H     0.52394   0.79621   0.80971   0.00000  Uiso   1.00
H1156  H     0.47609   0.87077   0.69058   0.00000  Uiso   1.00
N1157  N     0.45069   0.83334   0.74999   0.00000  Uiso   1.00
N1158  N     0.54931   0.83332   0.75001   0.00000  Uiso   1.00
O1159  O     0.37291   0.77322   0.75000   0.00000  Uiso   1.00
O1160  O     0.62709   0.89345   0.75000   0.00000  Uiso   1.00
O1161  O     0.62706   0.77321   0.75001   0.00000  Uiso   1.00
O1162  O     0.37294   0.89346   0.75000   0.00000  Uiso   1.00
O1163  O     0.35186   0.83334   0.81492   0.00000  Uiso   1.00
O1164  O     0.64814   0.83332   0.68509   0.00000  Uiso   1.00
O1165  O     0.60600   0.83333   0.81492   0.00000  Uiso   1.00
O1166  O     0.39400   0.83333   0.68508   0.00000  Uiso   1.00
F1167  F     0.59927   0.84009   0.55149   0.00000  Uiso   1.00
F1168  F     0.39818   0.88027   0.95112   0.00000  Uiso   1.00
F1169  F     0.44206   0.88416   0.62508   0.00000  Uiso   1.00
F1170  F     0.56121   0.88507   0.87718   0.00000  Uiso   1.00
O1171  O     0.65472   0.79671   0.59794   0.00000  Uiso   1.00
H1172  H     0.65587   0.78255   0.62624   0.00000  Uiso   1.00
O1173  O     0.33802   0.78093   0.89336   0.00000  Uiso   1.00
H1174  H     0.34964   0.76678   0.91668   0.00000  Uiso   1.00
O1175  O     0.62092   0.77689   0.98710   0.00000  Uiso   1.00
H1176  H     0.59367   0.77542   0.51629   0.00000  Uiso   1.00
O1177  O     0.36033   0.81688   0.50563   0.00000  Uiso   1.00
H1178  H     0.35233   0.78817   0.51701   0.00000  Uiso   1.00
O1179  O     0.52911   0.89713   0.58694   0.00000  Uiso   1.00
H1180  H     0.51074   0.92331   0.58779   0.00000  Uiso   1.00
O1181  O     0.48552   0.92068   0.91785   0.00000  Uiso   1.00
H1182  H     0.51307   0.93888   0.91734   0.00000  Uiso   1.00
F1183  F     0.58102   0.70807   0.79320   0.00000  Uiso   1.00
F1184  F     0.41896   0.95858   0.70677   0.00000  Uiso   1.00
F1185  F     0.58071   0.95829   0.79237   0.00000  Uiso   1.00
F1186  F     0.41931   0.70835   0.70777   0.00000  Uiso   1.00
O1187  O     0.43306   0.78951   0.81781   0.00000  Uiso   1.00
H1188  H     0.40801   0.77842   0.80624   0.00000  Uiso   1.00
O1189  O     0.56713   0.87685   0.68193   0.00000  Uiso   1.00
H1190  H     0.59220   0.88808   0.69339   0.00000  Uiso   1.00
C1191  C     0.66675   0.75417   0.75025   0.00000  Uiso   1.00
C1192  C     0.99991   0.91249   0.74975   0.00000  Uiso   1.00
C1193  C     0.86360   0.87761   0.54773   0.00000  Uiso   1.00
C1194  C     0.81030   0.89467   0.95534   0.00000  Uiso   1.00
C1195  C     0.90313   0.85230   0.52725   0.00000  Uiso   1.00
C1196  C     0.76345   0.87900   0.97514   0.00000  Uiso   1.00
C1197  C     0.95655   0.68794   0.77134   0.00000  Uiso   1.00
C1198  C     0.71010   0.97871   0.72869   0.00000  Uiso   1.00
C1199  C     0.95635   0.97859   0.77087   0.00000  Uiso   1.00
C1200  C     0.71032   0.68805   0.72920   0.00000  Uiso   1.00
C1201  C     0.99979   0.95716   0.74957   0.00000  Uiso   1.00
C1202  C     0.66687   0.70949   0.75046   0.00000  Uiso   1.00
C1203  C     0.84741   0.81292   0.78324   0.00000  Uiso   1.00
C1204  C     0.81926   0.85386   0.71686   0.00000  Uiso   1.00
C1205  C     0.79838   0.81223   0.78325   0.00000  Uiso   1.00
C1206  C     0.86834   0.85440   0.71671   0.00000  Uiso   1.00
C1207  C     0.97133   0.83393   0.83630   0.00000  Uiso   1.00
C1208  C     0.69534   0.83488   0.66357   0.00000  Uiso   1.00
C1209  C     0.95211   0.83647   0.88636   0.00000  Uiso   1.00
C1210  C     0.71447   0.84185   0.61350   0.00000  Uiso   1.00
C1211  C     0.94750   0.81056   0.96156   0.00000  Uiso   1.00
C1212  C     0.70974   0.83649   0.53687   0.00000  Uiso   1.00
C1213  C     0.96937   0.80972   0.91395   0.00000  Uiso   1.00
C1214  C     0.69248   0.82480   0.58349   0.00000  Uiso   1.00
C1215  C     0.91171   0.86239   0.90600   0.00000  Uiso   1.00
C1216  C     0.75706   0.86583   0.59547   0.00000  Uiso   1.00
C1217  C     0.89122   0.86546   0.95398   0.00000  Uiso   1.00
C1218  C     0.77778   0.87341   0.54806   0.00000  Uiso   1.00
C1219  C     0.91416   0.84252   0.98115   0.00000  Uiso   1.00
C1220  C     0.74921   0.86373   0.52030   0.00000  Uiso   1.00
C1221  C     0.84551   0.88542   0.97708   0.00000  Uiso   1.00
C1222  C     0.82813   0.88365   0.52573   0.00000  Uiso   1.00
Cu1223 Cu    0.71355   0.83334   0.75000   0.00000  Uiso   1.00
Cu1224 Cu    0.95311   0.83333   0.75000   0.00000  Uiso   1.00
H1225  H     0.85728   0.79621   0.80971   0.00000  Uiso   1.00
H1226  H     0.80943   0.87077   0.69058   0.00000  Uiso   1.00
N1227  N     0.78403   0.83334   0.74999   0.00000  Uiso   1.00
N1228  N     0.88264   0.83332   0.75001   0.00000  Uiso   1.00
O1229  O     0.70625   0.77322   0.75000   0.00000  Uiso   1.00
O1230  O     0.96042   0.89345   0.75000   0.00000  Uiso   1.00
O1231  O     0.96039   0.77321   0.75001   0.00000  Uiso   1.00
O1232  O     0.70628   0.89346   0.75000   0.00000  Uiso   1.00
O1233  O     0.68519   0.83334   0.81492   0.00000  Uiso   1.00
O1234  O     0.98148   0.83332   0.68509   0.00000  Uiso   1.00
O1235  O     0.93933   0.83333   0.81492   0.00000  Uiso   1.00
O1236  O     0.72733   0.83333   0.68508   0.00000  Uiso   1.00
F1237  F     0.93260   0.84009   0.55149   0.00000  Uiso   1.00
F1238  F     0.73151   0.88027   0.95112   0.00000  Uiso   1.00
F1239  F     0.77539   0.88416   0.62508   0.00000  Uiso   1.00
F1240  F     0.89454   0.88507   0.87718   0.00000  Uiso   1.00
O1241  O     0.98805   0.79671   0.59794   0.00000  Uiso   1.00
H1242  H     0.98920   0.78255   0.62624   0.00000  Uiso   1.00
O1243  O     0.67136   0.78093   0.89336   0.00000  Uiso   1.00
H1244  H     0.68298   0.76678   0.91668   0.00000  Uiso   1.00
O1245  O     0.95425   0.77689   0.98710   0.00000  Uiso   1.00
H1246  H     0.92700   0.77542   0.51629   0.00000  Uiso   1.00
O1247  O     0.69367   0.81688   0.50563   0.00000  Uiso   1.00
H1248  H     0.68567   0.78817   0.51701   0.00000  Uiso   1.00
O1249  O     0.86245   0.89713   0.58694   0.00000  Uiso   1.00
H1250  H     0.84407   0.92331   0.58779   0.00000  Uiso   1.00
O1251  O     0.81885   0.92068   0.91785   0.00000  Uiso   1.00
H1252  H     0.84640   0.93888   0.91734   0.00000  Uiso   1.00
F1253  F     0.91435   0.70807   0.79320   0.00000  Uiso   1.00
F1254  F     0.75230   0.95858   0.70677   0.00000  Uiso   1.00
F1255  F     0.91405   0.95829   0.79237   0.00000  Uiso   1.00
F1256  F     0.75264   0.70835   0.70777   0.00000  Uiso   1.00
O1257  O     0.76639   0.78951   0.81781   0.00000  Uiso   1.00
H1258  H     0.74134   0.77842   0.80624   0.00000  Uiso   1.00
O1259  O     0.90046   0.87685   0.68193   0.00000  Uiso   1.00
H1260  H     0.92554   0.88808   0.69339   0.00000  Uiso   1.00
loop_
_geom_bond_atom_site_label_1
_geom_bond_atom_site_label_2
_geom_bond_distance
_geom_bond_site_symmetry_2
_ccdc_geom_bond_type
C1     C12     1.449   .     S
C1     O39     1.302   .     A
C1     O181    1.299   1_455 S
C2     O40     1.302   .     A
C2     C11     1.449   .     S
C2     O112    1.299   .     S
C3     C32     1.411   .     A
C3     C5      1.386   .     A
C3     O59     1.375   .     S
C4     C31     1.415   .     A
C4     C6      1.391   .     A
C4     O61     1.376   .     S
C5     F47     1.354   .     S
C5     C659    1.404   1_554 S
C6     F48     1.359   .     S
C6     C660    1.404   .     S
C7     F63     1.359   .     S
C7     C429    1.385   1_545 S
C7     C82     1.404   .     S
C8     F64     1.359   .     S
C8     C220    1.385   .     S
C8     C151    1.404   1_455 S
C9     C11     1.402   .     A
C9     F65     1.359   .     S
C9     C217    1.385   .     S
C10    C12     1.402   .     A
C10    F66     1.359   .     S
C10    C428    1.385   1_545 S
C11    C78     1.404   .     S
C12    C147    1.404   1_455 S
C13    C15     1.417   .     A
C13    N38     1.357   .     A
C13    H35     1.082   .     S
C14    N37     1.358   .     A
C14    H36     1.080   .     S
C14    C16     1.417   .     A
C15    O67     1.373   .     S
C15    N37     1.391   .     A
C16    N38     1.391   .     A
C16    O69     1.374   .     S
C17    C19     1.474   .     S
C17    O45     1.300   .     A
C17    O113    1.311   .     S
C18    C20     1.482   .     S
C18    O46     1.302   .     A
C18    O184    1.313   1_455 S
C19    C23     1.399   .     A
C19    C25     1.410   .     A
C20    C26     1.411   .     A
C20    C24     1.411   .     A
C21    O55     1.381   .     S
C21    C23     1.407   .     A
C21    C29     1.416   .     A
C22    O57     1.373   .     S
C22    C24     1.412   .     A
C22    C30     1.404   .     A
C23    O123    1.382   .     S
C24    O191    1.382   1_455 S
C25    C27     1.418   .     A
C25    F50     1.352   .     S
C26    C28     1.413   .     A
C26    F49     1.351   .     S
C27    C29     1.420   .     A
C27    C31     1.440   .     A
C28    C32     1.435   .     A
C28    C30     1.413   .     A
C29    C635    1.404   .     S
C30    C636    1.404   1_554 S
C31    C662    1.428   .     S
C32    C661    1.428   1_554 S
Cu33   O46     1.921   .     S
Cu33   O39     1.964   .     S
Cu33   O42     1.959   .     S
Cu33   N37     2.037   .     S
Cu33   O43     1.913   .     S
Cu33   Cu174   2.710   1_455 S
Cu34   O41     1.959   .     S
Cu34   O45     1.921   .     S
Cu34   O40     1.964   .     S
Cu34   O44     1.913   .     S
Cu34   N38     2.037   .     S
Cu34   Cu103   2.710   .     S
O41    C71     1.299   .     S
O42    C142    1.299   1_455 S
O43    C157    1.311   1_455 S
O44    C88     1.313   .     S
O51    H52     0.989   .     S
O51    C94     1.382   .     S
O53    H54     0.990   .     S
O53    C163    1.382   1_455 S
O55    H686    0.991   .     S
H56    O685    0.991   1_554 S
O57    H58     0.991   .     S
O59    H60     0.993   .     S
O61    H62     0.993   .     S
O67    H68     0.981   .     S
O69    H70     0.981   .     S
C71    C82     1.449   .     S
C71    O109    1.302   .     A
C72    O110    1.302   .     A
C72    C81     1.449   .     S
C72    O182    1.299   .     S
C73    C102    1.411   .     A
C73    C75     1.386   .     A
C73    O129    1.375   .     S
C74    C101    1.415   .     A
C74    C76     1.391   .     A
C74    O131    1.376   .     S
C75    F117    1.354   .     S
C75    C729    1.404   1_554 S
C76    F118    1.359   .     S
C76    C730    1.404   .     S
C77    F133    1.359   .     S
C77    C499    1.385   1_545 S
C77    C152    1.404   .     S
C78    F134    1.359   .     S
C78    C290    1.385   .     S
C79    C81     1.402   .     A
C79    F135    1.359   .     S
C79    C287    1.385   .     S
C80    C82     1.402   .     A
C80    F136    1.359   .     S
C80    C498    1.385   1_545 S
C81    C148    1.404   .     S
C83    C85     1.417   .     A
C83    N108    1.357   .     A
C83    H105    1.082   .     S
C84    N107    1.358   .     A
C84    H106    1.080   .     S
C84    C86     1.417   .     A
C85    O137    1.373   .     S
C85    N107    1.391   .     A
C86    N108    1.391   .     A
C86    O139    1.374   .     S
C87    C89     1.474   .     S
C87    O115    1.300   .     A
C87    O183    1.311   .     S
C88    C90     1.482   .     S
C88    O116    1.302   .     A
C89    C93     1.399   .     A
C89    C95     1.410   .     A
C90    C96     1.411   .     A
C90    C94     1.411   .     A
C91    O125    1.381   .     S
C91    C93     1.407   .     A
C91    C99     1.416   .     A
C92    O127    1.373   .     S
C92    C94     1.412   .     A
C92    C100    1.404   .     A
C93    O193    1.382   .     S
C95    C97     1.418   .     A
C95    F120    1.352   .     S
C96    C98     1.413   .     A
C96    F119    1.351   .     S
C97    C99     1.420   .     A
C97    C101    1.440   .     A
C98    C102    1.435   .     A
C98    C100    1.413   .     A
C99    C705    1.404   .     S
C100   C706    1.404   1_554 S
C101   C732    1.428   .     S
C102   C731    1.428   1_554 S
Cu103  O116    1.921   .     S
Cu103  O109    1.964   .     S
Cu103  O112    1.959   .     S
Cu103  N107    2.037   .     S
Cu103  O113    1.913   .     S
Cu104  O111    1.959   .     S
Cu104  O115    1.921   .     S
Cu104  O110    1.964   .     S
Cu104  O114    1.913   .     S
Cu104  N108    2.037   .     S
Cu104  Cu173   2.710   .     S
O111   C141    1.299   .     S
O114   C158    1.313   .     S
O121   H122    0.989   .     S
O121   C164    1.382   .     S
O123   H124    0.990   .     S
O125   H756    0.991   .     S
H126   O755    0.991   1_554 S
O127   H128    0.991   .     S
O129   H130    0.993   .     S
O131   H132    0.993   .     S
O137   H138    0.981   .     S
O139   H140    0.981   .     S
C141   C152    1.449   .     S
C141   O179    1.302   .     A
C142   O180    1.302   .     A
C142   C151    1.449   .     S
C142   O42     1.299   1_655 S
C143   C172    1.411   .     A
C143   C145    1.386   .     A
C143   O199    1.375   .     S
C144   C171    1.415   .     A
C144   C146    1.391   .     A
C144   O201    1.376   .     S
C145   F187    1.354   .     S
C145   C799    1.404   1_554 S
C146   F188    1.359   .     S
C146   C800    1.404   .     S
C147   F203    1.359   .     S
C147   C569    1.385   1_545 S
C147   C12     1.404   1_655 S
C148   F204    1.359   .     S
C148   C360    1.385   .     S
C149   C151    1.402   .     A
C149   F205    1.359   .     S
C149   C357    1.385   .     S
C150   C152    1.402   .     A
C150   F206    1.359   .     S
C150   C568    1.385   1_545 S
C151   C8      1.404   1_655 S
C153   C155    1.417   .     A
C153   N178    1.357   .     A
C153   H175    1.082   .     S
C154   N177    1.358   .     A
C154   H176    1.080   .     S
C154   C156    1.417   .     A
C155   O207    1.373   .     S
C155   N177    1.391   .     A
C156   N178    1.391   .     A
C156   O209    1.374   .     S
C157   C159    1.474   .     S
C157   O185    1.300   .     A
C157   O43     1.311   1_655 S
C158   C160    1.482   .     S
C158   O186    1.302   .     A
C159   C163    1.399   .     A
C159   C165    1.410   .     A
C160   C166    1.411   .     A
C160   C164    1.411   .     A
C161   O195    1.381   .     S
C161   C163    1.407   .     A
C161   C169    1.416   .     A
C162   O197    1.373   .     S
C162   C164    1.412   .     A
C162   C170    1.404   .     A
C163   O53     1.382   1_655 S
C165   C167    1.418   .     A
C165   F190    1.352   .     S
C166   C168    1.413   .     A
C166   F189    1.351   .     S
C167   C169    1.420   .     A
C167   C171    1.440   .     A
C168   C172    1.435   .     A
C168   C170    1.413   .     A
C169   C775    1.404   .     S
C170   C776    1.404   1_554 S
C171   C802    1.428   .     S
C172   C801    1.428   1_554 S
Cu173  O186    1.921   .     S
Cu173  O179    1.964   .     S
Cu173  O182    1.959   .     S
Cu173  N177    2.037   .     S
Cu173  O183    1.913   .     S
Cu174  O181    1.959   .     S
Cu174  O185    1.921   .     S
Cu174  O180    1.964   .     S
Cu174  O184    1.913   .     S
Cu174  N178    2.037   .     S
Cu174  Cu33    2.710   1_655 S
O181   C1      1.299   1_655 S
O184   C18     1.313   1_655 S
O191   H192    0.989   .     S
O191   C24     1.382   1_655 S
O193   H194    0.990   .     S
O195   H826    0.991   .     S
H196   O825    0.991   1_554 S
O197   H198    0.991   .     S
O199   H200    0.993   .     S
O201   H202    0.993   .     S
O207   H208    0.981   .     S
O209   H210    0.981   .     S
C211   C222    1.449   .     S
C211   O249    1.302   .     A
C211   O391    1.299   1_455 S
C212   O250    1.302   .     A
C212   C221    1.449   .     S
C212   O322    1.299   .     S
C213   C242    1.411   .     A
C213   C215    1.386   .     A
C213   O269    1.375   .     S
C214   C241    1.415   .     A
C214   C216    1.391   .     A
C214   O271    1.376   .     S
C215   F257    1.354   .     S
C215   C869    1.404   1_554 S
C216   F258    1.359   .     S
C216   C870    1.404   .     S
C217   F273    1.359   .     S
C217   C292    1.404   .     S
C218   F274    1.359   .     S
C218   C430    1.385   .     S
C218   C361    1.404   1_455 S
C219   C221    1.402   .     A
C219   F275    1.359   .     S
C219   C427    1.385   .     S
C220   C222    1.402   .     A
C220   F276    1.359   .     S
C221   C288    1.404   .     S
C222   C357    1.404   1_455 S
C223   C225    1.417   .     A
C223   N248    1.357   .     A
C223   H245    1.082   .     S
C224   N247    1.358   .     A
C224   H246    1.080   .     S
C224   C226    1.417   .     A
C225   O277    1.373   .     S
C225   N247    1.391   .     A
C226   N248    1.391   .     A
C226   O279    1.374   .     S
C227   C229    1.474   .     S
C227   O255    1.300   .     A
C227   O323    1.311   .     S
C228   C230    1.482   .     S
C228   O256    1.302   .     A
C228   O394    1.313   1_455 S
C229   C233    1.399   .     A
C229   C235    1.410   .     A
C230   C236    1.411   .     A
C230   C234    1.411   .     A
C231   O265    1.381   .     S
C231   C233    1.407   .     A
C231   C239    1.416   .     A
C232   O267    1.373   .     S
C232   C234    1.412   .     A
C232   C240    1.404   .     A
C233   O333    1.382   .     S
C234   O401    1.382   1_455 S
C235   C237    1.418   .     A
C235   F260    1.352   .     S
C236   C238    1.413   .     A
C236   F259    1.351   .     S
C237   C239    1.420   .     A
C237   C241    1.440   .     A
C238   C242    1.435   .     A
C238   C240    1.413   .     A
C239   C845    1.404   .     S
C240   C846    1.404   1_554 S
C241   C872    1.428   .     S
C242   C871    1.428   1_554 S
Cu243  O256    1.921   .     S
Cu243  O249    1.964   .     S
Cu243  O252    1.959   .     S
Cu243  N247    2.037   .     S
Cu243  O253    1.913   .     S
Cu243  Cu384   2.710   1_455 S
Cu244  O251    1.959   .     S
Cu244  O255    1.921   .     S
Cu244  O250    1.964   .     S
Cu244  O254    1.913   .     S
Cu244  N248    2.037   .     S
Cu244  Cu313   2.710   .     S
O251   C281    1.299   .     S
O252   C352    1.299   1_455 S
O253   C367    1.311   1_455 S
O254   C298    1.313   .     S
O261   H262    0.989   .     S
O261   C304    1.382   .     S
O263   H264    0.990   .     S
O263   C373    1.382   1_455 S
O265   H896    0.991   .     S
H266   O895    0.991   1_554 S
O267   H268    0.991   .     S
O269   H270    0.993   .     S
O271   H272    0.993   .     S
O277   H278    0.981   .     S
O279   H280    0.981   .     S
C281   C292    1.449   .     S
C281   O319    1.302   .     A
C282   O320    1.302   .     A
C282   C291    1.449   .     S
C282   O392    1.299   .     S
C283   C312    1.411   .     A
C283   C285    1.386   .     A
C283   O339    1.375   .     S
C284   C311    1.415   .     A
C284   C286    1.391   .     A
C284   O341    1.376   .     S
C285   F327    1.354   .     S
C285   C939    1.404   1_554 S
C286   F328    1.359   .     S
C286   C940    1.404   .     S
C287   F343    1.359   .     S
C287   C362    1.404   .     S
C288   F344    1.359   .     S
C288   C500    1.385   .     S
C289   C291    1.402   .     A
C289   F345    1.359   .     S
C289   C497    1.385   .     S
C290   C292    1.402   .     A
C290   F346    1.359   .     S
C291   C358    1.404   .     S
C293   C295    1.417   .     A
C293   N318    1.357   .     A
C293   H315    1.082   .     S
C294   N317    1.358   .     A
C294   H316    1.080   .     S
C294   C296    1.417   .     A
C295   O347    1.373   .     S
C295   N317    1.391   .     A
C296   N318    1.391   .     A
C296   O349    1.374   .     S
C297   C299    1.474   .     S
C297   O325    1.300   .     A
C297   O393    1.311   .     S
C298   C300    1.482   .     S
C298   O326    1.302   .     A
C299   C303    1.399   .     A
C299   C305    1.410   .     A
C300   C306    1.411   .     A
C300   C304    1.411   .     A
C301   O335    1.381   .     S
C301   C303    1.407   .     A
C301   C309    1.416   .     A
C302   O337    1.373   .     S
C302   C304    1.412   .     A
C302   C310    1.404   .     A
C303   O403    1.382   .     S
C305   C307    1.418   .     A
C305   F330    1.352   .     S
C306   C308    1.413   .     A
C306   F329    1.351   .     S
C307   C309    1.420   .     A
C307   C311    1.440   .     A
C308   C312    1.435   .     A
C308   C310    1.413   .     A
C309   C915    1.404   .     S
C310   C916    1.404   1_554 S
C311   C942    1.428   .     S
C312   C941    1.428   1_554 S
Cu313  O326    1.921   .     S
Cu313  O319    1.964   .     S
Cu313  O322    1.959   .     S
Cu313  N317    2.037   .     S
Cu313  O323    1.913   .     S
Cu314  O321    1.959   .     S
Cu314  O325    1.921   .     S
Cu314  O320    1.964   .     S
Cu314  O324    1.913   .     S
Cu314  N318    2.037   .     S
Cu314  Cu383   2.710   .     S
O321   C351    1.299   .     S
O324   C368    1.313   .     S
O331   H332    0.989   .     S
O331   C374    1.382   .     S
O333   H334    0.990   .     S
O335   H966    0.991   .     S
H336   O965    0.991   1_554 S
O337   H338    0.991   .     S
O339   H340    0.993   .     S
O341   H342    0.993   .     S
O347   H348    0.981   .     S
O349   H350    0.981   .     S
C351   C362    1.449   .     S
C351   O389    1.302   .     A
C352   O390    1.302   .     A
C352   C361    1.449   .     S
C352   O252    1.299   1_655 S
C353   C382    1.411   .     A
C353   C355    1.386   .     A
C353   O409    1.375   .     S
C354   C381    1.415   .     A
C354   C356    1.391   .     A
C354   O411    1.376   .     S
C355   F397    1.354   .     S
C355   C1009   1.404   1_554 S
C356   F398    1.359   .     S
C356   C1010   1.404   .     S
C357   F413    1.359   .     S
C357   C222    1.404   1_655 S
C358   F414    1.359   .     S
C358   C570    1.385   .     S
C359   C361    1.402   .     A
C359   F415    1.359   .     S
C359   C567    1.385   .     S
C360   C362    1.402   .     A
C360   F416    1.359   .     S
C361   C218    1.404   1_655 S
C363   C365    1.417   .     A
C363   N388    1.357   .     A
C363   H385    1.082   .     S
C364   N387    1.358   .     A
C364   H386    1.080   .     S
C364   C366    1.417   .     A
C365   O417    1.373   .     S
C365   N387    1.391   .     A
C366   N388    1.391   .     A
C366   O419    1.374   .     S
C367   C369    1.474   .     S
C367   O395    1.300   .     A
C367   O253    1.311   1_655 S
C368   C370    1.482   .     S
C368   O396    1.302   .     A
C369   C373    1.399   .     A
C369   C375    1.410   .     A
C370   C376    1.411   .     A
C370   C374    1.411   .     A
C371   O405    1.381   .     S
C371   C373    1.407   .     A
C371   C379    1.416   .     A
C372   O407    1.373   .     S
C372   C374    1.412   .     A
C372   C380    1.404   .     A
C373   O263    1.382   1_655 S
C375   C377    1.418   .     A
C375   F400    1.352   .     S
C376   C378    1.413   .     A
C376   F399    1.351   .     S
C377   C379    1.420   .     A
C377   C381    1.440   .     A
C378   C382    1.435   .     A
C378   C380    1.413   .     A
C379   C985    1.404   .     S
C380   C986    1.404   1_554 S
C381   C1012   1.428   .     S
C382   C1011   1.428   1_554 S
Cu383  O396    1.921   .     S
Cu383  O389    1.964   .     S
Cu383  O392    1.959   .     S
Cu383  N387    2.037   .     S
Cu383  O393    1.913   .     S
Cu384  O391    1.959   .     S
Cu384  O395    1.921   .     S
Cu384  O390    1.964   .     S
Cu384  O394    1.913   .     S
Cu384  N388    2.037   .     S
Cu384  Cu243   2.710   1_655 S
O391   C211    1.299   1_655 S
O394   C228    1.313   1_655 S
O401   H402    0.989   .     S
O401   C234    1.382   1_655 S
O403   H404    0.990   .     S
O405   H1036   0.991   .     S
H406   O1035   0.991   1_554 S
O407   H408    0.991   .     S
O409   H410    0.993   .     S
O411   H412    0.993   .     S
O417   H418    0.981   .     S
O419   H420    0.981   .     S
C421   C432    1.449   .     S
C421   O459    1.302   .     A
C421   O601    1.299   1_455 S
C422   O460    1.302   .     A
C422   C431    1.449   .     S
C422   O532    1.299   .     S
C423   C452    1.411   .     A
C423   C425    1.386   .     A
C423   O479    1.375   .     S
C424   C451    1.415   .     A
C424   C426    1.391   .     A
C424   O481    1.376   .     S
C425   F467    1.354   .     S
C425   C1079   1.404   1_554 S
C426   F468    1.359   .     S
C426   C1080   1.404   .     S
C427   F483    1.359   .     S
C427   C502    1.404   .     S
C428   F484    1.359   .     S
C428   C10     1.385   1_565 S
C428   C571    1.404   1_455 S
C429   C431    1.402   .     A
C429   F485    1.359   .     S
C429   C7      1.385   1_565 S
C430   C432    1.402   .     A
C430   F486    1.359   .     S
C431   C498    1.404   .     S
C432   C567    1.404   1_455 S
C433   C435    1.417   .     A
C433   N458    1.357   .     A
C433   H455    1.082   .     S
C434   N457    1.358   .     A
C434   H456    1.080   .     S
C434   C436    1.417   .     A
C435   O487    1.373   .     S
C435   N457    1.391   .     A
C436   N458    1.391   .     A
C436   O489    1.374   .     S
C437   C439    1.474   .     S
C437   O465    1.300   .     A
C437   O533    1.311   .     S
C438   C440    1.482   .     S
C438   O466    1.302   .     A
C438   O604    1.313   1_455 S
C439   C443    1.399   .     A
C439   C445    1.410   .     A
C440   C446    1.411   .     A
C440   C444    1.411   .     A
C441   O475    1.381   .     S
C441   C443    1.407   .     A
C441   C449    1.416   .     A
C442   O477    1.373   .     S
C442   C444    1.412   .     A
C442   C450    1.404   .     A
C443   O543    1.382   .     S
C444   O611    1.382   1_455 S
C445   C447    1.418   .     A
C445   F470    1.352   .     S
C446   C448    1.413   .     A
C446   F469    1.351   .     S
C447   C449    1.420   .     A
C447   C451    1.440   .     A
C448   C452    1.435   .     A
C448   C450    1.413   .     A
C449   C1055   1.404   .     S
C450   C1056   1.404   1_554 S
C451   C1082   1.428   .     S
C452   C1081   1.428   1_554 S
Cu453  O466    1.921   .     S
Cu453  O459    1.964   .     S
Cu453  O462    1.959   .     S
Cu453  N457    2.037   .     S
Cu453  O463    1.913   .     S
Cu453  Cu594   2.710   1_455 S
Cu454  O461    1.959   .     S
Cu454  O465    1.921   .     S
Cu454  O460    1.964   .     S
Cu454  O464    1.913   .     S
Cu454  N458    2.037   .     S
Cu454  Cu523   2.710   .     S
O461   C491    1.299   .     S
O462   C562    1.299   1_455 S
O463   C577    1.311   1_455 S
O464   C508    1.313   .     S
O471   H472    0.989   .     S
O471   C514    1.382   .     S
O473   H474    0.990   .     S
O473   C583    1.382   1_455 S
O475   H1106   0.991   .     S
H476   O1105   0.991   1_554 S
O477   H478    0.991   .     S
O479   H480    0.993   .     S
O481   H482    0.993   .     S
O487   H488    0.981   .     S
O489   H490    0.981   .     S
C491   C502    1.449   .     S
C491   O529    1.302   .     A
C492   O530    1.302   .     A
C492   C501    1.449   .     S
C492   O602    1.299   .     S
C493   C522    1.411   .     A
C493   C495    1.386   .     A
C493   O549    1.375   .     S
C494   C521    1.415   .     A
C494   C496    1.391   .     A
C494   O551    1.376   .     S
C495   F537    1.354   .     S
C495   C1149   1.404   1_554 S
C496   F538    1.359   .     S
C496   C1150   1.404   .     S
C497   F553    1.359   .     S
C497   C572    1.404   .     S
C498   F554    1.359   .     S
C498   C80     1.385   1_565 S
C499   C501    1.402   .     A
C499   F555    1.359   .     S
C499   C77     1.385   1_565 S
C500   C502    1.402   .     A
C500   F556    1.359   .     S
C501   C568    1.404   .     S
C503   C505    1.417   .     A
C503   N528    1.357   .     A
C503   H525    1.082   .     S
C504   N527    1.358   .     A
C504   H526    1.080   .     S
C504   C506    1.417   .     A
C505   O557    1.373   .     S
C505   N527    1.391   .     A
C506   N528    1.391   .     A
C506   O559    1.374   .     S
C507   C509    1.474   .     S
C507   O535    1.300   .     A
C507   O603    1.311   .     S
C508   C510    1.482   .     S
C508   O536    1.302   .     A
C509   C513    1.399   .     A
C509   C515    1.410   .     A
C510   C516    1.411   .     A
C510   C514    1.411   .     A
C511   O545    1.381   .     S
C511   C513    1.407   .     A
C511   C519    1.416   .     A
C512   O547    1.373   .     S
C512   C514    1.412   .     A
C512   C520    1.404   .     A
C513   O613    1.382   .     S
C515   C517    1.418   .     A
C515   F540    1.352   .     S
C516   C518    1.413   .     A
C516   F539    1.351   .     S
C517   C519    1.420   .     A
C517   C521    1.440   .     A
C518   C522    1.435   .     A
C518   C520    1.413   .     A
C519   C1125   1.404   .     S
C520   C1126   1.404   1_554 S
C521   C1152   1.428   .     S
C522   C1151   1.428   1_554 S
Cu523  O536    1.921   .     S
Cu523  O529    1.964   .     S
Cu523  O532    1.959   .     S
Cu523  N527    2.037   .     S
Cu523  O533    1.913   .     S
Cu524  O531    1.959   .     S
Cu524  O535    1.921   .     S
Cu524  O530    1.964   .     S
Cu524  O534    1.913   .     S
Cu524  N528    2.037   .     S
Cu524  Cu593   2.710   .     S
O531   C561    1.299   .     S
O534   C578    1.313   .     S
O541   H542    0.989   .     S
O541   C584    1.382   .     S
O543   H544    0.990   .     S
O545   H1176   0.991   .     S
H546   O1175   0.991   1_554 S
O547   H548    0.991   .     S
O549   H550    0.993   .     S
O551   H552    0.993   .     S
O557   H558    0.981   .     S
O559   H560    0.981   .     S
C561   C572    1.449   .     S
C561   O599    1.302   .     A
C562   O600    1.302   .     A
C562   C571    1.449   .     S
C562   O462    1.299   1_655 S
C563   C592    1.411   .     A
C563   C565    1.386   .     A
C563   O619    1.375   .     S
C564   C591    1.415   .     A
C564   C566    1.391   .     A
C564   O621    1.376   .     S
C565   F607    1.354   .     S
C565   C1219   1.404   1_554 S
C566   F608    1.359   .     S
C566   C1220   1.404   .     S
C567   F623    1.359   .     S
C567   C432    1.404   1_655 S
C568   F624    1.359   .     S
C568   C150    1.385   1_565 S
C569   C571    1.402   .     A
C569   F625    1.359   .     S
C569   C147    1.385   1_565 S
C570   C572    1.402   .     A
C570   F626    1.359   .     S
C571   C428    1.404   1_655 S
C573   C575    1.417   .     A
C573   N598    1.357   .     A
C573   H595    1.082   .     S
C574   N597    1.358   .     A
C574   H596    1.080   .     S
C574   C576    1.417   .     A
C575   O627    1.373   .     S
C575   N597    1.391   .     A
C576   N598    1.391   .     A
C576   O629    1.374   .     S
C577   C579    1.474   .     S
C577   O605    1.300   .     A
C577   O463    1.311   1_655 S
C578   C580    1.482   .     S
C578   O606    1.302   .     A
C579   C583    1.399   .     A
C579   C585    1.410   .     A
C580   C586    1.411   .     A
C580   C584    1.411   .     A
C581   O615    1.381   .     S
C581   C583    1.407   .     A
C581   C589    1.416   .     A
C582   O617    1.373   .     S
C582   C584    1.412   .     A
C582   C590    1.404   .     A
C583   O473    1.382   1_655 S
C585   C587    1.418   .     A
C585   F610    1.352   .     S
C586   C588    1.413   .     A
C586   F609    1.351   .     S
C587   C589    1.420   .     A
C587   C591    1.440   .     A
C588   C592    1.435   .     A
C588   C590    1.413   .     A
C589   C1195   1.404   .     S
C590   C1196   1.404   1_554 S
C591   C1222   1.428   .     S
C592   C1221   1.428   1_554 S
Cu593  O606    1.921   .     S
Cu593  O599    1.964   .     S
Cu593  O602    1.959   .     S
Cu593  N597    2.037   .     S
Cu593  O603    1.913   .     S
Cu594  O601    1.959   .     S
Cu594  O605    1.921   .     S
Cu594  O600    1.964   .     S
Cu594  O604    1.913   .     S
Cu594  N598    2.037   .     S
Cu594  Cu453   2.710   1_655 S
O601   C421    1.299   1_655 S
O604   C438    1.313   1_655 S
O611   H612    0.989   .     S
O611   C444    1.382   1_655 S
O613   H614    0.990   .     S
O615   H1246   0.991   .     S
H616   O1245   0.991   1_554 S
O617   H618    0.991   .     S
O619   H620    0.993   .     S
O621   H622    0.993   .     S
O627   H628    0.981   .     S
O629   H630    0.981   .     S
C631   C642    1.449   .     S
C631   O669    1.302   .     A
C631   O811    1.299   1_455 S
C632   O670    1.302   .     A
C632   C641    1.449   .     S
C632   O742    1.299   .     S
C633   C662    1.411   .     A
C633   C635    1.386   .     A
C633   O689    1.375   .     S
C634   C661    1.415   .     A
C634   C636    1.391   .     A
C634   O691    1.376   .     S
C635   F677    1.354   .     S
C636   F678    1.359   .     S
C636   C30     1.404   1_556 S
C637   F693    1.359   .     S
C637   C1059   1.385   1_545 S
C637   C712    1.404   .     S
C638   F694    1.359   .     S
C638   C850    1.385   .     S
C638   C781    1.404   1_455 S
C639   C641    1.402   .     A
C639   F695    1.359   .     S
C639   C847    1.385   .     S
C640   C642    1.402   .     A
C640   F696    1.359   .     S
C640   C1058   1.385   1_545 S
C641   C708    1.404   .     S
C642   C777    1.404   1_455 S
C643   C645    1.417   .     A
C643   N668    1.357   .     A
C643   H665    1.082   .     S
C644   N667    1.358   .     A
C644   H666    1.080   .     S
C644   C646    1.417   .     A
C645   O697    1.373   .     S
C645   N667    1.391   .     A
C646   N668    1.391   .     A
C646   O699    1.374   .     S
C647   C649    1.474   .     S
C647   O675    1.300   .     A
C647   O743    1.311   .     S
C648   C650    1.482   .     S
C648   O676    1.302   .     A
C648   O814    1.313   1_455 S
C649   C653    1.399   .     A
C649   C655    1.410   .     A
C650   C656    1.411   .     A
C650   C654    1.411   .     A
C651   O685    1.381   .     S
C651   C653    1.407   .     A
C651   C659    1.416   .     A
C652   O687    1.373   .     S
C652   C654    1.412   .     A
C652   C660    1.404   .     A
C653   O753    1.382   .     S
C654   O821    1.382   1_455 S
C655   C657    1.418   .     A
C655   F680    1.352   .     S
C656   C658    1.413   .     A
C656   F679    1.351   .     S
C657   C659    1.420   .     A
C657   C661    1.440   .     A
C658   C662    1.435   .     A
C658   C660    1.413   .     A
C659   C5      1.404   1_556 S
C661   C32     1.428   1_556 S
Cu663  O676    1.921   .     S
Cu663  O669    1.964   .     S
Cu663  O672    1.959   .     S
Cu663  N667    2.037   .     S
Cu663  O673    1.913   .     S
Cu663  Cu804   2.710   1_455 S
Cu664  O671    1.959   .     S
Cu664  O675    1.921   .     S
Cu664  O670    1.964   .     S
Cu664  O674    1.913   .     S
Cu664  N668    2.037   .     S
Cu664  Cu733   2.710   .     S
O671   C701    1.299   .     S
O672   C772    1.299   1_455 S
O673   C787    1.311   1_455 S
O674   C718    1.313   .     S
O681   H682    0.989   .     S
O681   C724    1.382   .     S
O683   H684    0.990   .     S
O683   C793    1.382   1_455 S
O685   H56     0.991   1_556 S
O687   H688    0.991   .     S
O689   H690    0.993   .     S
O691   H692    0.993   .     S
O697   H698    0.981   .     S
O699   H700    0.981   .     S
C701   C712    1.449   .     S
C701   O739    1.302   .     A
C702   O740    1.302   .     A
C702   C711    1.449   .     S
C702   O812    1.299   .     S
C703   C732    1.411   .     A
C703   C705    1.386   .     A
C703   O759    1.375   .     S
C704   C731    1.415   .     A
C704   C706    1.391   .     A
C704   O761    1.376   .     S
C705   F747    1.354   .     S
C706   F748    1.359   .     S
C706   C100    1.404   1_556 S
C707   F763    1.359   .     S
C707   C1129   1.385   1_545 S
C707   C782    1.404   .     S
C708   F764    1.359   .     S
C708   C920    1.385   .     S
C709   C711    1.402   .     A
C709   F765    1.359   .     S
C709   C917    1.385   .     S
C710   C712    1.402   .     A
C710   F766    1.359   .     S
C710   C1128   1.385   1_545 S
C711   C778    1.404   .     S
C713   C715    1.417   .     A
C713   N738    1.357   .     A
C713   H735    1.082   .     S
C714   N737    1.358   .     A
C714   H736    1.080   .     S
C714   C716    1.417   .     A
C715   O767    1.373   .     S
C715   N737    1.391   .     A
C716   N738    1.391   .     A
C716   O769    1.374   .     S
C717   C719    1.474   .     S
C717   O745    1.300   .     A
C717   O813    1.311   .     S
C718   C720    1.482   .     S
C718   O746    1.302   .     A
C719   C723    1.399   .     A
C719   C725    1.410   .     A
C720   C726    1.411   .     A
C720   C724    1.411   .     A
C721   O755    1.381   .     S
C721   C723    1.407   .     A
C721   C729    1.416   .     A
C722   O757    1.373   .     S
C722   C724    1.412   .     A
C722   C730    1.404   .     A
C723   O823    1.382   .     S
C725   C727    1.418   .     A
C725   F750    1.352   .     S
C726   C728    1.413   .     A
C726   F749    1.351   .     S
C727   C729    1.420   .     A
C727   C731    1.440   .     A
C728   C732    1.435   .     A
C728   C730    1.413   .     A
C729   C75     1.404   1_556 S
C731   C102    1.428   1_556 S
Cu733  O746    1.921   .     S
Cu733  O739    1.964   .     S
Cu733  O742    1.959   .     S
Cu733  N737    2.037   .     S
Cu733  O743    1.913   .     S
Cu734  O741    1.959   .     S
Cu734  O745    1.921   .     S
Cu734  O740    1.964   .     S
Cu734  O744    1.913   .     S
Cu734  N738    2.037   .     S
Cu734  Cu803   2.710   .     S
O741   C771    1.299   .     S
O744   C788    1.313   .     S
O751   H752    0.989   .     S
O751   C794    1.382   .     S
O753   H754    0.990   .     S
O755   H126    0.991   1_556 S
O757   H758    0.991   .     S
O759   H760    0.993   .     S
O761   H762    0.993   .     S
O767   H768    0.981   .     S
O769   H770    0.981   .     S
C771   C782    1.449   .     S
C771   O809    1.302   .     A
C772   O810    1.302   .     A
C772   C781    1.449   .     S
C772   O672    1.299   1_655 S
C773   C802    1.411   .     A
C773   C775    1.386   .     A
C773   O829    1.375   .     S
C774   C801    1.415   .     A
C774   C776    1.391   .     A
C774   O831    1.376   .     S
C775   F817    1.354   .     S
C776   F818    1.359   .     S
C776   C170    1.404   1_556 S
C777   F833    1.359   .     S
C777   C1199   1.385   1_545 S
C777   C642    1.404   1_655 S
C778   F834    1.359   .     S
C778   C990    1.385   .     S
C779   C781    1.402   .     A
C779   F835    1.359   .     S
C779   C987    1.385   .     S
C780   C782    1.402   .     A
C780   F836    1.359   .     S
C780   C1198   1.385   1_545 S
C781   C638    1.404   1_655 S
C783   C785    1.417   .     A
C783   N808    1.357   .     A
C783   H805    1.082   .     S
C784   N807    1.358   .     A
C784   H806    1.080   .     S
C784   C786    1.417   .     A
C785   O837    1.373   .     S
C785   N807    1.391   .     A
C786   N808    1.391   .     A
C786   O839    1.374   .     S
C787   C789    1.474   .     S
C787   O815    1.300   .     A
C787   O673    1.311   1_655 S
C788   C790    1.482   .     S
C788   O816    1.302   .     A
C789   C793    1.399   .     A
C789   C795    1.410   .     A
C790   C796    1.411   .     A
C790   C794    1.411   .     A
C791   O825    1.381   .     S
C791   C793    1.407   .     A
C791   C799    1.416   .     A
C792   O827    1.373   .     S
C792   C794    1.412   .     A
C792   C800    1.404   .     A
C793   O683    1.382   1_655 S
C795   C797    1.418   .     A
C795   F820    1.352   .     S
C796   C798    1.413   .     A
C796   F819    1.351   .     S
C797   C799    1.420   .     A
C797   C801    1.440   .     A
C798   C802    1.435   .     A
C798   C800    1.413   .     A
C799   C145    1.404   1_556 S
C801   C172    1.428   1_556 S
Cu803  O816    1.921   .     S
Cu803  O809    1.964   .     S
Cu803  O812    1.959   .     S
Cu803  N807    2.037   .     S
Cu803  O813    1.913   .     S
Cu804  O811    1.959   .     S
Cu804  O815    1.921   .     S
Cu804  O810    1.964   .     S
Cu804  O814    1.913   .     S
Cu804  N808    2.037   .     S
Cu804  Cu663   2.710   1_655 S
O811   C631    1.299   1_655 S
O814   C648    1.313   1_655 S
O821   H822    0.989   .     S
O821   C654    1.382   1_655 S
O823   H824    0.990   .     S
O825   H196    0.991   1_556 S
O827   H828    0.991   .     S
O829   H830    0.993   .     S
O831   H832    0.993   .     S
O837   H838    0.981   .     S
O839   H840    0.981   .     S
C841   C852    1.449   .     S
C841   O879    1.302   .     A
C841   O1021   1.299   1_455 S
C842   O880    1.302   .     A
C842   C851    1.449   .     S
C842   O952    1.299   .     S
C843   C872    1.411   .     A
C843   C845    1.386   .     A
C843   O899    1.375   .     S
C844   C871    1.415   .     A
C844   C846    1.391   .     A
C844   O901    1.376   .     S
C845   F887    1.354   .     S
C846   F888    1.359   .     S
C846   C240    1.404   1_556 S
C847   F903    1.359   .     S
C847   C922    1.404   .     S
C848   F904    1.359   .     S
C848   C1060   1.385   .     S
C848   C991    1.404   1_455 S
C849   C851    1.402   .     A
C849   F905    1.359   .     S
C849   C1057   1.385   .     S
C850   C852    1.402   .     A
C850   F906    1.359   .     S
C851   C918    1.404   .     S
C852   C987    1.404   1_455 S
C853   C855    1.417   .     A
C853   N878    1.357   .     A
C853   H875    1.082   .     S
C854   N877    1.358   .     A
C854   H876    1.080   .     S
C854   C856    1.417   .     A
C855   O907    1.373   .     S
C855   N877    1.391   .     A
C856   N878    1.391   .     A
C856   O909    1.374   .     S
C857   C859    1.474   .     S
C857   O885    1.300   .     A
C857   O953    1.311   .     S
C858   C860    1.482   .     S
C858   O886    1.302   .     A
C858   O1024   1.313   1_455 S
C859   C863    1.399   .     A
C859   C865    1.410   .     A
C860   C866    1.411   .     A
C860   C864    1.411   .     A
C861   O895    1.381   .     S
C861   C863    1.407   .     A
C861   C869    1.416   .     A
C862   O897    1.373   .     S
C862   C864    1.412   .     A
C862   C870    1.404   .     A
C863   O963    1.382   .     S
C864   O1031   1.382   1_455 S
C865   C867    1.418   .     A
C865   F890    1.352   .     S
C866   C868    1.413   .     A
C866   F889    1.351   .     S
C867   C869    1.420   .     A
C867   C871    1.440   .     A
C868   C872    1.435   .     A
C868   C870    1.413   .     A
C869   C215    1.404   1_556 S
C871   C242    1.428   1_556 S
Cu873  O886    1.921   .     S
Cu873  O879    1.964   .     S
Cu873  O882    1.959   .     S
Cu873  N877    2.037   .     S
Cu873  O883    1.913   .     S
Cu873  Cu1014  2.710   1_455 S
Cu874  O881    1.959   .     S
Cu874  O885    1.921   .     S
Cu874  O880    1.964   .     S
Cu874  O884    1.913   .     S
Cu874  N878    2.037   .     S
Cu874  Cu943   2.710   .     S
O881   C911    1.299   .     S
O882   C982    1.299   1_455 S
O883   C997    1.311   1_455 S
O884   C928    1.313   .     S
O891   H892    0.989   .     S
O891   C934    1.382   .     S
O893   H894    0.990   .     S
O893   C1003   1.382   1_455 S
O895   H266    0.991   1_556 S
O897   H898    0.991   .     S
O899   H900    0.993   .     S
O901   H902    0.993   .     S
O907   H908    0.981   .     S
O909   H910    0.981   .     S
C911   C922    1.449   .     S
C911   O949    1.302   .     A
C912   O950    1.302   .     A
C912   C921    1.449   .     S
C912   O1022   1.299   .     S
C913   C942    1.411   .     A
C913   C915    1.386   .     A
C913   O969    1.375   .     S
C914   C941    1.415   .     A
C914   C916    1.391   .     A
C914   O971    1.376   .     S
C915   F957    1.354   .     S
C916   F958    1.359   .     S
C916   C310    1.404   1_556 S
C917   F973    1.359   .     S
C917   C992    1.404   .     S
C918   F974    1.359   .     S
C918   C1130   1.385   .     S
C919   C921    1.402   .     A
C919   F975    1.359   .     S
C919   C1127   1.385   .     S
C920   C922    1.402   .     A
C920   F976    1.359   .     S
C921   C988    1.404   .     S
C923   C925    1.417   .     A
C923   N948    1.357   .     A
C923   H945    1.082   .     S
C924   N947    1.358   .     A
C924   H946    1.080   .     S
C924   C926    1.417   .     A
C925   O977    1.373   .     S
C925   N947    1.391   .     A
C926   N948    1.391   .     A
C926   O979    1.374   .     S
C927   C929    1.474   .     S
C927   O955    1.300   .     A
C927   O1023   1.311   .     S
C928   C930    1.482   .     S
C928   O956    1.302   .     A
C929   C933    1.399   .     A
C929   C935    1.410   .     A
C930   C936    1.411   .     A
C930   C934    1.411   .     A
C931   O965    1.381   .     S
C931   C933    1.407   .     A
C931   C939    1.416   .     A
C932   O967    1.373   .     S
C932   C934    1.412   .     A
C932   C940    1.404   .     A
C933   O1033   1.382   .     S
C935   C937    1.418   .     A
C935   F960    1.352   .     S
C936   C938    1.413   .     A
C936   F959    1.351   .     S
C937   C939    1.420   .     A
C937   C941    1.440   .     A
C938   C942    1.435   .     A
C938   C940    1.413   .     A
C939   C285    1.404   1_556 S
C941   C312    1.428   1_556 S
Cu943  O956    1.921   .     S
Cu943  O949    1.964   .     S
Cu943  O952    1.959   .     S
Cu943  N947    2.037   .     S
Cu943  O953    1.913   .     S
Cu944  O951    1.959   .     S
Cu944  O955    1.921   .     S
Cu944  O950    1.964   .     S
Cu944  O954    1.913   .     S
Cu944  N948    2.037   .     S
Cu944  Cu1013  2.710   .     S
O951   C981    1.299   .     S
O954   C998    1.313   .     S
O961   H962    0.989   .     S
O961   C1004   1.382   .     S
O963   H964    0.990   .     S
O965   H336    0.991   1_556 S
O967   H968    0.991   .     S
O969   H970    0.993   .     S
O971   H972    0.993   .     S
O977   H978    0.981   .     S
O979   H980    0.981   .     S
C981   C992    1.449   .     S
C981   O1019   1.302   .     A
C982   O1020   1.302   .     A
C982   C991    1.449   .     S
C982   O882    1.299   1_655 S
C983   C1012   1.411   .     A
C983   C985    1.386   .     A
C983   O1039   1.375   .     S
C984   C1011   1.415   .     A
C984   C986    1.391   .     A
C984   O1041   1.376   .     S
C985   F1027   1.354   .     S
C986   F1028   1.359   .     S
C986   C380    1.404   1_556 S
C987   F1043   1.359   .     S
C987   C852    1.404   1_655 S
C988   F1044   1.359   .     S
C988   C1200   1.385   .     S
C989   C991    1.402   .     A
C989   F1045   1.359   .     S
C989   C1197   1.385   .     S
C990   C992    1.402   .     A
C990   F1046   1.359   .     S
C991   C848    1.404   1_655 S
C993   C995    1.417   .     A
C993   N1018   1.357   .     A
C993   H1015   1.082   .     S
C994   N1017   1.358   .     A
C994   H1016   1.080   .     S
C994   C996    1.417   .     A
C995   O1047   1.373   .     S
C995   N1017   1.391   .     A
C996   N1018   1.391   .     A
C996   O1049   1.374   .     S
C997   C999    1.474   .     S
C997   O1025   1.300   .     A
C997   O883    1.311   1_655 S
C998   C1000   1.482   .     S
C998   O1026   1.302   .     A
C999   C1003   1.399   .     A
C999   C1005   1.410   .     A
C1000  C1006   1.411   .     A
C1000  C1004   1.411   .     A
C1001  O1035   1.381   .     S
C1001  C1003   1.407   .     A
C1001  C1009   1.416   .     A
C1002  O1037   1.373   .     S
C1002  C1004   1.412   .     A
C1002  C1010   1.404   .     A
C1003  O893    1.382   1_655 S
C1005  C1007   1.418   .     A
C1005  F1030   1.352   .     S
C1006  C1008   1.413   .     A
C1006  F1029   1.351   .     S
C1007  C1009   1.420   .     A
C1007  C1011   1.440   .     A
C1008  C1012   1.435   .     A
C1008  C1010   1.413   .     A
C1009  C355    1.404   1_556 S
C1011  C382    1.428   1_556 S
Cu1013 O1026   1.921   .     S
Cu1013 O1019   1.964   .     S
Cu1013 O1022   1.959   .     S
Cu1013 N1017   2.037   .     S
Cu1013 O1023   1.913   .     S
Cu1014 O1021   1.959   .     S
Cu1014 O1025   1.921   .     S
Cu1014 O1020   1.964   .     S
Cu1014 O1024   1.913   .     S
Cu1014 N1018   2.037   .     S
Cu1014 Cu873   2.710   1_655 S
O1021  C841    1.299   1_655 S
O1024  C858    1.313   1_655 S
O1031  H1032   0.989   .     S
O1031  C864    1.382   1_655 S
O1033  H1034   0.990   .     S
O1035  H406    0.991   1_556 S
O1037  H1038   0.991   .     S
O1039  H1040   0.993   .     S
O1041  H1042   0.993   .     S
O1047  H1048   0.981   .     S
O1049  H1050   0.981   .     S
C1051  C1062   1.449   .     S
C1051  O1089   1.302   .     A
C1051  O1231   1.299   1_455 S
C1052  O1090   1.302   .     A
C1052  C1061   1.449   .     S
C1052  O1162   1.299   .     S
C1053  C1082   1.411   .     A
C1053  C1055   1.386   .     A
C1053  O1109   1.375   .     S
C1054  C1081   1.415   .     A
C1054  C1056   1.391   .     A
C1054  O1111   1.376   .     S
C1055  F1097   1.354   .     S
C1056  F1098   1.359   .     S
C1056  C450    1.404   1_556 S
C1057  F1113   1.359   .     S
C1057  C1132   1.404   .     S
C1058  F1114   1.359   .     S
C1058  C640    1.385   1_565 S
C1058  C1201   1.404   1_455 S
C1059  C1061   1.402   .     A
C1059  F1115   1.359   .     S
C1059  C637    1.385   1_565 S
C1060  C1062   1.402   .     A
C1060  F1116   1.359   .     S
C1061  C1128   1.404   .     S
C1062  C1197   1.404   1_455 S
C1063  C1065   1.417   .     A
C1063  N1088   1.357   .     A
C1063  H1085   1.082   .     S
C1064  N1087   1.358   .     A
C1064  H1086   1.080   .     S
C1064  C1066   1.417   .     A
C1065  O1117   1.373   .     S
C1065  N1087   1.391   .     A
C1066  N1088   1.391   .     A
C1066  O1119   1.374   .     S
C1067  C1069   1.474   .     S
C1067  O1095   1.300   .     A
C1067  O1163   1.311   .     S
C1068  C1070   1.482   .     S
C1068  O1096   1.302   .     A
C1068  O1234   1.313   1_455 S
C1069  C1073   1.399   .     A
C1069  C1075   1.410   .     A
C1070  C1076   1.411   .     A
C1070  C1074   1.411   .     A
C1071  O1105   1.381   .     S
C1071  C1073   1.407   .     A
C1071  C1079   1.416   .     A
C1072  O1107   1.373   .     S
C1072  C1074   1.412   .     A
C1072  C1080   1.404   .     A
C1073  O1173   1.382   .     S
C1074  O1241   1.382   1_455 S
C1075  C1077   1.418   .     A
C1075  F1100   1.352   .     S
C1076  C1078   1.413   .     A
C1076  F1099   1.351   .     S
C1077  C1079   1.420   .     A
C1077  C1081   1.440   .     A
C1078  C1082   1.435   .     A
C1078  C1080   1.413   .     A
C1079  C425    1.404   1_556 S
C1081  C452    1.428   1_556 S
Cu1083 O1096   1.921   .     S
Cu1083 O1089   1.964   .     S
Cu1083 O1092   1.959   .     S
Cu1083 N1087   2.037   .     S
Cu1083 O1093   1.913   .     S
Cu1083 Cu1224  2.710   1_455 S
Cu1084 O1091   1.959   .     S
Cu1084 O1095   1.921   .     S
Cu1084 O1090   1.964   .     S
Cu1084 O1094   1.913   .     S
Cu1084 N1088   2.037   .     S
Cu1084 Cu1153  2.710   .     S
O1091  C1121   1.299   .     S
O1092  C1192   1.299   1_455 S
O1093  C1207   1.311   1_455 S
O1094  C1138   1.313   .     S
O1101  H1102   0.989   .     S
O1101  C1144   1.382   .     S
O1103  H1104   0.990   .     S
O1103  C1213   1.382   1_455 S
O1105  H476    0.991   1_556 S
O1107  H1108   0.991   .     S
O1109  H1110   0.993   .     S
O1111  H1112   0.993   .     S
O1117  H1118   0.981   .     S
O1119  H1120   0.981   .     S
C1121  C1132   1.449   .     S
C1121  O1159   1.302   .     A
C1122  O1160   1.302   .     A
C1122  C1131   1.449   .     S
C1122  O1232   1.299   .     S
C1123  C1152   1.411   .     A
C1123  C1125   1.386   .     A
C1123  O1179   1.375   .     S
C1124  C1151   1.415   .     A
C1124  C1126   1.391   .     A
C1124  O1181   1.376   .     S
C1125  F1167   1.354   .     S
C1126  F1168   1.359   .     S
C1126  C520    1.404   1_556 S
C1127  F1183   1.359   .     S
C1127  C1202   1.404   .     S
C1128  F1184   1.359   .     S
C1128  C710    1.385   1_565 S
C1129  C1131   1.402   .     A
C1129  F1185   1.359   .     S
C1129  C707    1.385   1_565 S
C1130  C1132   1.402   .     A
C1130  F1186   1.359   .     S
C1131  C1198   1.404   .     S
C1133  C1135   1.417   .     A
C1133  N1158   1.357   .     A
C1133  H1155   1.082   .     S
C1134  N1157   1.358   .     A
C1134  H1156   1.080   .     S
C1134  C1136   1.417   .     A
C1135  O1187   1.373   .     S
C1135  N1157   1.391   .     A
C1136  N1158   1.391   .     A
C1136  O1189   1.374   .     S
C1137  C1139   1.474   .     S
C1137  O1165   1.300   .     A
C1137  O1233   1.311   .     S
C1138  C1140   1.482   .     S
C1138  O1166   1.302   .     A
C1139  C1143   1.399   .     A
C1139  C1145   1.410   .     A
C1140  C1146   1.411   .     A
C1140  C1144   1.411   .     A
C1141  O1175   1.381   .     S
C1141  C1143   1.407   .     A
C1141  C1149   1.416   .     A
C1142  O1177   1.373   .     S
C1142  C1144   1.412   .     A
C1142  C1150   1.404   .     A
C1143  O1243   1.382   .     S
C1145  C1147   1.418   .     A
C1145  F1170   1.352   .     S
C1146  C1148   1.413   .     A
C1146  F1169   1.351   .     S
C1147  C1149   1.420   .     A
C1147  C1151   1.440   .     A
C1148  C1152   1.435   .     A
C1148  C1150   1.413   .     A
C1149  C495    1.404   1_556 S
C1151  C522    1.428   1_556 S
Cu1153 O1166   1.921   .     S
Cu1153 O1159   1.964   .     S
Cu1153 O1162   1.959   .     S
Cu1153 N1157   2.037   .     S
Cu1153 O1163   1.913   .     S
Cu1154 O1161   1.959   .     S
Cu1154 O1165   1.921   .     S
Cu1154 O1160   1.964   .     S
Cu1154 O1164   1.913   .     S
Cu1154 N1158   2.037   .     S
Cu1154 Cu1223  2.710   .     S
O1161  C1191   1.299   .     S
O1164  C1208   1.313   .     S
O1171  H1172   0.989   .     S
O1171  C1214   1.382   .     S
O1173  H1174   0.990   .     S
O1175  H546    0.991   1_556 S
O1177  H1178   0.991   .     S
O1179  H1180   0.993   .     S
O1181  H1182   0.993   .     S
O1187  H1188   0.981   .     S
O1189  H1190   0.981   .     S
C1191  C1202   1.449   .     S
C1191  O1229   1.302   .     A
C1192  O1230   1.302   .     A
C1192  C1201   1.449   .     S
C1192  O1092   1.299   1_655 S
C1193  C1222   1.411   .     A
C1193  C1195   1.386   .     A
C1193  O1249   1.375   .     S
C1194  C1221   1.415   .     A
C1194  C1196   1.391   .     A
C1194  O1251   1.376   .     S
C1195  F1237   1.354   .     S
C1196  F1238   1.359   .     S
C1196  C590    1.404   1_556 S
C1197  F1253   1.359   .     S
C1197  C1062   1.404   1_655 S
C1198  F1254   1.359   .     S
C1198  C780    1.385   1_565 S
C1199  C1201   1.402   .     A
C1199  F1255   1.359   .     S
C1199  C777    1.385   1_565 S
C1200  C1202   1.402   .     A
C1200  F1256   1.359   .     S
C1201  C1058   1.404   1_655 S
C1203  C1205   1.417   .     A
C1203  N1228   1.357   .     A
C1203  H1225   1.082   .     S
C1204  N1227   1.358   .     A
C1204  H1226   1.080   .     S
C1204  C1206   1.417   .     A
C1205  O1257   1.373   .     S
C1205  N1227   1.391   .     A
C1206  N1228   1.391   .     A
C1206  O1259   1.374   .     S
C1207  C1209   1.474   .     S
C1207  O1235   1.300   .     A
C1207  O1093   1.311   1_655 S
C1208  C1210   1.482   .     S
C1208  O1236   1.302   .     A
C1209  C1213   1.399   .     A
C1209  C1215   1.410   .     A
C1210  C1216   1.411   .     A
C1210  C1214   1.411   .     A
C1211  O1245   1.381   .     S
C1211  C1213   1.407   .     A
C1211  C1219   1.416   .     A
C1212  O1247   1.373   .     S
C1212  C1214   1.412   .     A
C1212  C1220   1.404   .     A
C1213  O1103   1.382   1_655 S
C1215  C1217   1.418   .     A
C1215  F1240   1.352   .     S
C1216  C1218   1.413   .     A
C1216  F1239   1.351   .     S
C1217  C1219   1.420   .     A
C1217  C1221   1.440   .     A
C1218  C1222   1.435   .     A
C1218  C1220   1.413   .     A
C1219  C565    1.404   1_556 S
C1221  C592    1.428   1_556 S
Cu1223 O1236   1.921   .     S
Cu1223 O1229   1.964   .     S
Cu1223 O1232   1.959   .     S
Cu1223 N1227   2.037   .     S
Cu1223 O1233   1.913   .     S
Cu1224 O1231   1.959   .     S
Cu1224 O1235   1.921   .     S
Cu1224 O1230   1.964   .     S
Cu1224 O1234   1.913   .     S
Cu1224 N1228   2.037   .     S
Cu1224 Cu1083  2.710   1_655 S
O1231  C1051   1.299   1_655 S
O1234  C1068   1.313   1_655 S
O1241  H1242   0.989   .     S
O1241  C1074   1.382   1_655 S
O1243  H1244   0.990   .     S
O1245  H616    0.991   1_556 S
O1247  H1248   0.991   .     S
O1249  H1250   0.993   .     S
O1251  H1252   0.993   .     S
O1257  H1258   0.981   .     S
O1259  H1260   0.981   .     S
