data_str_m3_o1_o18_pcu_sym.27
_audit_creation_date              2020-01-03
_audit_creation_method            'Materials Studio'
_symmetry_space_group_name_H-M    'P1'
_symmetry_Int_Tables_number       1
_symmetry_cell_setting            triclinic
loop_
_symmetry_equiv_pos_as_xyz
  x,y,z
_cell_length_a                    29.7773
_cell_length_b                    32.0248
_cell_length_c                    30.9955
_cell_angle_alpha                 93.3308
_cell_angle_beta                  68.8133
_cell_angle_gamma                 92.6013
loop_
_atom_site_label
_atom_site_type_symbol
_atom_site_fract_x
_atom_site_fract_y
_atom_site_fract_z
_atom_site_U_iso_or_equiv
_atom_site_adp_type
_atom_site_occupancy
C1     C     0.16739   0.24651   0.25134   0.00000  Uiso   1.00
C2     C     0.16028   0.30847   0.21532   0.00000  Uiso   1.00
C3     C     0.16214   0.04210   0.25286   0.00000  Uiso   1.00
C4     C     0.17068   0.29063   0.25051   0.00000  Uiso   1.00
C5     C     0.31943   0.13910   0.22101   0.00000  Uiso   1.00
C6     C     0.01316   0.19328   0.27986   0.00000  Uiso   1.00
C7     C     0.03408   0.14005   0.22100   0.00000  Uiso   1.00
C8     C     0.29954   0.19390   0.27817   0.00000  Uiso   1.00
C9     C     0.13676   0.16539   0.33771   0.00000  Uiso   1.00
C10    C     0.19662   0.16552   0.16220   0.00000  Uiso   1.00
C11    C     0.11981   0.15565   0.38657   0.00000  Uiso   1.00
C12    C     0.16557   0.08654   0.24980   0.00000  Uiso   1.00
C13    C     0.21483   0.16011   0.11181   0.00000  Uiso   1.00
C14    C     0.06157   0.12439   0.45401   0.00000  Uiso   1.00
C15    C     0.27939   0.16279   0.03740   0.00000  Uiso   1.00
C16    C     0.07353   0.13904   0.40958   0.00000  Uiso   1.00
C17    C     0.26363   0.16677   0.08546   0.00000  Uiso   1.00
C18    C     0.15395   0.15673   0.40784   0.00000  Uiso   1.00
C19    C     0.18246   0.14742   0.09007   0.00000  Uiso   1.00
C20    C     0.14366   0.14003   0.45098   0.00000  Uiso   1.00
C21    C     0.19758   0.14262   0.04183   0.00000  Uiso   1.00
C22    C     0.09602   0.12580   0.47533   0.00000  Uiso   1.00
C23    C     0.11688   0.11769   0.04271   0.00000  Uiso   1.00
C24    C     0.24664   0.15154   0.01537   0.00000  Uiso   1.00
C25    C     0.17912   0.13933   0.47137   0.00000  Uiso   1.00
C26    C     0.16438   0.13284   0.01922   0.00000  Uiso   1.00
C27    C     0.18484   0.29482   0.32781   0.00000  Uiso   1.00
C28    C     0.13571   0.28543   0.36530   0.00000  Uiso   1.00
C29    C     0.14134   0.27156   0.40929   0.00000  Uiso   1.00
C30    C     0.10659   0.02752   0.20628   0.00000  Uiso   1.00
C31    C     0.05990   0.00912   0.24166   0.00000  Uiso   1.00
C32    C     0.01498   0.02231   0.23448   0.00000  Uiso   1.00
C33    C     0.30445   0.10487   0.19249   0.00000  Uiso   1.00
C34    C     0.22875   0.14486   0.44547   0.00000  Uiso   1.00
C35    C     0.01003   0.09094   0.14647   0.00000  Uiso   1.00
C36    C     0.32243   0.05899   0.11975   0.00000  Uiso   1.00
C37    C     0.02313   0.22299   0.31540   0.00000  Uiso   1.00
C38    C     0.32783   0.21129   0.36571   0.00000  Uiso   1.00
C39    C     0.28375   0.23825   0.38952   0.00000  Uiso   1.00
C40    C     0.08352   0.11352   0.02063   0.00000  Uiso   1.00
C41    C     0.26206   0.15028   0.46727   0.00000  Uiso   1.00
C42    C     0.17841   0.31472   0.28695   0.00000  Uiso   1.00
C43    C     0.14813   0.01675   0.22080   0.00000  Uiso   1.00
C44    C     0.17639   0.02474   0.28644   0.00000  Uiso   1.00
Cl45   Cl    0.18520   0.05729   0.33139   0.00000  Uiso   1.00
Cl46   Cl    0.15703   0.27759   0.16685   0.00000  Uiso   1.00
H47    H     0.04730   0.10226   0.03945   0.00000  Uiso   1.00
H48    H     0.24259   0.14434   0.40812   0.00000  Uiso   1.00
H49    H     0.06074   0.11910   0.19866   0.00000  Uiso   1.00
H50    H     0.27367   0.21598   0.29975   0.00000  Uiso   1.00
H51    H     0.16539   0.24451   0.40128   0.00000  Uiso   1.00
H52    H     0.15685   0.29761   0.42518   0.00000  Uiso   1.00
H53    H     0.10557   0.26220   0.43456   0.00000  Uiso   1.00
H54    H     0.11347   0.31385   0.37405   0.00000  Uiso   1.00
H55    H     0.11638   0.26028   0.35217   0.00000  Uiso   1.00
H56    H     0.20555   0.26580   0.31716   0.00000  Uiso   1.00
H57    H     0.20705   0.31543   0.34268   0.00000  Uiso   1.00
H58    H     0.29967   0.15554   0.44659   0.00000  Uiso   1.00
H59    H     0.01085   0.05630   0.24271   0.00000  Uiso   1.00
H60    H     0.01740   0.01455   0.19835   0.00000  Uiso   1.00
H61    H     0.31620   0.00575   0.25845   0.00000  Uiso   1.00
H62    H     0.06077   0.30769   0.23897   0.00000  Uiso   1.00
H63    H     0.05708   0.01944   0.27744   0.00000  Uiso   1.00
H64    H     0.10358   0.06121   0.20329   0.00000  Uiso   1.00
H65    H     0.11154   0.01408   0.17109   0.00000  Uiso   1.00
H66    H     0.30428   0.03257   0.14182   0.00000  Uiso   1.00
H67    H     0.29602   0.07400   0.10822   0.00000  Uiso   1.00
H68    H     0.01844   0.04610   0.08889   0.00000  Uiso   1.00
H69    H     0.14497   0.14331   0.11132   0.00000  Uiso   1.00
H70    H     0.02430   0.11871   0.12535   0.00000  Uiso   1.00
H71    H     0.03998   0.07586   0.15234   0.00000  Uiso   1.00
H72    H     0.29003   0.07749   0.21408   0.00000  Uiso   1.00
H73    H     0.27519   0.11549   0.18308   0.00000  Uiso   1.00
H74    H     0.29388   0.27202   0.38582   0.00000  Uiso   1.00
H75    H     0.25521   0.23062   0.37511   0.00000  Uiso   1.00
H76    H     0.26863   0.23224   0.42703   0.00000  Uiso   1.00
H77    H     0.31682   0.17767   0.36693   0.00000  Uiso   1.00
H78    H     0.01838   0.21588   0.38624   0.00000  Uiso   1.00
H79    H     0.06084   0.22316   0.31170   0.00000  Uiso   1.00
H80    H     0.18871   0.17129   0.39028   0.00000  Uiso   1.00
H81    H     0.01601   0.25553   0.30937   0.00000  Uiso   1.00
H82    H     0.28924   0.17614   0.10189   0.00000  Uiso   1.00
H83    H     0.04724   0.13639   0.39284   0.00000  Uiso   1.00
H84    H     0.02569   0.11151   0.47147   0.00000  Uiso   1.00
H85    H     0.31679   0.17004   0.01750   0.00000  Uiso   1.00
H86    H     0.10529   0.10765   0.07773   0.00000  Uiso   1.00
N87    N     0.04759   0.16668   0.25001   0.00000  Uiso   1.00
N88    N     0.28574   0.16666   0.24999   0.00000  Uiso   1.00
O89    O     0.12846   0.22775   0.25001   0.00000  Uiso   1.00
O90    O     0.20488   0.10558   0.25000   0.00000  Uiso   1.00
O91    O     0.20490   0.22774   0.25000   0.00000  Uiso   1.00
O92    O     0.12843   0.10559   0.25000   0.00000  Uiso   1.00
O93    O     0.10661   0.16667   0.31613   0.00000  Uiso   1.00
O94    O     0.22672   0.16666   0.18388   0.00000  Uiso   1.00
O95    O     0.18305   0.16666   0.31612   0.00000  Uiso   1.00
O96    O     0.15028   0.16667   0.18388   0.00000  Uiso   1.00
Zn97   Zn    0.11562   0.16667   0.25000   0.00000  Uiso   1.00
Zn98   Zn    0.21771   0.16666   0.25000   0.00000  Uiso   1.00
C99    C     0.50072   0.24651   0.25134   0.00000  Uiso   1.00
C100   C     0.49361   0.30847   0.21532   0.00000  Uiso   1.00
C101   C     0.49548   0.04210   0.25286   0.00000  Uiso   1.00
C102   C     0.50402   0.29063   0.25051   0.00000  Uiso   1.00
C103   C     0.65277   0.13910   0.22101   0.00000  Uiso   1.00
C104   C     0.34650   0.19328   0.27986   0.00000  Uiso   1.00
C105   C     0.36741   0.14005   0.22100   0.00000  Uiso   1.00
C106   C     0.63287   0.19390   0.27817   0.00000  Uiso   1.00
C107   C     0.47010   0.16539   0.33771   0.00000  Uiso   1.00
C108   C     0.52995   0.16552   0.16220   0.00000  Uiso   1.00
C109   C     0.45315   0.15565   0.38657   0.00000  Uiso   1.00
C110   C     0.49890   0.08654   0.24980   0.00000  Uiso   1.00
C111   C     0.54817   0.16011   0.11181   0.00000  Uiso   1.00
C112   C     0.39490   0.12439   0.45401   0.00000  Uiso   1.00
C113   C     0.61273   0.16279   0.03740   0.00000  Uiso   1.00
C114   C     0.40686   0.13904   0.40958   0.00000  Uiso   1.00
C115   C     0.59696   0.16677   0.08546   0.00000  Uiso   1.00
C116   C     0.48728   0.15673   0.40784   0.00000  Uiso   1.00
C117   C     0.51579   0.14742   0.09007   0.00000  Uiso   1.00
C118   C     0.47699   0.14003   0.45098   0.00000  Uiso   1.00
C119   C     0.53091   0.14262   0.04183   0.00000  Uiso   1.00
C120   C     0.42936   0.12580   0.47533   0.00000  Uiso   1.00
C121   C     0.45021   0.11769   0.04271   0.00000  Uiso   1.00
C122   C     0.57998   0.15154   0.01537   0.00000  Uiso   1.00
C123   C     0.51245   0.13933   0.47137   0.00000  Uiso   1.00
C124   C     0.49772   0.13284   0.01922   0.00000  Uiso   1.00
C125   C     0.51817   0.29482   0.32781   0.00000  Uiso   1.00
C126   C     0.46905   0.28543   0.36530   0.00000  Uiso   1.00
C127   C     0.47467   0.27156   0.40929   0.00000  Uiso   1.00
C128   C     0.43993   0.02752   0.20628   0.00000  Uiso   1.00
C129   C     0.39324   0.00912   0.24166   0.00000  Uiso   1.00
C130   C     0.34831   0.02231   0.23448   0.00000  Uiso   1.00
C131   C     0.63778   0.10487   0.19249   0.00000  Uiso   1.00
C132   C     0.56208   0.14486   0.44547   0.00000  Uiso   1.00
C133   C     0.34336   0.09094   0.14647   0.00000  Uiso   1.00
C134   C     0.65577   0.05899   0.11975   0.00000  Uiso   1.00
C135   C     0.35646   0.22299   0.31540   0.00000  Uiso   1.00
C136   C     0.66116   0.21129   0.36571   0.00000  Uiso   1.00
C137   C     0.61709   0.23825   0.38952   0.00000  Uiso   1.00
C138   C     0.41686   0.11352   0.02063   0.00000  Uiso   1.00
C139   C     0.59540   0.15028   0.46727   0.00000  Uiso   1.00
C140   C     0.51175   0.31472   0.28695   0.00000  Uiso   1.00
C141   C     0.48146   0.01675   0.22080   0.00000  Uiso   1.00
C142   C     0.50972   0.02474   0.28644   0.00000  Uiso   1.00
Cl143  Cl    0.51854   0.05729   0.33139   0.00000  Uiso   1.00
Cl144  Cl    0.49036   0.27759   0.16685   0.00000  Uiso   1.00
H145   H     0.38063   0.10226   0.03945   0.00000  Uiso   1.00
H146   H     0.57592   0.14434   0.40812   0.00000  Uiso   1.00
H147   H     0.39408   0.11910   0.19866   0.00000  Uiso   1.00
H148   H     0.60701   0.21598   0.29975   0.00000  Uiso   1.00
H149   H     0.49872   0.24451   0.40128   0.00000  Uiso   1.00
H150   H     0.49018   0.29761   0.42518   0.00000  Uiso   1.00
H151   H     0.43890   0.26220   0.43456   0.00000  Uiso   1.00
H152   H     0.44680   0.31385   0.37405   0.00000  Uiso   1.00
H153   H     0.44971   0.26028   0.35217   0.00000  Uiso   1.00
H154   H     0.53888   0.26580   0.31716   0.00000  Uiso   1.00
H155   H     0.54038   0.31543   0.34268   0.00000  Uiso   1.00
H156   H     0.63300   0.15554   0.44659   0.00000  Uiso   1.00
H157   H     0.34418   0.05630   0.24271   0.00000  Uiso   1.00
H158   H     0.35074   0.01455   0.19835   0.00000  Uiso   1.00
H159   H     0.64953   0.00575   0.25845   0.00000  Uiso   1.00
H160   H     0.39410   0.30769   0.23897   0.00000  Uiso   1.00
H161   H     0.39041   0.01944   0.27744   0.00000  Uiso   1.00
H162   H     0.43691   0.06121   0.20329   0.00000  Uiso   1.00
H163   H     0.44488   0.01408   0.17109   0.00000  Uiso   1.00
H164   H     0.63762   0.03257   0.14182   0.00000  Uiso   1.00
H165   H     0.62935   0.07400   0.10822   0.00000  Uiso   1.00
H166   H     0.35177   0.04610   0.08889   0.00000  Uiso   1.00
H167   H     0.47831   0.14331   0.11132   0.00000  Uiso   1.00
H168   H     0.35763   0.11871   0.12535   0.00000  Uiso   1.00
H169   H     0.37331   0.07586   0.15234   0.00000  Uiso   1.00
H170   H     0.62336   0.07749   0.21408   0.00000  Uiso   1.00
H171   H     0.60852   0.11549   0.18308   0.00000  Uiso   1.00
H172   H     0.62721   0.27202   0.38582   0.00000  Uiso   1.00
H173   H     0.58855   0.23062   0.37511   0.00000  Uiso   1.00
H174   H     0.60196   0.23224   0.42703   0.00000  Uiso   1.00
H175   H     0.65016   0.17767   0.36693   0.00000  Uiso   1.00
H176   H     0.35171   0.21588   0.38624   0.00000  Uiso   1.00
H177   H     0.39418   0.22316   0.31170   0.00000  Uiso   1.00
H178   H     0.52205   0.17129   0.39028   0.00000  Uiso   1.00
H179   H     0.34935   0.25553   0.30937   0.00000  Uiso   1.00
H180   H     0.62257   0.17614   0.10189   0.00000  Uiso   1.00
H181   H     0.38057   0.13639   0.39284   0.00000  Uiso   1.00
H182   H     0.35902   0.11151   0.47147   0.00000  Uiso   1.00
H183   H     0.65013   0.17004   0.01750   0.00000  Uiso   1.00
H184   H     0.43862   0.10765   0.07773   0.00000  Uiso   1.00
N185   N     0.38093   0.16668   0.25001   0.00000  Uiso   1.00
N186   N     0.61907   0.16666   0.24999   0.00000  Uiso   1.00
O187   O     0.46179   0.22775   0.25001   0.00000  Uiso   1.00
O188   O     0.53821   0.10558   0.25000   0.00000  Uiso   1.00
O189   O     0.53823   0.22774   0.25000   0.00000  Uiso   1.00
O190   O     0.46177   0.10559   0.25000   0.00000  Uiso   1.00
O191   O     0.43994   0.16667   0.31613   0.00000  Uiso   1.00
O192   O     0.56006   0.16666   0.18388   0.00000  Uiso   1.00
O193   O     0.51639   0.16666   0.31612   0.00000  Uiso   1.00
O194   O     0.48361   0.16667   0.18388   0.00000  Uiso   1.00
Zn195  Zn    0.44896   0.16667   0.25000   0.00000  Uiso   1.00
Zn196  Zn    0.55104   0.16666   0.25000   0.00000  Uiso   1.00
C197   C     0.83405   0.24651   0.25134   0.00000  Uiso   1.00
C198   C     0.82694   0.30847   0.21532   0.00000  Uiso   1.00
C199   C     0.82881   0.04210   0.25286   0.00000  Uiso   1.00
C200   C     0.83735   0.29063   0.25051   0.00000  Uiso   1.00
C201   C     0.98610   0.13910   0.22101   0.00000  Uiso   1.00
C202   C     0.67983   0.19328   0.27986   0.00000  Uiso   1.00
C203   C     0.70075   0.14005   0.22100   0.00000  Uiso   1.00
C204   C     0.96621   0.19390   0.27817   0.00000  Uiso   1.00
C205   C     0.80343   0.16539   0.33771   0.00000  Uiso   1.00
C206   C     0.86328   0.16552   0.16220   0.00000  Uiso   1.00
C207   C     0.78648   0.15565   0.38657   0.00000  Uiso   1.00
C208   C     0.83224   0.08654   0.24980   0.00000  Uiso   1.00
C209   C     0.88150   0.16011   0.11181   0.00000  Uiso   1.00
C210   C     0.72824   0.12439   0.45401   0.00000  Uiso   1.00
C211   C     0.94606   0.16279   0.03740   0.00000  Uiso   1.00
C212   C     0.74019   0.13904   0.40958   0.00000  Uiso   1.00
C213   C     0.93029   0.16677   0.08546   0.00000  Uiso   1.00
C214   C     0.82061   0.15673   0.40784   0.00000  Uiso   1.00
C215   C     0.84912   0.14742   0.09007   0.00000  Uiso   1.00
C216   C     0.81033   0.14003   0.45098   0.00000  Uiso   1.00
C217   C     0.86424   0.14262   0.04183   0.00000  Uiso   1.00
C218   C     0.76269   0.12580   0.47533   0.00000  Uiso   1.00
C219   C     0.78355   0.11769   0.04271   0.00000  Uiso   1.00
C220   C     0.91331   0.15154   0.01537   0.00000  Uiso   1.00
C221   C     0.84579   0.13933   0.47137   0.00000  Uiso   1.00
C222   C     0.83105   0.13284   0.01922   0.00000  Uiso   1.00
C223   C     0.85150   0.29482   0.32781   0.00000  Uiso   1.00
C224   C     0.80238   0.28543   0.36530   0.00000  Uiso   1.00
C225   C     0.80800   0.27156   0.40929   0.00000  Uiso   1.00
C226   C     0.77326   0.02752   0.20628   0.00000  Uiso   1.00
C227   C     0.72657   0.00912   0.24166   0.00000  Uiso   1.00
C228   C     0.68165   0.02231   0.23448   0.00000  Uiso   1.00
C229   C     0.97112   0.10487   0.19249   0.00000  Uiso   1.00
C230   C     0.89541   0.14486   0.44547   0.00000  Uiso   1.00
C231   C     0.67670   0.09094   0.14647   0.00000  Uiso   1.00
C232   C     0.98910   0.05899   0.11975   0.00000  Uiso   1.00
C233   C     0.68980   0.22299   0.31540   0.00000  Uiso   1.00
C234   C     0.99450   0.21129   0.36571   0.00000  Uiso   1.00
C235   C     0.95042   0.23825   0.38952   0.00000  Uiso   1.00
C236   C     0.75019   0.11352   0.02063   0.00000  Uiso   1.00
C237   C     0.92873   0.15028   0.46727   0.00000  Uiso   1.00
C238   C     0.84508   0.31472   0.28695   0.00000  Uiso   1.00
C239   C     0.81480   0.01675   0.22080   0.00000  Uiso   1.00
C240   C     0.84306   0.02474   0.28644   0.00000  Uiso   1.00
Cl241  Cl    0.85187   0.05729   0.33139   0.00000  Uiso   1.00
Cl242  Cl    0.82370   0.27759   0.16685   0.00000  Uiso   1.00
H243   H     0.71397   0.10226   0.03945   0.00000  Uiso   1.00
H244   H     0.90925   0.14434   0.40812   0.00000  Uiso   1.00
H245   H     0.72741   0.11910   0.19866   0.00000  Uiso   1.00
H246   H     0.94034   0.21598   0.29975   0.00000  Uiso   1.00
H247   H     0.83206   0.24451   0.40128   0.00000  Uiso   1.00
H248   H     0.82351   0.29761   0.42518   0.00000  Uiso   1.00
H249   H     0.77224   0.26220   0.43456   0.00000  Uiso   1.00
H250   H     0.78014   0.31385   0.37405   0.00000  Uiso   1.00
H251   H     0.78305   0.26028   0.35217   0.00000  Uiso   1.00
H252   H     0.87221   0.26580   0.31716   0.00000  Uiso   1.00
H253   H     0.87371   0.31543   0.34268   0.00000  Uiso   1.00
H254   H     0.96634   0.15554   0.44659   0.00000  Uiso   1.00
H255   H     0.67751   0.05630   0.24271   0.00000  Uiso   1.00
H256   H     0.68407   0.01455   0.19835   0.00000  Uiso   1.00
H257   H     0.98287   0.00575   0.25845   0.00000  Uiso   1.00
H258   H     0.72743   0.30769   0.23897   0.00000  Uiso   1.00
H259   H     0.72374   0.01944   0.27744   0.00000  Uiso   1.00
H260   H     0.77025   0.06121   0.20329   0.00000  Uiso   1.00
H261   H     0.77821   0.01408   0.17109   0.00000  Uiso   1.00
H262   H     0.97095   0.03257   0.14182   0.00000  Uiso   1.00
H263   H     0.96269   0.07400   0.10822   0.00000  Uiso   1.00
H264   H     0.68511   0.04610   0.08889   0.00000  Uiso   1.00
H265   H     0.81164   0.14331   0.11132   0.00000  Uiso   1.00
H266   H     0.69096   0.11871   0.12535   0.00000  Uiso   1.00
H267   H     0.70664   0.07586   0.15234   0.00000  Uiso   1.00
H268   H     0.95670   0.07749   0.21408   0.00000  Uiso   1.00
H269   H     0.94186   0.11549   0.18308   0.00000  Uiso   1.00
H270   H     0.96055   0.27202   0.38582   0.00000  Uiso   1.00
H271   H     0.92188   0.23062   0.37511   0.00000  Uiso   1.00
H272   H     0.93529   0.23224   0.42703   0.00000  Uiso   1.00
H273   H     0.98349   0.17767   0.36693   0.00000  Uiso   1.00
H274   H     0.68504   0.21588   0.38624   0.00000  Uiso   1.00
H275   H     0.72751   0.22316   0.31170   0.00000  Uiso   1.00
H276   H     0.85538   0.17129   0.39028   0.00000  Uiso   1.00
H277   H     0.68268   0.25553   0.30937   0.00000  Uiso   1.00
H278   H     0.95591   0.17614   0.10189   0.00000  Uiso   1.00
H279   H     0.71390   0.13639   0.39284   0.00000  Uiso   1.00
H280   H     0.69235   0.11151   0.47147   0.00000  Uiso   1.00
H281   H     0.98346   0.17004   0.01750   0.00000  Uiso   1.00
H282   H     0.77196   0.10765   0.07773   0.00000  Uiso   1.00
N283   N     0.71426   0.16668   0.25001   0.00000  Uiso   1.00
N284   N     0.95241   0.16666   0.24999   0.00000  Uiso   1.00
O285   O     0.79512   0.22775   0.25001   0.00000  Uiso   1.00
O286   O     0.87154   0.10558   0.25000   0.00000  Uiso   1.00
O287   O     0.87157   0.22774   0.25000   0.00000  Uiso   1.00
O288   O     0.79510   0.10559   0.25000   0.00000  Uiso   1.00
O289   O     0.77328   0.16667   0.31613   0.00000  Uiso   1.00
O290   O     0.89339   0.16666   0.18388   0.00000  Uiso   1.00
O291   O     0.84972   0.16666   0.31612   0.00000  Uiso   1.00
O292   O     0.81695   0.16667   0.18388   0.00000  Uiso   1.00
Zn293  Zn    0.78229   0.16667   0.25000   0.00000  Uiso   1.00
Zn294  Zn    0.88438   0.16666   0.25000   0.00000  Uiso   1.00
C295   C     0.16739   0.57984   0.25134   0.00000  Uiso   1.00
C296   C     0.16028   0.64181   0.21532   0.00000  Uiso   1.00
C297   C     0.16214   0.37544   0.25286   0.00000  Uiso   1.00
C298   C     0.17068   0.62396   0.25051   0.00000  Uiso   1.00
C299   C     0.31943   0.47243   0.22101   0.00000  Uiso   1.00
C300   C     0.01316   0.52661   0.27986   0.00000  Uiso   1.00
C301   C     0.03408   0.47338   0.22100   0.00000  Uiso   1.00
C302   C     0.29954   0.52723   0.27817   0.00000  Uiso   1.00
C303   C     0.13676   0.49872   0.33771   0.00000  Uiso   1.00
C304   C     0.19662   0.49886   0.16220   0.00000  Uiso   1.00
C305   C     0.11981   0.48899   0.38657   0.00000  Uiso   1.00
C306   C     0.16557   0.41988   0.24980   0.00000  Uiso   1.00
C307   C     0.21483   0.49344   0.11181   0.00000  Uiso   1.00
C308   C     0.06157   0.45772   0.45401   0.00000  Uiso   1.00
C309   C     0.27939   0.49613   0.03740   0.00000  Uiso   1.00
C310   C     0.07353   0.47237   0.40958   0.00000  Uiso   1.00
C311   C     0.26363   0.50010   0.08546   0.00000  Uiso   1.00
C312   C     0.15395   0.49006   0.40784   0.00000  Uiso   1.00
C313   C     0.18246   0.48076   0.09007   0.00000  Uiso   1.00
C314   C     0.14366   0.47336   0.45098   0.00000  Uiso   1.00
C315   C     0.19758   0.47595   0.04183   0.00000  Uiso   1.00
C316   C     0.09602   0.45914   0.47533   0.00000  Uiso   1.00
C317   C     0.11688   0.45102   0.04271   0.00000  Uiso   1.00
C318   C     0.24664   0.48487   0.01537   0.00000  Uiso   1.00
C319   C     0.17912   0.47266   0.47137   0.00000  Uiso   1.00
C320   C     0.16438   0.46618   0.01922   0.00000  Uiso   1.00
C321   C     0.18484   0.62815   0.32781   0.00000  Uiso   1.00
C322   C     0.13571   0.61877   0.36530   0.00000  Uiso   1.00
C323   C     0.14134   0.60489   0.40929   0.00000  Uiso   1.00
C324   C     0.10659   0.36085   0.20628   0.00000  Uiso   1.00
C325   C     0.05990   0.34245   0.24166   0.00000  Uiso   1.00
C326   C     0.01498   0.35565   0.23448   0.00000  Uiso   1.00
C327   C     0.30445   0.43821   0.19249   0.00000  Uiso   1.00
C328   C     0.22875   0.47820   0.44547   0.00000  Uiso   1.00
C329   C     0.01003   0.42427   0.14647   0.00000  Uiso   1.00
C330   C     0.32243   0.39232   0.11975   0.00000  Uiso   1.00
C331   C     0.02313   0.55633   0.31540   0.00000  Uiso   1.00
C332   C     0.32783   0.54462   0.36571   0.00000  Uiso   1.00
C333   C     0.28375   0.57158   0.38952   0.00000  Uiso   1.00
C334   C     0.08352   0.44685   0.02063   0.00000  Uiso   1.00
C335   C     0.26206   0.48362   0.46727   0.00000  Uiso   1.00
C336   C     0.17841   0.64805   0.28695   0.00000  Uiso   1.00
C337   C     0.14813   0.35008   0.22080   0.00000  Uiso   1.00
C338   C     0.17639   0.35807   0.28644   0.00000  Uiso   1.00
Cl339  Cl    0.18520   0.39062   0.33139   0.00000  Uiso   1.00
Cl340  Cl    0.15703   0.61093   0.16685   0.00000  Uiso   1.00
H341   H     0.04730   0.43559   0.03945   0.00000  Uiso   1.00
H342   H     0.24259   0.47768   0.40812   0.00000  Uiso   1.00
H343   H     0.06074   0.45243   0.19866   0.00000  Uiso   1.00
H344   H     0.27367   0.54931   0.29975   0.00000  Uiso   1.00
H345   H     0.16539   0.57785   0.40128   0.00000  Uiso   1.00
H346   H     0.15685   0.63095   0.42518   0.00000  Uiso   1.00
H347   H     0.10557   0.59553   0.43456   0.00000  Uiso   1.00
H348   H     0.11347   0.64718   0.37405   0.00000  Uiso   1.00
H349   H     0.11638   0.59361   0.35217   0.00000  Uiso   1.00
H350   H     0.20555   0.59914   0.31716   0.00000  Uiso   1.00
H351   H     0.20705   0.64876   0.34268   0.00000  Uiso   1.00
H352   H     0.29967   0.48887   0.44659   0.00000  Uiso   1.00
H353   H     0.01085   0.38963   0.24271   0.00000  Uiso   1.00
H354   H     0.01740   0.34788   0.19835   0.00000  Uiso   1.00
H355   H     0.31620   0.33909   0.25845   0.00000  Uiso   1.00
H356   H     0.06077   0.64103   0.23897   0.00000  Uiso   1.00
H357   H     0.05708   0.35277   0.27744   0.00000  Uiso   1.00
H358   H     0.10358   0.39455   0.20329   0.00000  Uiso   1.00
H359   H     0.11154   0.34742   0.17109   0.00000  Uiso   1.00
H360   H     0.30428   0.36590   0.14182   0.00000  Uiso   1.00
H361   H     0.29602   0.40734   0.10822   0.00000  Uiso   1.00
H362   H     0.01844   0.37943   0.08889   0.00000  Uiso   1.00
H363   H     0.14497   0.47665   0.11132   0.00000  Uiso   1.00
H364   H     0.02430   0.45204   0.12535   0.00000  Uiso   1.00
H365   H     0.03998   0.40919   0.15234   0.00000  Uiso   1.00
H366   H     0.29003   0.41083   0.21408   0.00000  Uiso   1.00
H367   H     0.27519   0.44882   0.18308   0.00000  Uiso   1.00
H368   H     0.29388   0.60536   0.38582   0.00000  Uiso   1.00
H369   H     0.25521   0.56395   0.37511   0.00000  Uiso   1.00
H370   H     0.26863   0.56558   0.42703   0.00000  Uiso   1.00
H371   H     0.31682   0.51100   0.36693   0.00000  Uiso   1.00
H372   H     0.01838   0.54921   0.38624   0.00000  Uiso   1.00
H373   H     0.06084   0.55649   0.31170   0.00000  Uiso   1.00
H374   H     0.18871   0.50462   0.39028   0.00000  Uiso   1.00
H375   H     0.01601   0.58886   0.30937   0.00000  Uiso   1.00
H376   H     0.28924   0.50947   0.10189   0.00000  Uiso   1.00
H377   H     0.04724   0.46973   0.39284   0.00000  Uiso   1.00
H378   H     0.02569   0.44484   0.47147   0.00000  Uiso   1.00
H379   H     0.31679   0.50337   0.01750   0.00000  Uiso   1.00
H380   H     0.10529   0.44098   0.07773   0.00000  Uiso   1.00
N381   N     0.04759   0.50001   0.25001   0.00000  Uiso   1.00
N382   N     0.28574   0.49999   0.24999   0.00000  Uiso   1.00
O383   O     0.12846   0.56108   0.25001   0.00000  Uiso   1.00
O384   O     0.20488   0.43892   0.25000   0.00000  Uiso   1.00
O385   O     0.20490   0.56107   0.25000   0.00000  Uiso   1.00
O386   O     0.12843   0.43893   0.25000   0.00000  Uiso   1.00
O387   O     0.10661   0.50001   0.31613   0.00000  Uiso   1.00
O388   O     0.22672   0.49999   0.18388   0.00000  Uiso   1.00
O389   O     0.18305   0.50000   0.31612   0.00000  Uiso   1.00
O390   O     0.15028   0.50000   0.18388   0.00000  Uiso   1.00
Zn391  Zn    0.11562   0.50001   0.25000   0.00000  Uiso   1.00
Zn392  Zn    0.21771   0.49999   0.25000   0.00000  Uiso   1.00
C393   C     0.50072   0.57984   0.25134   0.00000  Uiso   1.00
C394   C     0.49361   0.64181   0.21532   0.00000  Uiso   1.00
C395   C     0.49548   0.37544   0.25286   0.00000  Uiso   1.00
C396   C     0.50402   0.62396   0.25051   0.00000  Uiso   1.00
C397   C     0.65277   0.47243   0.22101   0.00000  Uiso   1.00
C398   C     0.34650   0.52661   0.27986   0.00000  Uiso   1.00
C399   C     0.36741   0.47338   0.22100   0.00000  Uiso   1.00
C400   C     0.63287   0.52723   0.27817   0.00000  Uiso   1.00
C401   C     0.47010   0.49872   0.33771   0.00000  Uiso   1.00
C402   C     0.52995   0.49886   0.16220   0.00000  Uiso   1.00
C403   C     0.45315   0.48899   0.38657   0.00000  Uiso   1.00
C404   C     0.49890   0.41988   0.24980   0.00000  Uiso   1.00
C405   C     0.54817   0.49344   0.11181   0.00000  Uiso   1.00
C406   C     0.39490   0.45772   0.45401   0.00000  Uiso   1.00
C407   C     0.61273   0.49613   0.03740   0.00000  Uiso   1.00
C408   C     0.40686   0.47237   0.40958   0.00000  Uiso   1.00
C409   C     0.59696   0.50010   0.08546   0.00000  Uiso   1.00
C410   C     0.48728   0.49006   0.40784   0.00000  Uiso   1.00
C411   C     0.51579   0.48076   0.09007   0.00000  Uiso   1.00
C412   C     0.47699   0.47336   0.45098   0.00000  Uiso   1.00
C413   C     0.53091   0.47595   0.04183   0.00000  Uiso   1.00
C414   C     0.42936   0.45914   0.47533   0.00000  Uiso   1.00
C415   C     0.45021   0.45102   0.04271   0.00000  Uiso   1.00
C416   C     0.57998   0.48487   0.01537   0.00000  Uiso   1.00
C417   C     0.51245   0.47266   0.47137   0.00000  Uiso   1.00
C418   C     0.49772   0.46618   0.01922   0.00000  Uiso   1.00
C419   C     0.51817   0.62815   0.32781   0.00000  Uiso   1.00
C420   C     0.46905   0.61877   0.36530   0.00000  Uiso   1.00
C421   C     0.47467   0.60489   0.40929   0.00000  Uiso   1.00
C422   C     0.43993   0.36085   0.20628   0.00000  Uiso   1.00
C423   C     0.39324   0.34245   0.24166   0.00000  Uiso   1.00
C424   C     0.34831   0.35565   0.23448   0.00000  Uiso   1.00
C425   C     0.63778   0.43821   0.19249   0.00000  Uiso   1.00
C426   C     0.56208   0.47820   0.44547   0.00000  Uiso   1.00
C427   C     0.34336   0.42427   0.14647   0.00000  Uiso   1.00
C428   C     0.65577   0.39232   0.11975   0.00000  Uiso   1.00
C429   C     0.35646   0.55633   0.31540   0.00000  Uiso   1.00
C430   C     0.66116   0.54462   0.36571   0.00000  Uiso   1.00
C431   C     0.61709   0.57158   0.38952   0.00000  Uiso   1.00
C432   C     0.41686   0.44685   0.02063   0.00000  Uiso   1.00
C433   C     0.59540   0.48362   0.46727   0.00000  Uiso   1.00
C434   C     0.51175   0.64805   0.28695   0.00000  Uiso   1.00
C435   C     0.48146   0.35008   0.22080   0.00000  Uiso   1.00
C436   C     0.50972   0.35807   0.28644   0.00000  Uiso   1.00
Cl437  Cl    0.51854   0.39062   0.33139   0.00000  Uiso   1.00
Cl438  Cl    0.49036   0.61093   0.16685   0.00000  Uiso   1.00
H439   H     0.38063   0.43559   0.03945   0.00000  Uiso   1.00
H440   H     0.57592   0.47768   0.40812   0.00000  Uiso   1.00
H441   H     0.39408   0.45243   0.19866   0.00000  Uiso   1.00
H442   H     0.60701   0.54931   0.29975   0.00000  Uiso   1.00
H443   H     0.49872   0.57785   0.40128   0.00000  Uiso   1.00
H444   H     0.49018   0.63095   0.42518   0.00000  Uiso   1.00
H445   H     0.43890   0.59553   0.43456   0.00000  Uiso   1.00
H446   H     0.44680   0.64718   0.37405   0.00000  Uiso   1.00
H447   H     0.44971   0.59361   0.35217   0.00000  Uiso   1.00
H448   H     0.53888   0.59914   0.31716   0.00000  Uiso   1.00
H449   H     0.54038   0.64876   0.34268   0.00000  Uiso   1.00
H450   H     0.63300   0.48887   0.44659   0.00000  Uiso   1.00
H451   H     0.34418   0.38963   0.24271   0.00000  Uiso   1.00
H452   H     0.35074   0.34788   0.19835   0.00000  Uiso   1.00
H453   H     0.64953   0.33909   0.25845   0.00000  Uiso   1.00
H454   H     0.39410   0.64103   0.23897   0.00000  Uiso   1.00
H455   H     0.39041   0.35277   0.27744   0.00000  Uiso   1.00
H456   H     0.43691   0.39455   0.20329   0.00000  Uiso   1.00
H457   H     0.44488   0.34742   0.17109   0.00000  Uiso   1.00
H458   H     0.63762   0.36590   0.14182   0.00000  Uiso   1.00
H459   H     0.62935   0.40734   0.10822   0.00000  Uiso   1.00
H460   H     0.35177   0.37943   0.08889   0.00000  Uiso   1.00
H461   H     0.47831   0.47665   0.11132   0.00000  Uiso   1.00
H462   H     0.35763   0.45204   0.12535   0.00000  Uiso   1.00
H463   H     0.37331   0.40919   0.15234   0.00000  Uiso   1.00
H464   H     0.62336   0.41083   0.21408   0.00000  Uiso   1.00
H465   H     0.60852   0.44882   0.18308   0.00000  Uiso   1.00
H466   H     0.62721   0.60536   0.38582   0.00000  Uiso   1.00
H467   H     0.58855   0.56395   0.37511   0.00000  Uiso   1.00
H468   H     0.60196   0.56558   0.42703   0.00000  Uiso   1.00
H469   H     0.65016   0.51100   0.36693   0.00000  Uiso   1.00
H470   H     0.35171   0.54921   0.38624   0.00000  Uiso   1.00
H471   H     0.39418   0.55649   0.31170   0.00000  Uiso   1.00
H472   H     0.52205   0.50462   0.39028   0.00000  Uiso   1.00
H473   H     0.34935   0.58886   0.30937   0.00000  Uiso   1.00
H474   H     0.62257   0.50947   0.10189   0.00000  Uiso   1.00
H475   H     0.38057   0.46973   0.39284   0.00000  Uiso   1.00
H476   H     0.35902   0.44484   0.47147   0.00000  Uiso   1.00
H477   H     0.65013   0.50337   0.01750   0.00000  Uiso   1.00
H478   H     0.43862   0.44098   0.07773   0.00000  Uiso   1.00
N479   N     0.38093   0.50001   0.25001   0.00000  Uiso   1.00
N480   N     0.61907   0.49999   0.24999   0.00000  Uiso   1.00
O481   O     0.46179   0.56108   0.25001   0.00000  Uiso   1.00
O482   O     0.53821   0.43892   0.25000   0.00000  Uiso   1.00
O483   O     0.53823   0.56107   0.25000   0.00000  Uiso   1.00
O484   O     0.46177   0.43893   0.25000   0.00000  Uiso   1.00
O485   O     0.43994   0.50001   0.31613   0.00000  Uiso   1.00
O486   O     0.56006   0.49999   0.18388   0.00000  Uiso   1.00
O487   O     0.51639   0.50000   0.31612   0.00000  Uiso   1.00
O488   O     0.48361   0.50000   0.18388   0.00000  Uiso   1.00
Zn489  Zn    0.44896   0.50001   0.25000   0.00000  Uiso   1.00
Zn490  Zn    0.55104   0.49999   0.25000   0.00000  Uiso   1.00
C491   C     0.83405   0.57984   0.25134   0.00000  Uiso   1.00
C492   C     0.82694   0.64181   0.21532   0.00000  Uiso   1.00
C493   C     0.82881   0.37544   0.25286   0.00000  Uiso   1.00
C494   C     0.83735   0.62396   0.25051   0.00000  Uiso   1.00
C495   C     0.98610   0.47243   0.22101   0.00000  Uiso   1.00
C496   C     0.67983   0.52661   0.27986   0.00000  Uiso   1.00
C497   C     0.70075   0.47338   0.22100   0.00000  Uiso   1.00
C498   C     0.96621   0.52723   0.27817   0.00000  Uiso   1.00
C499   C     0.80343   0.49872   0.33771   0.00000  Uiso   1.00
C500   C     0.86328   0.49886   0.16220   0.00000  Uiso   1.00
C501   C     0.78648   0.48899   0.38657   0.00000  Uiso   1.00
C502   C     0.83224   0.41988   0.24980   0.00000  Uiso   1.00
C503   C     0.88150   0.49344   0.11181   0.00000  Uiso   1.00
C504   C     0.72824   0.45772   0.45401   0.00000  Uiso   1.00
C505   C     0.94606   0.49613   0.03740   0.00000  Uiso   1.00
C506   C     0.74019   0.47237   0.40958   0.00000  Uiso   1.00
C507   C     0.93029   0.50010   0.08546   0.00000  Uiso   1.00
C508   C     0.82061   0.49006   0.40784   0.00000  Uiso   1.00
C509   C     0.84912   0.48076   0.09007   0.00000  Uiso   1.00
C510   C     0.81033   0.47336   0.45098   0.00000  Uiso   1.00
C511   C     0.86424   0.47595   0.04183   0.00000  Uiso   1.00
C512   C     0.76269   0.45914   0.47533   0.00000  Uiso   1.00
C513   C     0.78355   0.45102   0.04271   0.00000  Uiso   1.00
C514   C     0.91331   0.48487   0.01537   0.00000  Uiso   1.00
C515   C     0.84579   0.47266   0.47137   0.00000  Uiso   1.00
C516   C     0.83105   0.46618   0.01922   0.00000  Uiso   1.00
C517   C     0.85150   0.62815   0.32781   0.00000  Uiso   1.00
C518   C     0.80238   0.61877   0.36530   0.00000  Uiso   1.00
C519   C     0.80800   0.60489   0.40929   0.00000  Uiso   1.00
C520   C     0.77326   0.36085   0.20628   0.00000  Uiso   1.00
C521   C     0.72657   0.34245   0.24166   0.00000  Uiso   1.00
C522   C     0.68165   0.35565   0.23448   0.00000  Uiso   1.00
C523   C     0.97112   0.43821   0.19249   0.00000  Uiso   1.00
C524   C     0.89541   0.47820   0.44547   0.00000  Uiso   1.00
C525   C     0.67670   0.42427   0.14647   0.00000  Uiso   1.00
C526   C     0.98910   0.39232   0.11975   0.00000  Uiso   1.00
C527   C     0.68980   0.55633   0.31540   0.00000  Uiso   1.00
C528   C     0.99450   0.54462   0.36571   0.00000  Uiso   1.00
C529   C     0.95042   0.57158   0.38952   0.00000  Uiso   1.00
C530   C     0.75019   0.44685   0.02063   0.00000  Uiso   1.00
C531   C     0.92873   0.48362   0.46727   0.00000  Uiso   1.00
C532   C     0.84508   0.64805   0.28695   0.00000  Uiso   1.00
C533   C     0.81480   0.35008   0.22080   0.00000  Uiso   1.00
C534   C     0.84306   0.35807   0.28644   0.00000  Uiso   1.00
Cl535  Cl    0.85187   0.39062   0.33139   0.00000  Uiso   1.00
Cl536  Cl    0.82370   0.61093   0.16685   0.00000  Uiso   1.00
H537   H     0.71397   0.43559   0.03945   0.00000  Uiso   1.00
H538   H     0.90925   0.47768   0.40812   0.00000  Uiso   1.00
H539   H     0.72741   0.45243   0.19866   0.00000  Uiso   1.00
H540   H     0.94034   0.54931   0.29975   0.00000  Uiso   1.00
H541   H     0.83206   0.57785   0.40128   0.00000  Uiso   1.00
H542   H     0.82351   0.63095   0.42518   0.00000  Uiso   1.00
H543   H     0.77224   0.59553   0.43456   0.00000  Uiso   1.00
H544   H     0.78014   0.64718   0.37405   0.00000  Uiso   1.00
H545   H     0.78305   0.59361   0.35217   0.00000  Uiso   1.00
H546   H     0.87221   0.59914   0.31716   0.00000  Uiso   1.00
H547   H     0.87371   0.64876   0.34268   0.00000  Uiso   1.00
H548   H     0.96634   0.48887   0.44659   0.00000  Uiso   1.00
H549   H     0.67751   0.38963   0.24271   0.00000  Uiso   1.00
H550   H     0.68407   0.34788   0.19835   0.00000  Uiso   1.00
H551   H     0.98287   0.33909   0.25845   0.00000  Uiso   1.00
H552   H     0.72743   0.64103   0.23897   0.00000  Uiso   1.00
H553   H     0.72374   0.35277   0.27744   0.00000  Uiso   1.00
H554   H     0.77025   0.39455   0.20329   0.00000  Uiso   1.00
H555   H     0.77821   0.34742   0.17109   0.00000  Uiso   1.00
H556   H     0.97095   0.36590   0.14182   0.00000  Uiso   1.00
H557   H     0.96269   0.40734   0.10822   0.00000  Uiso   1.00
H558   H     0.68511   0.37943   0.08889   0.00000  Uiso   1.00
H559   H     0.81164   0.47665   0.11132   0.00000  Uiso   1.00
H560   H     0.69096   0.45204   0.12535   0.00000  Uiso   1.00
H561   H     0.70664   0.40919   0.15234   0.00000  Uiso   1.00
H562   H     0.95670   0.41083   0.21408   0.00000  Uiso   1.00
H563   H     0.94186   0.44882   0.18308   0.00000  Uiso   1.00
H564   H     0.96055   0.60536   0.38582   0.00000  Uiso   1.00
H565   H     0.92188   0.56395   0.37511   0.00000  Uiso   1.00
H566   H     0.93529   0.56558   0.42703   0.00000  Uiso   1.00
H567   H     0.98349   0.51100   0.36693   0.00000  Uiso   1.00
H568   H     0.68504   0.54921   0.38624   0.00000  Uiso   1.00
H569   H     0.72751   0.55649   0.31170   0.00000  Uiso   1.00
H570   H     0.85538   0.50462   0.39028   0.00000  Uiso   1.00
H571   H     0.68268   0.58886   0.30937   0.00000  Uiso   1.00
H572   H     0.95591   0.50947   0.10189   0.00000  Uiso   1.00
H573   H     0.71390   0.46973   0.39284   0.00000  Uiso   1.00
H574   H     0.69235   0.44484   0.47147   0.00000  Uiso   1.00
H575   H     0.98346   0.50337   0.01750   0.00000  Uiso   1.00
H576   H     0.77196   0.44098   0.07773   0.00000  Uiso   1.00
N577   N     0.71426   0.50001   0.25001   0.00000  Uiso   1.00
N578   N     0.95241   0.49999   0.24999   0.00000  Uiso   1.00
O579   O     0.79512   0.56108   0.25001   0.00000  Uiso   1.00
O580   O     0.87154   0.43892   0.25000   0.00000  Uiso   1.00
O581   O     0.87157   0.56107   0.25000   0.00000  Uiso   1.00
O582   O     0.79510   0.43893   0.25000   0.00000  Uiso   1.00
O583   O     0.77328   0.50001   0.31613   0.00000  Uiso   1.00
O584   O     0.89339   0.49999   0.18388   0.00000  Uiso   1.00
O585   O     0.84972   0.50000   0.31612   0.00000  Uiso   1.00
O586   O     0.81695   0.50000   0.18388   0.00000  Uiso   1.00
Zn587  Zn    0.78229   0.50001   0.25000   0.00000  Uiso   1.00
Zn588  Zn    0.88438   0.49999   0.25000   0.00000  Uiso   1.00
C589   C     0.16739   0.91317   0.25134   0.00000  Uiso   1.00
C590   C     0.16028   0.97514   0.21532   0.00000  Uiso   1.00
C591   C     0.16214   0.70877   0.25286   0.00000  Uiso   1.00
C592   C     0.17068   0.95730   0.25051   0.00000  Uiso   1.00
C593   C     0.31943   0.80577   0.22101   0.00000  Uiso   1.00
C594   C     0.01316   0.85995   0.27986   0.00000  Uiso   1.00
C595   C     0.03408   0.80672   0.22100   0.00000  Uiso   1.00
C596   C     0.29954   0.86057   0.27817   0.00000  Uiso   1.00
C597   C     0.13676   0.83205   0.33771   0.00000  Uiso   1.00
C598   C     0.19662   0.83219   0.16220   0.00000  Uiso   1.00
C599   C     0.11981   0.82232   0.38657   0.00000  Uiso   1.00
C600   C     0.16557   0.75321   0.24980   0.00000  Uiso   1.00
C601   C     0.21483   0.82678   0.11181   0.00000  Uiso   1.00
C602   C     0.06157   0.79105   0.45401   0.00000  Uiso   1.00
C603   C     0.27939   0.82946   0.03740   0.00000  Uiso   1.00
C604   C     0.07353   0.80571   0.40958   0.00000  Uiso   1.00
C605   C     0.26363   0.83344   0.08546   0.00000  Uiso   1.00
C606   C     0.15395   0.82340   0.40784   0.00000  Uiso   1.00
C607   C     0.18246   0.81409   0.09007   0.00000  Uiso   1.00
C608   C     0.14366   0.80670   0.45098   0.00000  Uiso   1.00
C609   C     0.19758   0.80928   0.04183   0.00000  Uiso   1.00
C610   C     0.09602   0.79247   0.47533   0.00000  Uiso   1.00
C611   C     0.11688   0.78436   0.04271   0.00000  Uiso   1.00
C612   C     0.24664   0.81820   0.01537   0.00000  Uiso   1.00
C613   C     0.17912   0.80599   0.47137   0.00000  Uiso   1.00
C614   C     0.16438   0.79951   0.01922   0.00000  Uiso   1.00
C615   C     0.18484   0.96149   0.32781   0.00000  Uiso   1.00
C616   C     0.13571   0.95210   0.36530   0.00000  Uiso   1.00
C617   C     0.14134   0.93822   0.40929   0.00000  Uiso   1.00
C618   C     0.10659   0.69418   0.20628   0.00000  Uiso   1.00
C619   C     0.05990   0.67578   0.24166   0.00000  Uiso   1.00
C620   C     0.01498   0.68898   0.23448   0.00000  Uiso   1.00
C621   C     0.30445   0.77154   0.19249   0.00000  Uiso   1.00
C622   C     0.22875   0.81153   0.44547   0.00000  Uiso   1.00
C623   C     0.01003   0.75760   0.14647   0.00000  Uiso   1.00
C624   C     0.32243   0.72566   0.11975   0.00000  Uiso   1.00
C625   C     0.02313   0.88966   0.31540   0.00000  Uiso   1.00
C626   C     0.32783   0.87795   0.36571   0.00000  Uiso   1.00
C627   C     0.28375   0.90492   0.38952   0.00000  Uiso   1.00
C628   C     0.08352   0.78019   0.02063   0.00000  Uiso   1.00
C629   C     0.26206   0.81695   0.46727   0.00000  Uiso   1.00
C630   C     0.17841   0.98139   0.28695   0.00000  Uiso   1.00
C631   C     0.14813   0.68341   0.22080   0.00000  Uiso   1.00
C632   C     0.17639   0.69141   0.28644   0.00000  Uiso   1.00
Cl633  Cl    0.18520   0.72396   0.33139   0.00000  Uiso   1.00
Cl634  Cl    0.15703   0.94426   0.16685   0.00000  Uiso   1.00
H635   H     0.04730   0.76893   0.03945   0.00000  Uiso   1.00
H636   H     0.24259   0.81101   0.40812   0.00000  Uiso   1.00
H637   H     0.06074   0.78576   0.19866   0.00000  Uiso   1.00
H638   H     0.27367   0.88265   0.29975   0.00000  Uiso   1.00
H639   H     0.16539   0.91118   0.40128   0.00000  Uiso   1.00
H640   H     0.15685   0.96428   0.42518   0.00000  Uiso   1.00
H641   H     0.10557   0.92887   0.43456   0.00000  Uiso   1.00
H642   H     0.11347   0.98052   0.37405   0.00000  Uiso   1.00
H643   H     0.11638   0.92695   0.35217   0.00000  Uiso   1.00
H644   H     0.20555   0.93247   0.31716   0.00000  Uiso   1.00
H645   H     0.20705   0.98209   0.34268   0.00000  Uiso   1.00
H646   H     0.29967   0.82220   0.44659   0.00000  Uiso   1.00
H647   H     0.01085   0.72297   0.24271   0.00000  Uiso   1.00
H648   H     0.01740   0.68121   0.19835   0.00000  Uiso   1.00
H649   H     0.31620   0.67242   0.25845   0.00000  Uiso   1.00
H650   H     0.06077   0.97436   0.23897   0.00000  Uiso   1.00
H651   H     0.05708   0.68610   0.27744   0.00000  Uiso   1.00
H652   H     0.10358   0.72788   0.20329   0.00000  Uiso   1.00
H653   H     0.11154   0.68075   0.17109   0.00000  Uiso   1.00
H654   H     0.30428   0.69924   0.14182   0.00000  Uiso   1.00
H655   H     0.29602   0.74067   0.10822   0.00000  Uiso   1.00
H656   H     0.01844   0.71276   0.08889   0.00000  Uiso   1.00
H657   H     0.14497   0.80998   0.11132   0.00000  Uiso   1.00
H658   H     0.02430   0.78538   0.12535   0.00000  Uiso   1.00
H659   H     0.03998   0.74252   0.15234   0.00000  Uiso   1.00
H660   H     0.29003   0.74416   0.21408   0.00000  Uiso   1.00
H661   H     0.27519   0.78216   0.18308   0.00000  Uiso   1.00
H662   H     0.29388   0.93869   0.38582   0.00000  Uiso   1.00
H663   H     0.25521   0.89729   0.37511   0.00000  Uiso   1.00
H664   H     0.26863   0.89891   0.42703   0.00000  Uiso   1.00
H665   H     0.31682   0.84433   0.36693   0.00000  Uiso   1.00
H666   H     0.01838   0.88255   0.38624   0.00000  Uiso   1.00
H667   H     0.06084   0.88982   0.31170   0.00000  Uiso   1.00
H668   H     0.18871   0.83796   0.39028   0.00000  Uiso   1.00
H669   H     0.01601   0.92220   0.30937   0.00000  Uiso   1.00
H670   H     0.28924   0.84281   0.10189   0.00000  Uiso   1.00
H671   H     0.04724   0.80306   0.39284   0.00000  Uiso   1.00
H672   H     0.02569   0.77817   0.47147   0.00000  Uiso   1.00
H673   H     0.31679   0.83670   0.01750   0.00000  Uiso   1.00
H674   H     0.10529   0.77432   0.07773   0.00000  Uiso   1.00
N675   N     0.04759   0.83334   0.25001   0.00000  Uiso   1.00
N676   N     0.28574   0.83332   0.24999   0.00000  Uiso   1.00
O677   O     0.12846   0.89442   0.25001   0.00000  Uiso   1.00
O678   O     0.20488   0.77225   0.25000   0.00000  Uiso   1.00
O679   O     0.20490   0.89441   0.25000   0.00000  Uiso   1.00
O680   O     0.12843   0.77226   0.25000   0.00000  Uiso   1.00
O681   O     0.10661   0.83334   0.31613   0.00000  Uiso   1.00
O682   O     0.22672   0.83333   0.18388   0.00000  Uiso   1.00
O683   O     0.18305   0.83333   0.31612   0.00000  Uiso   1.00
O684   O     0.15028   0.83334   0.18388   0.00000  Uiso   1.00
Zn685  Zn    0.11562   0.83334   0.25000   0.00000  Uiso   1.00
Zn686  Zn    0.21771   0.83333   0.25000   0.00000  Uiso   1.00
C687   C     0.50072   0.91317   0.25134   0.00000  Uiso   1.00
C688   C     0.49361   0.97514   0.21532   0.00000  Uiso   1.00
C689   C     0.49548   0.70877   0.25286   0.00000  Uiso   1.00
C690   C     0.50402   0.95730   0.25051   0.00000  Uiso   1.00
C691   C     0.65277   0.80577   0.22101   0.00000  Uiso   1.00
C692   C     0.34650   0.85995   0.27986   0.00000  Uiso   1.00
C693   C     0.36741   0.80672   0.22100   0.00000  Uiso   1.00
C694   C     0.63287   0.86057   0.27817   0.00000  Uiso   1.00
C695   C     0.47010   0.83205   0.33771   0.00000  Uiso   1.00
C696   C     0.52995   0.83219   0.16220   0.00000  Uiso   1.00
C697   C     0.45315   0.82232   0.38657   0.00000  Uiso   1.00
C698   C     0.49890   0.75321   0.24980   0.00000  Uiso   1.00
C699   C     0.54817   0.82678   0.11181   0.00000  Uiso   1.00
C700   C     0.39490   0.79105   0.45401   0.00000  Uiso   1.00
C701   C     0.61273   0.82946   0.03740   0.00000  Uiso   1.00
C702   C     0.40686   0.80571   0.40958   0.00000  Uiso   1.00
C703   C     0.59696   0.83344   0.08546   0.00000  Uiso   1.00
C704   C     0.48728   0.82340   0.40784   0.00000  Uiso   1.00
C705   C     0.51579   0.81409   0.09007   0.00000  Uiso   1.00
C706   C     0.47699   0.80670   0.45098   0.00000  Uiso   1.00
C707   C     0.53091   0.80928   0.04183   0.00000  Uiso   1.00
C708   C     0.42936   0.79247   0.47533   0.00000  Uiso   1.00
C709   C     0.45021   0.78436   0.04271   0.00000  Uiso   1.00
C710   C     0.57998   0.81820   0.01537   0.00000  Uiso   1.00
C711   C     0.51245   0.80599   0.47137   0.00000  Uiso   1.00
C712   C     0.49772   0.79951   0.01922   0.00000  Uiso   1.00
C713   C     0.51817   0.96149   0.32781   0.00000  Uiso   1.00
C714   C     0.46905   0.95210   0.36530   0.00000  Uiso   1.00
C715   C     0.47467   0.93822   0.40929   0.00000  Uiso   1.00
C716   C     0.43993   0.69418   0.20628   0.00000  Uiso   1.00
C717   C     0.39324   0.67578   0.24166   0.00000  Uiso   1.00
C718   C     0.34831   0.68898   0.23448   0.00000  Uiso   1.00
C719   C     0.63778   0.77154   0.19249   0.00000  Uiso   1.00
C720   C     0.56208   0.81153   0.44547   0.00000  Uiso   1.00
C721   C     0.34336   0.75760   0.14647   0.00000  Uiso   1.00
C722   C     0.65577   0.72566   0.11975   0.00000  Uiso   1.00
C723   C     0.35646   0.88966   0.31540   0.00000  Uiso   1.00
C724   C     0.66116   0.87795   0.36571   0.00000  Uiso   1.00
C725   C     0.61709   0.90492   0.38952   0.00000  Uiso   1.00
C726   C     0.41686   0.78019   0.02063   0.00000  Uiso   1.00
C727   C     0.59540   0.81695   0.46727   0.00000  Uiso   1.00
C728   C     0.51175   0.98139   0.28695   0.00000  Uiso   1.00
C729   C     0.48146   0.68341   0.22080   0.00000  Uiso   1.00
C730   C     0.50972   0.69141   0.28644   0.00000  Uiso   1.00
Cl731  Cl    0.51854   0.72396   0.33139   0.00000  Uiso   1.00
Cl732  Cl    0.49036   0.94426   0.16685   0.00000  Uiso   1.00
H733   H     0.38063   0.76893   0.03945   0.00000  Uiso   1.00
H734   H     0.57592   0.81101   0.40812   0.00000  Uiso   1.00
H735   H     0.39408   0.78576   0.19866   0.00000  Uiso   1.00
H736   H     0.60701   0.88265   0.29975   0.00000  Uiso   1.00
H737   H     0.49872   0.91118   0.40128   0.00000  Uiso   1.00
H738   H     0.49018   0.96428   0.42518   0.00000  Uiso   1.00
H739   H     0.43890   0.92887   0.43456   0.00000  Uiso   1.00
H740   H     0.44680   0.98052   0.37405   0.00000  Uiso   1.00
H741   H     0.44971   0.92695   0.35217   0.00000  Uiso   1.00
H742   H     0.53888   0.93247   0.31716   0.00000  Uiso   1.00
H743   H     0.54038   0.98209   0.34268   0.00000  Uiso   1.00
H744   H     0.63300   0.82220   0.44659   0.00000  Uiso   1.00
H745   H     0.34418   0.72297   0.24271   0.00000  Uiso   1.00
H746   H     0.35074   0.68121   0.19835   0.00000  Uiso   1.00
H747   H     0.64953   0.67242   0.25845   0.00000  Uiso   1.00
H748   H     0.39410   0.97436   0.23897   0.00000  Uiso   1.00
H749   H     0.39041   0.68610   0.27744   0.00000  Uiso   1.00
H750   H     0.43691   0.72788   0.20329   0.00000  Uiso   1.00
H751   H     0.44488   0.68075   0.17109   0.00000  Uiso   1.00
H752   H     0.63762   0.69924   0.14182   0.00000  Uiso   1.00
H753   H     0.62935   0.74067   0.10822   0.00000  Uiso   1.00
H754   H     0.35177   0.71276   0.08889   0.00000  Uiso   1.00
H755   H     0.47831   0.80998   0.11132   0.00000  Uiso   1.00
H756   H     0.35763   0.78538   0.12535   0.00000  Uiso   1.00
H757   H     0.37331   0.74252   0.15234   0.00000  Uiso   1.00
H758   H     0.62336   0.74416   0.21408   0.00000  Uiso   1.00
H759   H     0.60852   0.78216   0.18308   0.00000  Uiso   1.00
H760   H     0.62721   0.93869   0.38582   0.00000  Uiso   1.00
H761   H     0.58855   0.89729   0.37511   0.00000  Uiso   1.00
H762   H     0.60196   0.89891   0.42703   0.00000  Uiso   1.00
H763   H     0.65016   0.84433   0.36693   0.00000  Uiso   1.00
H764   H     0.35171   0.88255   0.38624   0.00000  Uiso   1.00
H765   H     0.39418   0.88982   0.31170   0.00000  Uiso   1.00
H766   H     0.52205   0.83796   0.39028   0.00000  Uiso   1.00
H767   H     0.34935   0.92220   0.30937   0.00000  Uiso   1.00
H768   H     0.62257   0.84281   0.10189   0.00000  Uiso   1.00
H769   H     0.38057   0.80306   0.39284   0.00000  Uiso   1.00
H770   H     0.35902   0.77817   0.47147   0.00000  Uiso   1.00
H771   H     0.65013   0.83670   0.01750   0.00000  Uiso   1.00
H772   H     0.43862   0.77432   0.07773   0.00000  Uiso   1.00
N773   N     0.38093   0.83334   0.25001   0.00000  Uiso   1.00
N774   N     0.61907   0.83332   0.24999   0.00000  Uiso   1.00
O775   O     0.46179   0.89442   0.25001   0.00000  Uiso   1.00
O776   O     0.53821   0.77225   0.25000   0.00000  Uiso   1.00
O777   O     0.53823   0.89441   0.25000   0.00000  Uiso   1.00
O778   O     0.46177   0.77226   0.25000   0.00000  Uiso   1.00
O779   O     0.43994   0.83334   0.31613   0.00000  Uiso   1.00
O780   O     0.56006   0.83333   0.18388   0.00000  Uiso   1.00
O781   O     0.51639   0.83333   0.31612   0.00000  Uiso   1.00
O782   O     0.48361   0.83334   0.18388   0.00000  Uiso   1.00
Zn783  Zn    0.44896   0.83334   0.25000   0.00000  Uiso   1.00
Zn784  Zn    0.55104   0.83333   0.25000   0.00000  Uiso   1.00
C785   C     0.83405   0.91317   0.25134   0.00000  Uiso   1.00
C786   C     0.82694   0.97514   0.21532   0.00000  Uiso   1.00
C787   C     0.82881   0.70877   0.25286   0.00000  Uiso   1.00
C788   C     0.83735   0.95730   0.25051   0.00000  Uiso   1.00
C789   C     0.98610   0.80577   0.22101   0.00000  Uiso   1.00
C790   C     0.67983   0.85995   0.27986   0.00000  Uiso   1.00
C791   C     0.70075   0.80672   0.22100   0.00000  Uiso   1.00
C792   C     0.96621   0.86057   0.27817   0.00000  Uiso   1.00
C793   C     0.80343   0.83205   0.33771   0.00000  Uiso   1.00
C794   C     0.86328   0.83219   0.16220   0.00000  Uiso   1.00
C795   C     0.78648   0.82232   0.38657   0.00000  Uiso   1.00
C796   C     0.83224   0.75321   0.24980   0.00000  Uiso   1.00
C797   C     0.88150   0.82678   0.11181   0.00000  Uiso   1.00
C798   C     0.72824   0.79105   0.45401   0.00000  Uiso   1.00
C799   C     0.94606   0.82946   0.03740   0.00000  Uiso   1.00
C800   C     0.74019   0.80571   0.40958   0.00000  Uiso   1.00
C801   C     0.93029   0.83344   0.08546   0.00000  Uiso   1.00
C802   C     0.82061   0.82340   0.40784   0.00000  Uiso   1.00
C803   C     0.84912   0.81409   0.09007   0.00000  Uiso   1.00
C804   C     0.81033   0.80670   0.45098   0.00000  Uiso   1.00
C805   C     0.86424   0.80928   0.04183   0.00000  Uiso   1.00
C806   C     0.76269   0.79247   0.47533   0.00000  Uiso   1.00
C807   C     0.78355   0.78436   0.04271   0.00000  Uiso   1.00
C808   C     0.91331   0.81820   0.01537   0.00000  Uiso   1.00
C809   C     0.84579   0.80599   0.47137   0.00000  Uiso   1.00
C810   C     0.83105   0.79951   0.01922   0.00000  Uiso   1.00
C811   C     0.85150   0.96149   0.32781   0.00000  Uiso   1.00
C812   C     0.80238   0.95210   0.36530   0.00000  Uiso   1.00
C813   C     0.80800   0.93822   0.40929   0.00000  Uiso   1.00
C814   C     0.77326   0.69418   0.20628   0.00000  Uiso   1.00
C815   C     0.72657   0.67578   0.24166   0.00000  Uiso   1.00
C816   C     0.68165   0.68898   0.23448   0.00000  Uiso   1.00
C817   C     0.97112   0.77154   0.19249   0.00000  Uiso   1.00
C818   C     0.89541   0.81153   0.44547   0.00000  Uiso   1.00
C819   C     0.67670   0.75760   0.14647   0.00000  Uiso   1.00
C820   C     0.98910   0.72566   0.11975   0.00000  Uiso   1.00
C821   C     0.68980   0.88966   0.31540   0.00000  Uiso   1.00
C822   C     0.99450   0.87795   0.36571   0.00000  Uiso   1.00
C823   C     0.95042   0.90492   0.38952   0.00000  Uiso   1.00
C824   C     0.75019   0.78019   0.02063   0.00000  Uiso   1.00
C825   C     0.92873   0.81695   0.46727   0.00000  Uiso   1.00
C826   C     0.84508   0.98139   0.28695   0.00000  Uiso   1.00
C827   C     0.81480   0.68341   0.22080   0.00000  Uiso   1.00
C828   C     0.84306   0.69141   0.28644   0.00000  Uiso   1.00
Cl829  Cl    0.85187   0.72396   0.33139   0.00000  Uiso   1.00
Cl830  Cl    0.82370   0.94426   0.16685   0.00000  Uiso   1.00
H831   H     0.71397   0.76893   0.03945   0.00000  Uiso   1.00
H832   H     0.90925   0.81101   0.40812   0.00000  Uiso   1.00
H833   H     0.72741   0.78576   0.19866   0.00000  Uiso   1.00
H834   H     0.94034   0.88265   0.29975   0.00000  Uiso   1.00
H835   H     0.83206   0.91118   0.40128   0.00000  Uiso   1.00
H836   H     0.82351   0.96428   0.42518   0.00000  Uiso   1.00
H837   H     0.77224   0.92887   0.43456   0.00000  Uiso   1.00
H838   H     0.78014   0.98052   0.37405   0.00000  Uiso   1.00
H839   H     0.78305   0.92695   0.35217   0.00000  Uiso   1.00
H840   H     0.87221   0.93247   0.31716   0.00000  Uiso   1.00
H841   H     0.87371   0.98209   0.34268   0.00000  Uiso   1.00
H842   H     0.96634   0.82220   0.44659   0.00000  Uiso   1.00
H843   H     0.67751   0.72297   0.24271   0.00000  Uiso   1.00
H844   H     0.68407   0.68121   0.19835   0.00000  Uiso   1.00
H845   H     0.98287   0.67242   0.25845   0.00000  Uiso   1.00
H846   H     0.72743   0.97436   0.23897   0.00000  Uiso   1.00
H847   H     0.72374   0.68610   0.27744   0.00000  Uiso   1.00
H848   H     0.77025   0.72788   0.20329   0.00000  Uiso   1.00
H849   H     0.77821   0.68075   0.17109   0.00000  Uiso   1.00
H850   H     0.97095   0.69924   0.14182   0.00000  Uiso   1.00
H851   H     0.96269   0.74067   0.10822   0.00000  Uiso   1.00
H852   H     0.68511   0.71276   0.08889   0.00000  Uiso   1.00
H853   H     0.81164   0.80998   0.11132   0.00000  Uiso   1.00
H854   H     0.69096   0.78538   0.12535   0.00000  Uiso   1.00
H855   H     0.70664   0.74252   0.15234   0.00000  Uiso   1.00
H856   H     0.95670   0.74416   0.21408   0.00000  Uiso   1.00
H857   H     0.94186   0.78216   0.18308   0.00000  Uiso   1.00
H858   H     0.96055   0.93869   0.38582   0.00000  Uiso   1.00
H859   H     0.92188   0.89729   0.37511   0.00000  Uiso   1.00
H860   H     0.93529   0.89891   0.42703   0.00000  Uiso   1.00
H861   H     0.98349   0.84433   0.36693   0.00000  Uiso   1.00
H862   H     0.68504   0.88255   0.38624   0.00000  Uiso   1.00
H863   H     0.72751   0.88982   0.31170   0.00000  Uiso   1.00
H864   H     0.85538   0.83796   0.39028   0.00000  Uiso   1.00
H865   H     0.68268   0.92220   0.30937   0.00000  Uiso   1.00
H866   H     0.95591   0.84281   0.10189   0.00000  Uiso   1.00
H867   H     0.71390   0.80306   0.39284   0.00000  Uiso   1.00
H868   H     0.69235   0.77817   0.47147   0.00000  Uiso   1.00
H869   H     0.98346   0.83670   0.01750   0.00000  Uiso   1.00
H870   H     0.77196   0.77432   0.07773   0.00000  Uiso   1.00
N871   N     0.71426   0.83334   0.25001   0.00000  Uiso   1.00
N872   N     0.95241   0.83332   0.24999   0.00000  Uiso   1.00
O873   O     0.79512   0.89442   0.25001   0.00000  Uiso   1.00
O874   O     0.87154   0.77225   0.25000   0.00000  Uiso   1.00
O875   O     0.87157   0.89441   0.25000   0.00000  Uiso   1.00
O876   O     0.79510   0.77226   0.25000   0.00000  Uiso   1.00
O877   O     0.77328   0.83334   0.31613   0.00000  Uiso   1.00
O878   O     0.89339   0.83333   0.18388   0.00000  Uiso   1.00
O879   O     0.84972   0.83333   0.31612   0.00000  Uiso   1.00
O880   O     0.81695   0.83334   0.18388   0.00000  Uiso   1.00
Zn881  Zn    0.78229   0.83334   0.25000   0.00000  Uiso   1.00
Zn882  Zn    0.88438   0.83333   0.25000   0.00000  Uiso   1.00
C883   C     0.16739   0.24651   0.75134   0.00000  Uiso   1.00
C884   C     0.16028   0.30847   0.71532   0.00000  Uiso   1.00
C885   C     0.16214   0.04210   0.75286   0.00000  Uiso   1.00
C886   C     0.17068   0.29063   0.75051   0.00000  Uiso   1.00
C887   C     0.31943   0.13910   0.72101   0.00000  Uiso   1.00
C888   C     0.01316   0.19328   0.77986   0.00000  Uiso   1.00
C889   C     0.03408   0.14005   0.72100   0.00000  Uiso   1.00
C890   C     0.29954   0.19390   0.77817   0.00000  Uiso   1.00
C891   C     0.13676   0.16539   0.83771   0.00000  Uiso   1.00
C892   C     0.19662   0.16552   0.66220   0.00000  Uiso   1.00
C893   C     0.11981   0.15565   0.88657   0.00000  Uiso   1.00
C894   C     0.16557   0.08654   0.74980   0.00000  Uiso   1.00
C895   C     0.21483   0.16011   0.61181   0.00000  Uiso   1.00
C896   C     0.06157   0.12439   0.95401   0.00000  Uiso   1.00
C897   C     0.27939   0.16279   0.53740   0.00000  Uiso   1.00
C898   C     0.07353   0.13904   0.90958   0.00000  Uiso   1.00
C899   C     0.26363   0.16677   0.58546   0.00000  Uiso   1.00
C900   C     0.15395   0.15673   0.90784   0.00000  Uiso   1.00
C901   C     0.18246   0.14742   0.59007   0.00000  Uiso   1.00
C902   C     0.14366   0.14003   0.95098   0.00000  Uiso   1.00
C903   C     0.19758   0.14262   0.54183   0.00000  Uiso   1.00
C904   C     0.09602   0.12580   0.97533   0.00000  Uiso   1.00
C905   C     0.11688   0.11769   0.54271   0.00000  Uiso   1.00
C906   C     0.24664   0.15154   0.51537   0.00000  Uiso   1.00
C907   C     0.17912   0.13933   0.97137   0.00000  Uiso   1.00
C908   C     0.16438   0.13284   0.51922   0.00000  Uiso   1.00
C909   C     0.18484   0.29482   0.82781   0.00000  Uiso   1.00
C910   C     0.13571   0.28543   0.86530   0.00000  Uiso   1.00
C911   C     0.14134   0.27156   0.90929   0.00000  Uiso   1.00
C912   C     0.10659   0.02752   0.70628   0.00000  Uiso   1.00
C913   C     0.05990   0.00912   0.74166   0.00000  Uiso   1.00
C914   C     0.01498   0.02231   0.73448   0.00000  Uiso   1.00
C915   C     0.30445   0.10487   0.69249   0.00000  Uiso   1.00
C916   C     0.22875   0.14486   0.94547   0.00000  Uiso   1.00
C917   C     0.01003   0.09094   0.64647   0.00000  Uiso   1.00
C918   C     0.32243   0.05899   0.61975   0.00000  Uiso   1.00
C919   C     0.02313   0.22299   0.81540   0.00000  Uiso   1.00
C920   C     0.32783   0.21129   0.86571   0.00000  Uiso   1.00
C921   C     0.28375   0.23825   0.88952   0.00000  Uiso   1.00
C922   C     0.08352   0.11352   0.52063   0.00000  Uiso   1.00
C923   C     0.26206   0.15028   0.96727   0.00000  Uiso   1.00
C924   C     0.17841   0.31472   0.78695   0.00000  Uiso   1.00
C925   C     0.14813   0.01675   0.72080   0.00000  Uiso   1.00
C926   C     0.17639   0.02474   0.78644   0.00000  Uiso   1.00
Cl927  Cl    0.18520   0.05729   0.83139   0.00000  Uiso   1.00
Cl928  Cl    0.15703   0.27759   0.66685   0.00000  Uiso   1.00
H929   H     0.04730   0.10226   0.53945   0.00000  Uiso   1.00
H930   H     0.24259   0.14434   0.90812   0.00000  Uiso   1.00
H931   H     0.06074   0.11910   0.69866   0.00000  Uiso   1.00
H932   H     0.27367   0.21598   0.79975   0.00000  Uiso   1.00
H933   H     0.16539   0.24451   0.90128   0.00000  Uiso   1.00
H934   H     0.15685   0.29761   0.92518   0.00000  Uiso   1.00
H935   H     0.10557   0.26220   0.93456   0.00000  Uiso   1.00
H936   H     0.11347   0.31385   0.87405   0.00000  Uiso   1.00
H937   H     0.11638   0.26028   0.85217   0.00000  Uiso   1.00
H938   H     0.20555   0.26580   0.81716   0.00000  Uiso   1.00
H939   H     0.20705   0.31543   0.84268   0.00000  Uiso   1.00
H940   H     0.29967   0.15554   0.94659   0.00000  Uiso   1.00
H941   H     0.01085   0.05630   0.74271   0.00000  Uiso   1.00
H942   H     0.01740   0.01455   0.69835   0.00000  Uiso   1.00
H943   H     0.31620   0.00575   0.75845   0.00000  Uiso   1.00
H944   H     0.06077   0.30769   0.73897   0.00000  Uiso   1.00
H945   H     0.05708   0.01944   0.77744   0.00000  Uiso   1.00
H946   H     0.10358   0.06121   0.70329   0.00000  Uiso   1.00
H947   H     0.11154   0.01408   0.67109   0.00000  Uiso   1.00
H948   H     0.30428   0.03257   0.64182   0.00000  Uiso   1.00
H949   H     0.29602   0.07400   0.60822   0.00000  Uiso   1.00
H950   H     0.01844   0.04610   0.58889   0.00000  Uiso   1.00
H951   H     0.14497   0.14331   0.61132   0.00000  Uiso   1.00
H952   H     0.02430   0.11871   0.62535   0.00000  Uiso   1.00
H953   H     0.03998   0.07586   0.65234   0.00000  Uiso   1.00
H954   H     0.29003   0.07749   0.71408   0.00000  Uiso   1.00
H955   H     0.27519   0.11549   0.68308   0.00000  Uiso   1.00
H956   H     0.29388   0.27202   0.88582   0.00000  Uiso   1.00
H957   H     0.25521   0.23062   0.87511   0.00000  Uiso   1.00
H958   H     0.26863   0.23224   0.92703   0.00000  Uiso   1.00
H959   H     0.31682   0.17767   0.86693   0.00000  Uiso   1.00
H960   H     0.01838   0.21588   0.88624   0.00000  Uiso   1.00
H961   H     0.06084   0.22316   0.81170   0.00000  Uiso   1.00
H962   H     0.18871   0.17129   0.89028   0.00000  Uiso   1.00
H963   H     0.01601   0.25553   0.80937   0.00000  Uiso   1.00
H964   H     0.28924   0.17614   0.60189   0.00000  Uiso   1.00
H965   H     0.04724   0.13639   0.89284   0.00000  Uiso   1.00
H966   H     0.02569   0.11151   0.97147   0.00000  Uiso   1.00
H967   H     0.31679   0.17004   0.51750   0.00000  Uiso   1.00
H968   H     0.10529   0.10765   0.57773   0.00000  Uiso   1.00
N969   N     0.04759   0.16668   0.75001   0.00000  Uiso   1.00
N970   N     0.28574   0.16666   0.74999   0.00000  Uiso   1.00
O971   O     0.12846   0.22775   0.75001   0.00000  Uiso   1.00
O972   O     0.20488   0.10558   0.75000   0.00000  Uiso   1.00
O973   O     0.20490   0.22774   0.75000   0.00000  Uiso   1.00
O974   O     0.12843   0.10559   0.75000   0.00000  Uiso   1.00
O975   O     0.10661   0.16667   0.81613   0.00000  Uiso   1.00
O976   O     0.22672   0.16666   0.68388   0.00000  Uiso   1.00
O977   O     0.18305   0.16666   0.81612   0.00000  Uiso   1.00
O978   O     0.15028   0.16667   0.68388   0.00000  Uiso   1.00
Zn979  Zn    0.11562   0.16667   0.75000   0.00000  Uiso   1.00
Zn980  Zn    0.21771   0.16666   0.75000   0.00000  Uiso   1.00
C981   C     0.50072   0.24651   0.75134   0.00000  Uiso   1.00
C982   C     0.49361   0.30847   0.71532   0.00000  Uiso   1.00
C983   C     0.49548   0.04210   0.75286   0.00000  Uiso   1.00
C984   C     0.50402   0.29063   0.75051   0.00000  Uiso   1.00
C985   C     0.65277   0.13910   0.72101   0.00000  Uiso   1.00
C986   C     0.34650   0.19328   0.77986   0.00000  Uiso   1.00
C987   C     0.36741   0.14005   0.72100   0.00000  Uiso   1.00
C988   C     0.63287   0.19390   0.77817   0.00000  Uiso   1.00
C989   C     0.47010   0.16539   0.83771   0.00000  Uiso   1.00
C990   C     0.52995   0.16552   0.66220   0.00000  Uiso   1.00
C991   C     0.45315   0.15565   0.88657   0.00000  Uiso   1.00
C992   C     0.49890   0.08654   0.74980   0.00000  Uiso   1.00
C993   C     0.54817   0.16011   0.61181   0.00000  Uiso   1.00
C994   C     0.39490   0.12439   0.95401   0.00000  Uiso   1.00
C995   C     0.61273   0.16279   0.53740   0.00000  Uiso   1.00
C996   C     0.40686   0.13904   0.90958   0.00000  Uiso   1.00
C997   C     0.59696   0.16677   0.58546   0.00000  Uiso   1.00
C998   C     0.48728   0.15673   0.90784   0.00000  Uiso   1.00
C999   C     0.51579   0.14742   0.59007   0.00000  Uiso   1.00
C1000  C     0.47699   0.14003   0.95098   0.00000  Uiso   1.00
C1001  C     0.53091   0.14262   0.54183   0.00000  Uiso   1.00
C1002  C     0.42936   0.12580   0.97533   0.00000  Uiso   1.00
C1003  C     0.45021   0.11769   0.54271   0.00000  Uiso   1.00
C1004  C     0.57998   0.15154   0.51537   0.00000  Uiso   1.00
C1005  C     0.51245   0.13933   0.97137   0.00000  Uiso   1.00
C1006  C     0.49772   0.13284   0.51922   0.00000  Uiso   1.00
C1007  C     0.51817   0.29482   0.82781   0.00000  Uiso   1.00
C1008  C     0.46905   0.28543   0.86530   0.00000  Uiso   1.00
C1009  C     0.47467   0.27156   0.90929   0.00000  Uiso   1.00
C1010  C     0.43993   0.02752   0.70628   0.00000  Uiso   1.00
C1011  C     0.39324   0.00912   0.74166   0.00000  Uiso   1.00
C1012  C     0.34831   0.02231   0.73448   0.00000  Uiso   1.00
C1013  C     0.63778   0.10487   0.69249   0.00000  Uiso   1.00
C1014  C     0.56208   0.14486   0.94547   0.00000  Uiso   1.00
C1015  C     0.34336   0.09094   0.64647   0.00000  Uiso   1.00
C1016  C     0.65577   0.05899   0.61975   0.00000  Uiso   1.00
C1017  C     0.35646   0.22299   0.81540   0.00000  Uiso   1.00
C1018  C     0.66116   0.21129   0.86571   0.00000  Uiso   1.00
C1019  C     0.61709   0.23825   0.88952   0.00000  Uiso   1.00
C1020  C     0.41686   0.11352   0.52063   0.00000  Uiso   1.00
C1021  C     0.59540   0.15028   0.96727   0.00000  Uiso   1.00
C1022  C     0.51175   0.31472   0.78695   0.00000  Uiso   1.00
C1023  C     0.48146   0.01675   0.72080   0.00000  Uiso   1.00
C1024  C     0.50972   0.02474   0.78644   0.00000  Uiso   1.00
Cl1025 Cl    0.51854   0.05729   0.83139   0.00000  Uiso   1.00
Cl1026 Cl    0.49036   0.27759   0.66685   0.00000  Uiso   1.00
H1027  H     0.38063   0.10226   0.53945   0.00000  Uiso   1.00
H1028  H     0.57592   0.14434   0.90812   0.00000  Uiso   1.00
H1029  H     0.39408   0.11910   0.69866   0.00000  Uiso   1.00
H1030  H     0.60701   0.21598   0.79975   0.00000  Uiso   1.00
H1031  H     0.49872   0.24451   0.90128   0.00000  Uiso   1.00
H1032  H     0.49018   0.29761   0.92518   0.00000  Uiso   1.00
H1033  H     0.43890   0.26220   0.93456   0.00000  Uiso   1.00
H1034  H     0.44680   0.31385   0.87405   0.00000  Uiso   1.00
H1035  H     0.44971   0.26028   0.85217   0.00000  Uiso   1.00
H1036  H     0.53888   0.26580   0.81716   0.00000  Uiso   1.00
H1037  H     0.54038   0.31543   0.84268   0.00000  Uiso   1.00
H1038  H     0.63300   0.15554   0.94659   0.00000  Uiso   1.00
H1039  H     0.34418   0.05630   0.74271   0.00000  Uiso   1.00
H1040  H     0.35074   0.01455   0.69835   0.00000  Uiso   1.00
H1041  H     0.64953   0.00575   0.75845   0.00000  Uiso   1.00
H1042  H     0.39410   0.30769   0.73897   0.00000  Uiso   1.00
H1043  H     0.39041   0.01944   0.77744   0.00000  Uiso   1.00
H1044  H     0.43691   0.06121   0.70329   0.00000  Uiso   1.00
H1045  H     0.44488   0.01408   0.67109   0.00000  Uiso   1.00
H1046  H     0.63762   0.03257   0.64182   0.00000  Uiso   1.00
H1047  H     0.62935   0.07400   0.60822   0.00000  Uiso   1.00
H1048  H     0.35177   0.04610   0.58889   0.00000  Uiso   1.00
H1049  H     0.47831   0.14331   0.61132   0.00000  Uiso   1.00
H1050  H     0.35763   0.11871   0.62535   0.00000  Uiso   1.00
H1051  H     0.37331   0.07586   0.65234   0.00000  Uiso   1.00
H1052  H     0.62336   0.07749   0.71408   0.00000  Uiso   1.00
H1053  H     0.60852   0.11549   0.68308   0.00000  Uiso   1.00
H1054  H     0.62721   0.27202   0.88582   0.00000  Uiso   1.00
H1055  H     0.58855   0.23062   0.87511   0.00000  Uiso   1.00
H1056  H     0.60196   0.23224   0.92703   0.00000  Uiso   1.00
H1057  H     0.65016   0.17767   0.86693   0.00000  Uiso   1.00
H1058  H     0.35171   0.21588   0.88624   0.00000  Uiso   1.00
H1059  H     0.39418   0.22316   0.81170   0.00000  Uiso   1.00
H1060  H     0.52205   0.17129   0.89028   0.00000  Uiso   1.00
H1061  H     0.34935   0.25553   0.80937   0.00000  Uiso   1.00
H1062  H     0.62257   0.17614   0.60189   0.00000  Uiso   1.00
H1063  H     0.38057   0.13639   0.89284   0.00000  Uiso   1.00
H1064  H     0.35902   0.11151   0.97147   0.00000  Uiso   1.00
H1065  H     0.65013   0.17004   0.51750   0.00000  Uiso   1.00
H1066  H     0.43862   0.10765   0.57773   0.00000  Uiso   1.00
N1067  N     0.38093   0.16668   0.75001   0.00000  Uiso   1.00
N1068  N     0.61907   0.16666   0.74999   0.00000  Uiso   1.00
O1069  O     0.46179   0.22775   0.75001   0.00000  Uiso   1.00
O1070  O     0.53821   0.10558   0.75000   0.00000  Uiso   1.00
O1071  O     0.53823   0.22774   0.75000   0.00000  Uiso   1.00
O1072  O     0.46177   0.10559   0.75000   0.00000  Uiso   1.00
O1073  O     0.43994   0.16667   0.81613   0.00000  Uiso   1.00
O1074  O     0.56006   0.16666   0.68388   0.00000  Uiso   1.00
O1075  O     0.51639   0.16666   0.81612   0.00000  Uiso   1.00
O1076  O     0.48361   0.16667   0.68388   0.00000  Uiso   1.00
Zn1077 Zn    0.44896   0.16667   0.75000   0.00000  Uiso   1.00
Zn1078 Zn    0.55104   0.16666   0.75000   0.00000  Uiso   1.00
C1079  C     0.83405   0.24651   0.75134   0.00000  Uiso   1.00
C1080  C     0.82694   0.30847   0.71532   0.00000  Uiso   1.00
C1081  C     0.82881   0.04210   0.75286   0.00000  Uiso   1.00
C1082  C     0.83735   0.29063   0.75051   0.00000  Uiso   1.00
C1083  C     0.98610   0.13910   0.72101   0.00000  Uiso   1.00
C1084  C     0.67983   0.19328   0.77986   0.00000  Uiso   1.00
C1085  C     0.70075   0.14005   0.72100   0.00000  Uiso   1.00
C1086  C     0.96621   0.19390   0.77817   0.00000  Uiso   1.00
C1087  C     0.80343   0.16539   0.83771   0.00000  Uiso   1.00
C1088  C     0.86328   0.16552   0.66220   0.00000  Uiso   1.00
C1089  C     0.78648   0.15565   0.88657   0.00000  Uiso   1.00
C1090  C     0.83224   0.08654   0.74980   0.00000  Uiso   1.00
C1091  C     0.88150   0.16011   0.61181   0.00000  Uiso   1.00
C1092  C     0.72824   0.12439   0.95401   0.00000  Uiso   1.00
C1093  C     0.94606   0.16279   0.53740   0.00000  Uiso   1.00
C1094  C     0.74019   0.13904   0.90958   0.00000  Uiso   1.00
C1095  C     0.93029   0.16677   0.58546   0.00000  Uiso   1.00
C1096  C     0.82061   0.15673   0.90784   0.00000  Uiso   1.00
C1097  C     0.84912   0.14742   0.59007   0.00000  Uiso   1.00
C1098  C     0.81033   0.14003   0.95098   0.00000  Uiso   1.00
C1099  C     0.86424   0.14262   0.54183   0.00000  Uiso   1.00
C1100  C     0.76269   0.12580   0.97533   0.00000  Uiso   1.00
C1101  C     0.78355   0.11769   0.54271   0.00000  Uiso   1.00
C1102  C     0.91331   0.15154   0.51537   0.00000  Uiso   1.00
C1103  C     0.84579   0.13933   0.97137   0.00000  Uiso   1.00
C1104  C     0.83105   0.13284   0.51922   0.00000  Uiso   1.00
C1105  C     0.85150   0.29482   0.82781   0.00000  Uiso   1.00
C1106  C     0.80238   0.28543   0.86530   0.00000  Uiso   1.00
C1107  C     0.80800   0.27156   0.90929   0.00000  Uiso   1.00
C1108  C     0.77326   0.02752   0.70628   0.00000  Uiso   1.00
C1109  C     0.72657   0.00912   0.74166   0.00000  Uiso   1.00
C1110  C     0.68165   0.02231   0.73448   0.00000  Uiso   1.00
C1111  C     0.97112   0.10487   0.69249   0.00000  Uiso   1.00
C1112  C     0.89541   0.14486   0.94547   0.00000  Uiso   1.00
C1113  C     0.67670   0.09094   0.64647   0.00000  Uiso   1.00
C1114  C     0.98910   0.05899   0.61975   0.00000  Uiso   1.00
C1115  C     0.68980   0.22299   0.81540   0.00000  Uiso   1.00
C1116  C     0.99450   0.21129   0.86571   0.00000  Uiso   1.00
C1117  C     0.95042   0.23825   0.88952   0.00000  Uiso   1.00
C1118  C     0.75019   0.11352   0.52063   0.00000  Uiso   1.00
C1119  C     0.92873   0.15028   0.96727   0.00000  Uiso   1.00
C1120  C     0.84508   0.31472   0.78695   0.00000  Uiso   1.00
C1121  C     0.81480   0.01675   0.72080   0.00000  Uiso   1.00
C1122  C     0.84306   0.02474   0.78644   0.00000  Uiso   1.00
Cl1123 Cl    0.85187   0.05729   0.83139   0.00000  Uiso   1.00
Cl1124 Cl    0.82370   0.27759   0.66685   0.00000  Uiso   1.00
H1125  H     0.71397   0.10226   0.53945   0.00000  Uiso   1.00
H1126  H     0.90925   0.14434   0.90812   0.00000  Uiso   1.00
H1127  H     0.72741   0.11910   0.69866   0.00000  Uiso   1.00
H1128  H     0.94034   0.21598   0.79975   0.00000  Uiso   1.00
H1129  H     0.83206   0.24451   0.90128   0.00000  Uiso   1.00
H1130  H     0.82351   0.29761   0.92518   0.00000  Uiso   1.00
H1131  H     0.77224   0.26220   0.93456   0.00000  Uiso   1.00
H1132  H     0.78014   0.31385   0.87405   0.00000  Uiso   1.00
H1133  H     0.78305   0.26028   0.85217   0.00000  Uiso   1.00
H1134  H     0.87221   0.26580   0.81716   0.00000  Uiso   1.00
H1135  H     0.87371   0.31543   0.84268   0.00000  Uiso   1.00
H1136  H     0.96634   0.15554   0.94659   0.00000  Uiso   1.00
H1137  H     0.67751   0.05630   0.74271   0.00000  Uiso   1.00
H1138  H     0.68407   0.01455   0.69835   0.00000  Uiso   1.00
H1139  H     0.98287   0.00575   0.75845   0.00000  Uiso   1.00
H1140  H     0.72743   0.30769   0.73897   0.00000  Uiso   1.00
H1141  H     0.72374   0.01944   0.77744   0.00000  Uiso   1.00
H1142  H     0.77025   0.06121   0.70329   0.00000  Uiso   1.00
H1143  H     0.77821   0.01408   0.67109   0.00000  Uiso   1.00
H1144  H     0.97095   0.03257   0.64182   0.00000  Uiso   1.00
H1145  H     0.96269   0.07400   0.60822   0.00000  Uiso   1.00
H1146  H     0.68511   0.04610   0.58889   0.00000  Uiso   1.00
H1147  H     0.81164   0.14331   0.61132   0.00000  Uiso   1.00
H1148  H     0.69096   0.11871   0.62535   0.00000  Uiso   1.00
H1149  H     0.70664   0.07586   0.65234   0.00000  Uiso   1.00
H1150  H     0.95670   0.07749   0.71408   0.00000  Uiso   1.00
H1151  H     0.94186   0.11549   0.68308   0.00000  Uiso   1.00
H1152  H     0.96055   0.27202   0.88582   0.00000  Uiso   1.00
H1153  H     0.92188   0.23062   0.87511   0.00000  Uiso   1.00
H1154  H     0.93529   0.23224   0.92703   0.00000  Uiso   1.00
H1155  H     0.98349   0.17767   0.86693   0.00000  Uiso   1.00
H1156  H     0.68504   0.21588   0.88624   0.00000  Uiso   1.00
H1157  H     0.72751   0.22316   0.81170   0.00000  Uiso   1.00
H1158  H     0.85538   0.17129   0.89028   0.00000  Uiso   1.00
H1159  H     0.68268   0.25553   0.80937   0.00000  Uiso   1.00
H1160  H     0.95591   0.17614   0.60189   0.00000  Uiso   1.00
H1161  H     0.71390   0.13639   0.89284   0.00000  Uiso   1.00
H1162  H     0.69235   0.11151   0.97147   0.00000  Uiso   1.00
H1163  H     0.98346   0.17004   0.51750   0.00000  Uiso   1.00
H1164  H     0.77196   0.10765   0.57773   0.00000  Uiso   1.00
N1165  N     0.71426   0.16668   0.75001   0.00000  Uiso   1.00
N1166  N     0.95241   0.16666   0.74999   0.00000  Uiso   1.00
O1167  O     0.79512   0.22775   0.75001   0.00000  Uiso   1.00
O1168  O     0.87154   0.10558   0.75000   0.00000  Uiso   1.00
O1169  O     0.87157   0.22774   0.75000   0.00000  Uiso   1.00
O1170  O     0.79510   0.10559   0.75000   0.00000  Uiso   1.00
O1171  O     0.77328   0.16667   0.81613   0.00000  Uiso   1.00
O1172  O     0.89339   0.16666   0.68388   0.00000  Uiso   1.00
O1173  O     0.84972   0.16666   0.81612   0.00000  Uiso   1.00
O1174  O     0.81695   0.16667   0.68388   0.00000  Uiso   1.00
Zn1175 Zn    0.78229   0.16667   0.75000   0.00000  Uiso   1.00
Zn1176 Zn    0.88438   0.16666   0.75000   0.00000  Uiso   1.00
C1177  C     0.16739   0.57984   0.75134   0.00000  Uiso   1.00
C1178  C     0.16028   0.64181   0.71532   0.00000  Uiso   1.00
C1179  C     0.16214   0.37544   0.75286   0.00000  Uiso   1.00
C1180  C     0.17068   0.62396   0.75051   0.00000  Uiso   1.00
C1181  C     0.31943   0.47243   0.72101   0.00000  Uiso   1.00
C1182  C     0.01316   0.52661   0.77986   0.00000  Uiso   1.00
C1183  C     0.03408   0.47338   0.72100   0.00000  Uiso   1.00
C1184  C     0.29954   0.52723   0.77817   0.00000  Uiso   1.00
C1185  C     0.13676   0.49872   0.83771   0.00000  Uiso   1.00
C1186  C     0.19662   0.49886   0.66220   0.00000  Uiso   1.00
C1187  C     0.11981   0.48899   0.88657   0.00000  Uiso   1.00
C1188  C     0.16557   0.41988   0.74980   0.00000  Uiso   1.00
C1189  C     0.21483   0.49344   0.61181   0.00000  Uiso   1.00
C1190  C     0.06157   0.45772   0.95401   0.00000  Uiso   1.00
C1191  C     0.27939   0.49613   0.53740   0.00000  Uiso   1.00
C1192  C     0.07353   0.47237   0.90958   0.00000  Uiso   1.00
C1193  C     0.26363   0.50010   0.58546   0.00000  Uiso   1.00
C1194  C     0.15395   0.49006   0.90784   0.00000  Uiso   1.00
C1195  C     0.18246   0.48076   0.59007   0.00000  Uiso   1.00
C1196  C     0.14366   0.47336   0.95098   0.00000  Uiso   1.00
C1197  C     0.19758   0.47595   0.54183   0.00000  Uiso   1.00
C1198  C     0.09602   0.45914   0.97533   0.00000  Uiso   1.00
C1199  C     0.11688   0.45102   0.54271   0.00000  Uiso   1.00
C1200  C     0.24664   0.48487   0.51537   0.00000  Uiso   1.00
C1201  C     0.17912   0.47266   0.97137   0.00000  Uiso   1.00
C1202  C     0.16438   0.46618   0.51922   0.00000  Uiso   1.00
C1203  C     0.18484   0.62815   0.82781   0.00000  Uiso   1.00
C1204  C     0.13571   0.61877   0.86530   0.00000  Uiso   1.00
C1205  C     0.14134   0.60489   0.90929   0.00000  Uiso   1.00
C1206  C     0.10659   0.36085   0.70628   0.00000  Uiso   1.00
C1207  C     0.05990   0.34245   0.74166   0.00000  Uiso   1.00
C1208  C     0.01498   0.35565   0.73448   0.00000  Uiso   1.00
C1209  C     0.30445   0.43821   0.69249   0.00000  Uiso   1.00
C1210  C     0.22875   0.47820   0.94547   0.00000  Uiso   1.00
C1211  C     0.01003   0.42427   0.64647   0.00000  Uiso   1.00
C1212  C     0.32243   0.39232   0.61975   0.00000  Uiso   1.00
C1213  C     0.02313   0.55633   0.81540   0.00000  Uiso   1.00
C1214  C     0.32783   0.54462   0.86571   0.00000  Uiso   1.00
C1215  C     0.28375   0.57158   0.88952   0.00000  Uiso   1.00
C1216  C     0.08352   0.44685   0.52063   0.00000  Uiso   1.00
C1217  C     0.26206   0.48362   0.96727   0.00000  Uiso   1.00
C1218  C     0.17841   0.64805   0.78695   0.00000  Uiso   1.00
C1219  C     0.14813   0.35008   0.72080   0.00000  Uiso   1.00
C1220  C     0.17639   0.35807   0.78644   0.00000  Uiso   1.00
Cl1221 Cl    0.18520   0.39062   0.83139   0.00000  Uiso   1.00
Cl1222 Cl    0.15703   0.61093   0.66685   0.00000  Uiso   1.00
H1223  H     0.04730   0.43559   0.53945   0.00000  Uiso   1.00
H1224  H     0.24259   0.47768   0.90812   0.00000  Uiso   1.00
H1225  H     0.06074   0.45243   0.69866   0.00000  Uiso   1.00
H1226  H     0.27367   0.54931   0.79975   0.00000  Uiso   1.00
H1227  H     0.16539   0.57785   0.90128   0.00000  Uiso   1.00
H1228  H     0.15685   0.63095   0.92518   0.00000  Uiso   1.00
H1229  H     0.10557   0.59553   0.93456   0.00000  Uiso   1.00
H1230  H     0.11347   0.64718   0.87405   0.00000  Uiso   1.00
H1231  H     0.11638   0.59361   0.85217   0.00000  Uiso   1.00
H1232  H     0.20555   0.59914   0.81716   0.00000  Uiso   1.00
H1233  H     0.20705   0.64876   0.84268   0.00000  Uiso   1.00
H1234  H     0.29967   0.48887   0.94659   0.00000  Uiso   1.00
H1235  H     0.01085   0.38963   0.74271   0.00000  Uiso   1.00
H1236  H     0.01740   0.34788   0.69835   0.00000  Uiso   1.00
H1237  H     0.31620   0.33909   0.75845   0.00000  Uiso   1.00
H1238  H     0.06077   0.64103   0.73897   0.00000  Uiso   1.00
H1239  H     0.05708   0.35277   0.77744   0.00000  Uiso   1.00
H1240  H     0.10358   0.39455   0.70329   0.00000  Uiso   1.00
H1241  H     0.11154   0.34742   0.67109   0.00000  Uiso   1.00
H1242  H     0.30428   0.36590   0.64182   0.00000  Uiso   1.00
H1243  H     0.29602   0.40734   0.60822   0.00000  Uiso   1.00
H1244  H     0.01844   0.37943   0.58889   0.00000  Uiso   1.00
H1245  H     0.14497   0.47665   0.61132   0.00000  Uiso   1.00
H1246  H     0.02430   0.45204   0.62535   0.00000  Uiso   1.00
H1247  H     0.03998   0.40919   0.65234   0.00000  Uiso   1.00
H1248  H     0.29003   0.41083   0.71408   0.00000  Uiso   1.00
H1249  H     0.27519   0.44882   0.68308   0.00000  Uiso   1.00
H1250  H     0.29388   0.60536   0.88582   0.00000  Uiso   1.00
H1251  H     0.25521   0.56395   0.87511   0.00000  Uiso   1.00
H1252  H     0.26863   0.56558   0.92703   0.00000  Uiso   1.00
H1253  H     0.31682   0.51100   0.86693   0.00000  Uiso   1.00
H1254  H     0.01838   0.54921   0.88624   0.00000  Uiso   1.00
H1255  H     0.06084   0.55649   0.81170   0.00000  Uiso   1.00
H1256  H     0.18871   0.50462   0.89028   0.00000  Uiso   1.00
H1257  H     0.01601   0.58886   0.80937   0.00000  Uiso   1.00
H1258  H     0.28924   0.50947   0.60189   0.00000  Uiso   1.00
H1259  H     0.04724   0.46973   0.89284   0.00000  Uiso   1.00
H1260  H     0.02569   0.44484   0.97147   0.00000  Uiso   1.00
H1261  H     0.31679   0.50337   0.51750   0.00000  Uiso   1.00
H1262  H     0.10529   0.44098   0.57773   0.00000  Uiso   1.00
N1263  N     0.04759   0.50001   0.75001   0.00000  Uiso   1.00
N1264  N     0.28574   0.49999   0.74999   0.00000  Uiso   1.00
O1265  O     0.12846   0.56108   0.75001   0.00000  Uiso   1.00
O1266  O     0.20488   0.43892   0.75000   0.00000  Uiso   1.00
O1267  O     0.20490   0.56107   0.75000   0.00000  Uiso   1.00
O1268  O     0.12843   0.43893   0.75000   0.00000  Uiso   1.00
O1269  O     0.10661   0.50001   0.81613   0.00000  Uiso   1.00
O1270  O     0.22672   0.49999   0.68388   0.00000  Uiso   1.00
O1271  O     0.18305   0.50000   0.81612   0.00000  Uiso   1.00
O1272  O     0.15028   0.50000   0.68388   0.00000  Uiso   1.00
Zn1273 Zn    0.11562   0.50001   0.75000   0.00000  Uiso   1.00
Zn1274 Zn    0.21771   0.49999   0.75000   0.00000  Uiso   1.00
C1275  C     0.50072   0.57984   0.75134   0.00000  Uiso   1.00
C1276  C     0.49361   0.64181   0.71532   0.00000  Uiso   1.00
C1277  C     0.49548   0.37544   0.75286   0.00000  Uiso   1.00
C1278  C     0.50402   0.62396   0.75051   0.00000  Uiso   1.00
C1279  C     0.65277   0.47243   0.72101   0.00000  Uiso   1.00
C1280  C     0.34650   0.52661   0.77986   0.00000  Uiso   1.00
C1281  C     0.36741   0.47338   0.72100   0.00000  Uiso   1.00
C1282  C     0.63287   0.52723   0.77817   0.00000  Uiso   1.00
C1283  C     0.47010   0.49872   0.83771   0.00000  Uiso   1.00
C1284  C     0.52995   0.49886   0.66220   0.00000  Uiso   1.00
C1285  C     0.45315   0.48899   0.88657   0.00000  Uiso   1.00
C1286  C     0.49890   0.41988   0.74980   0.00000  Uiso   1.00
C1287  C     0.54817   0.49344   0.61181   0.00000  Uiso   1.00
C1288  C     0.39490   0.45772   0.95401   0.00000  Uiso   1.00
C1289  C     0.61273   0.49613   0.53740   0.00000  Uiso   1.00
C1290  C     0.40686   0.47237   0.90958   0.00000  Uiso   1.00
C1291  C     0.59696   0.50010   0.58546   0.00000  Uiso   1.00
C1292  C     0.48728   0.49006   0.90784   0.00000  Uiso   1.00
C1293  C     0.51579   0.48076   0.59007   0.00000  Uiso   1.00
C1294  C     0.47699   0.47336   0.95098   0.00000  Uiso   1.00
C1295  C     0.53091   0.47595   0.54183   0.00000  Uiso   1.00
C1296  C     0.42936   0.45914   0.97533   0.00000  Uiso   1.00
C1297  C     0.45021   0.45102   0.54271   0.00000  Uiso   1.00
C1298  C     0.57998   0.48487   0.51537   0.00000  Uiso   1.00
C1299  C     0.51245   0.47266   0.97137   0.00000  Uiso   1.00
C1300  C     0.49772   0.46618   0.51922   0.00000  Uiso   1.00
C1301  C     0.51817   0.62815   0.82781   0.00000  Uiso   1.00
C1302  C     0.46905   0.61877   0.86530   0.00000  Uiso   1.00
C1303  C     0.47467   0.60489   0.90929   0.00000  Uiso   1.00
C1304  C     0.43993   0.36085   0.70628   0.00000  Uiso   1.00
C1305  C     0.39324   0.34245   0.74166   0.00000  Uiso   1.00
C1306  C     0.34831   0.35565   0.73448   0.00000  Uiso   1.00
C1307  C     0.63778   0.43821   0.69249   0.00000  Uiso   1.00
C1308  C     0.56208   0.47820   0.94547   0.00000  Uiso   1.00
C1309  C     0.34336   0.42427   0.64647   0.00000  Uiso   1.00
C1310  C     0.65577   0.39232   0.61975   0.00000  Uiso   1.00
C1311  C     0.35646   0.55633   0.81540   0.00000  Uiso   1.00
C1312  C     0.66116   0.54462   0.86571   0.00000  Uiso   1.00
C1313  C     0.61709   0.57158   0.88952   0.00000  Uiso   1.00
C1314  C     0.41686   0.44685   0.52063   0.00000  Uiso   1.00
C1315  C     0.59540   0.48362   0.96727   0.00000  Uiso   1.00
C1316  C     0.51175   0.64805   0.78695   0.00000  Uiso   1.00
C1317  C     0.48146   0.35008   0.72080   0.00000  Uiso   1.00
C1318  C     0.50972   0.35807   0.78644   0.00000  Uiso   1.00
Cl1319 Cl    0.51854   0.39062   0.83139   0.00000  Uiso   1.00
Cl1320 Cl    0.49036   0.61093   0.66685   0.00000  Uiso   1.00
H1321  H     0.38063   0.43559   0.53945   0.00000  Uiso   1.00
H1322  H     0.57592   0.47768   0.90812   0.00000  Uiso   1.00
H1323  H     0.39408   0.45243   0.69866   0.00000  Uiso   1.00
H1324  H     0.60701   0.54931   0.79975   0.00000  Uiso   1.00
H1325  H     0.49872   0.57785   0.90128   0.00000  Uiso   1.00
H1326  H     0.49018   0.63095   0.92518   0.00000  Uiso   1.00
H1327  H     0.43890   0.59553   0.93456   0.00000  Uiso   1.00
H1328  H     0.44680   0.64718   0.87405   0.00000  Uiso   1.00
H1329  H     0.44971   0.59361   0.85217   0.00000  Uiso   1.00
H1330  H     0.53888   0.59914   0.81716   0.00000  Uiso   1.00
H1331  H     0.54038   0.64876   0.84268   0.00000  Uiso   1.00
H1332  H     0.63300   0.48887   0.94659   0.00000  Uiso   1.00
H1333  H     0.34418   0.38963   0.74271   0.00000  Uiso   1.00
H1334  H     0.35074   0.34788   0.69835   0.00000  Uiso   1.00
H1335  H     0.64953   0.33909   0.75845   0.00000  Uiso   1.00
H1336  H     0.39410   0.64103   0.73897   0.00000  Uiso   1.00
H1337  H     0.39041   0.35277   0.77744   0.00000  Uiso   1.00
H1338  H     0.43691   0.39455   0.70329   0.00000  Uiso   1.00
H1339  H     0.44488   0.34742   0.67109   0.00000  Uiso   1.00
H1340  H     0.63762   0.36590   0.64182   0.00000  Uiso   1.00
H1341  H     0.62935   0.40734   0.60822   0.00000  Uiso   1.00
H1342  H     0.35177   0.37943   0.58889   0.00000  Uiso   1.00
H1343  H     0.47831   0.47665   0.61132   0.00000  Uiso   1.00
H1344  H     0.35763   0.45204   0.62535   0.00000  Uiso   1.00
H1345  H     0.37331   0.40919   0.65234   0.00000  Uiso   1.00
H1346  H     0.62336   0.41083   0.71408   0.00000  Uiso   1.00
H1347  H     0.60852   0.44882   0.68308   0.00000  Uiso   1.00
H1348  H     0.62721   0.60536   0.88582   0.00000  Uiso   1.00
H1349  H     0.58855   0.56395   0.87511   0.00000  Uiso   1.00
H1350  H     0.60196   0.56558   0.92703   0.00000  Uiso   1.00
H1351  H     0.65016   0.51100   0.86693   0.00000  Uiso   1.00
H1352  H     0.35171   0.54921   0.88624   0.00000  Uiso   1.00
H1353  H     0.39418   0.55649   0.81170   0.00000  Uiso   1.00
H1354  H     0.52205   0.50462   0.89028   0.00000  Uiso   1.00
H1355  H     0.34935   0.58886   0.80937   0.00000  Uiso   1.00
H1356  H     0.62257   0.50947   0.60189   0.00000  Uiso   1.00
H1357  H     0.38057   0.46973   0.89284   0.00000  Uiso   1.00
H1358  H     0.35902   0.44484   0.97147   0.00000  Uiso   1.00
H1359  H     0.65013   0.50337   0.51750   0.00000  Uiso   1.00
H1360  H     0.43862   0.44098   0.57773   0.00000  Uiso   1.00
N1361  N     0.38093   0.50001   0.75001   0.00000  Uiso   1.00
N1362  N     0.61907   0.49999   0.74999   0.00000  Uiso   1.00
O1363  O     0.46179   0.56108   0.75001   0.00000  Uiso   1.00
O1364  O     0.53821   0.43892   0.75000   0.00000  Uiso   1.00
O1365  O     0.53823   0.56107   0.75000   0.00000  Uiso   1.00
O1366  O     0.46177   0.43893   0.75000   0.00000  Uiso   1.00
O1367  O     0.43994   0.50001   0.81613   0.00000  Uiso   1.00
O1368  O     0.56006   0.49999   0.68388   0.00000  Uiso   1.00
O1369  O     0.51639   0.50000   0.81612   0.00000  Uiso   1.00
O1370  O     0.48361   0.50000   0.68388   0.00000  Uiso   1.00
Zn1371 Zn    0.44896   0.50001   0.75000   0.00000  Uiso   1.00
Zn1372 Zn    0.55104   0.49999   0.75000   0.00000  Uiso   1.00
C1373  C     0.83405   0.57984   0.75134   0.00000  Uiso   1.00
C1374  C     0.82694   0.64181   0.71532   0.00000  Uiso   1.00
C1375  C     0.82881   0.37544   0.75286   0.00000  Uiso   1.00
C1376  C     0.83735   0.62396   0.75051   0.00000  Uiso   1.00
C1377  C     0.98610   0.47243   0.72101   0.00000  Uiso   1.00
C1378  C     0.67983   0.52661   0.77986   0.00000  Uiso   1.00
C1379  C     0.70075   0.47338   0.72100   0.00000  Uiso   1.00
C1380  C     0.96621   0.52723   0.77817   0.00000  Uiso   1.00
C1381  C     0.80343   0.49872   0.83771   0.00000  Uiso   1.00
C1382  C     0.86328   0.49886   0.66220   0.00000  Uiso   1.00
C1383  C     0.78648   0.48899   0.88657   0.00000  Uiso   1.00
C1384  C     0.83224   0.41988   0.74980   0.00000  Uiso   1.00
C1385  C     0.88150   0.49344   0.61181   0.00000  Uiso   1.00
C1386  C     0.72824   0.45772   0.95401   0.00000  Uiso   1.00
C1387  C     0.94606   0.49613   0.53740   0.00000  Uiso   1.00
C1388  C     0.74019   0.47237   0.90958   0.00000  Uiso   1.00
C1389  C     0.93029   0.50010   0.58546   0.00000  Uiso   1.00
C1390  C     0.82061   0.49006   0.90784   0.00000  Uiso   1.00
C1391  C     0.84912   0.48076   0.59007   0.00000  Uiso   1.00
C1392  C     0.81033   0.47336   0.95098   0.00000  Uiso   1.00
C1393  C     0.86424   0.47595   0.54183   0.00000  Uiso   1.00
C1394  C     0.76269   0.45914   0.97533   0.00000  Uiso   1.00
C1395  C     0.78355   0.45102   0.54271   0.00000  Uiso   1.00
C1396  C     0.91331   0.48487   0.51537   0.00000  Uiso   1.00
C1397  C     0.84579   0.47266   0.97137   0.00000  Uiso   1.00
C1398  C     0.83105   0.46618   0.51922   0.00000  Uiso   1.00
C1399  C     0.85150   0.62815   0.82781   0.00000  Uiso   1.00
C1400  C     0.80238   0.61877   0.86530   0.00000  Uiso   1.00
C1401  C     0.80800   0.60489   0.90929   0.00000  Uiso   1.00
C1402  C     0.77326   0.36085   0.70628   0.00000  Uiso   1.00
C1403  C     0.72657   0.34245   0.74166   0.00000  Uiso   1.00
C1404  C     0.68165   0.35565   0.73448   0.00000  Uiso   1.00
C1405  C     0.97112   0.43821   0.69249   0.00000  Uiso   1.00
C1406  C     0.89541   0.47820   0.94547   0.00000  Uiso   1.00
C1407  C     0.67670   0.42427   0.64647   0.00000  Uiso   1.00
C1408  C     0.98910   0.39232   0.61975   0.00000  Uiso   1.00
C1409  C     0.68980   0.55633   0.81540   0.00000  Uiso   1.00
C1410  C     0.99450   0.54462   0.86571   0.00000  Uiso   1.00
C1411  C     0.95042   0.57158   0.88952   0.00000  Uiso   1.00
C1412  C     0.75019   0.44685   0.52063   0.00000  Uiso   1.00
C1413  C     0.92873   0.48362   0.96727   0.00000  Uiso   1.00
C1414  C     0.84508   0.64805   0.78695   0.00000  Uiso   1.00
C1415  C     0.81480   0.35008   0.72080   0.00000  Uiso   1.00
C1416  C     0.84306   0.35807   0.78644   0.00000  Uiso   1.00
Cl1417 Cl    0.85187   0.39062   0.83139   0.00000  Uiso   1.00
Cl1418 Cl    0.82370   0.61093   0.66685   0.00000  Uiso   1.00
H1419  H     0.71397   0.43559   0.53945   0.00000  Uiso   1.00
H1420  H     0.90925   0.47768   0.90812   0.00000  Uiso   1.00
H1421  H     0.72741   0.45243   0.69866   0.00000  Uiso   1.00
H1422  H     0.94034   0.54931   0.79975   0.00000  Uiso   1.00
H1423  H     0.83206   0.57785   0.90128   0.00000  Uiso   1.00
H1424  H     0.82351   0.63095   0.92518   0.00000  Uiso   1.00
H1425  H     0.77224   0.59553   0.93456   0.00000  Uiso   1.00
H1426  H     0.78014   0.64718   0.87405   0.00000  Uiso   1.00
H1427  H     0.78305   0.59361   0.85217   0.00000  Uiso   1.00
H1428  H     0.87221   0.59914   0.81716   0.00000  Uiso   1.00
H1429  H     0.87371   0.64876   0.84268   0.00000  Uiso   1.00
H1430  H     0.96634   0.48887   0.94659   0.00000  Uiso   1.00
H1431  H     0.67751   0.38963   0.74271   0.00000  Uiso   1.00
H1432  H     0.68407   0.34788   0.69835   0.00000  Uiso   1.00
H1433  H     0.98287   0.33909   0.75845   0.00000  Uiso   1.00
H1434  H     0.72743   0.64103   0.73897   0.00000  Uiso   1.00
H1435  H     0.72374   0.35277   0.77744   0.00000  Uiso   1.00
H1436  H     0.77025   0.39455   0.70329   0.00000  Uiso   1.00
H1437  H     0.77821   0.34742   0.67109   0.00000  Uiso   1.00
H1438  H     0.97095   0.36590   0.64182   0.00000  Uiso   1.00
H1439  H     0.96269   0.40734   0.60822   0.00000  Uiso   1.00
H1440  H     0.68511   0.37943   0.58889   0.00000  Uiso   1.00
H1441  H     0.81164   0.47665   0.61132   0.00000  Uiso   1.00
H1442  H     0.69096   0.45204   0.62535   0.00000  Uiso   1.00
H1443  H     0.70664   0.40919   0.65234   0.00000  Uiso   1.00
H1444  H     0.95670   0.41083   0.71408   0.00000  Uiso   1.00
H1445  H     0.94186   0.44882   0.68308   0.00000  Uiso   1.00
H1446  H     0.96055   0.60536   0.88582   0.00000  Uiso   1.00
H1447  H     0.92188   0.56395   0.87511   0.00000  Uiso   1.00
H1448  H     0.93529   0.56558   0.92703   0.00000  Uiso   1.00
H1449  H     0.98349   0.51100   0.86693   0.00000  Uiso   1.00
H1450  H     0.68504   0.54921   0.88624   0.00000  Uiso   1.00
H1451  H     0.72751   0.55649   0.81170   0.00000  Uiso   1.00
H1452  H     0.85538   0.50462   0.89028   0.00000  Uiso   1.00
H1453  H     0.68268   0.58886   0.80937   0.00000  Uiso   1.00
H1454  H     0.95591   0.50947   0.60189   0.00000  Uiso   1.00
H1455  H     0.71390   0.46973   0.89284   0.00000  Uiso   1.00
H1456  H     0.69235   0.44484   0.97147   0.00000  Uiso   1.00
H1457  H     0.98346   0.50337   0.51750   0.00000  Uiso   1.00
H1458  H     0.77196   0.44098   0.57773   0.00000  Uiso   1.00
N1459  N     0.71426   0.50001   0.75001   0.00000  Uiso   1.00
N1460  N     0.95241   0.49999   0.74999   0.00000  Uiso   1.00
O1461  O     0.79512   0.56108   0.75001   0.00000  Uiso   1.00
O1462  O     0.87154   0.43892   0.75000   0.00000  Uiso   1.00
O1463  O     0.87157   0.56107   0.75000   0.00000  Uiso   1.00
O1464  O     0.79510   0.43893   0.75000   0.00000  Uiso   1.00
O1465  O     0.77328   0.50001   0.81613   0.00000  Uiso   1.00
O1466  O     0.89339   0.49999   0.68388   0.00000  Uiso   1.00
O1467  O     0.84972   0.50000   0.81612   0.00000  Uiso   1.00
O1468  O     0.81695   0.50000   0.68388   0.00000  Uiso   1.00
Zn1469 Zn    0.78229   0.50001   0.75000   0.00000  Uiso   1.00
Zn1470 Zn    0.88438   0.49999   0.75000   0.00000  Uiso   1.00
C1471  C     0.16739   0.91317   0.75134   0.00000  Uiso   1.00
C1472  C     0.16028   0.97514   0.71532   0.00000  Uiso   1.00
C1473  C     0.16214   0.70877   0.75286   0.00000  Uiso   1.00
C1474  C     0.17068   0.95730   0.75051   0.00000  Uiso   1.00
C1475  C     0.31943   0.80577   0.72101   0.00000  Uiso   1.00
C1476  C     0.01316   0.85995   0.77986   0.00000  Uiso   1.00
C1477  C     0.03408   0.80672   0.72100   0.00000  Uiso   1.00
C1478  C     0.29954   0.86057   0.77817   0.00000  Uiso   1.00
C1479  C     0.13676   0.83205   0.83771   0.00000  Uiso   1.00
C1480  C     0.19662   0.83219   0.66220   0.00000  Uiso   1.00
C1481  C     0.11981   0.82232   0.88657   0.00000  Uiso   1.00
C1482  C     0.16557   0.75321   0.74980   0.00000  Uiso   1.00
C1483  C     0.21483   0.82678   0.61181   0.00000  Uiso   1.00
C1484  C     0.06157   0.79105   0.95401   0.00000  Uiso   1.00
C1485  C     0.27939   0.82946   0.53740   0.00000  Uiso   1.00
C1486  C     0.07353   0.80571   0.90958   0.00000  Uiso   1.00
C1487  C     0.26363   0.83344   0.58546   0.00000  Uiso   1.00
C1488  C     0.15395   0.82340   0.90784   0.00000  Uiso   1.00
C1489  C     0.18246   0.81409   0.59007   0.00000  Uiso   1.00
C1490  C     0.14366   0.80670   0.95098   0.00000  Uiso   1.00
C1491  C     0.19758   0.80928   0.54183   0.00000  Uiso   1.00
C1492  C     0.09602   0.79247   0.97533   0.00000  Uiso   1.00
C1493  C     0.11688   0.78436   0.54271   0.00000  Uiso   1.00
C1494  C     0.24664   0.81820   0.51537   0.00000  Uiso   1.00
C1495  C     0.17912   0.80599   0.97137   0.00000  Uiso   1.00
C1496  C     0.16438   0.79951   0.51922   0.00000  Uiso   1.00
C1497  C     0.18484   0.96149   0.82781   0.00000  Uiso   1.00
C1498  C     0.13571   0.95210   0.86530   0.00000  Uiso   1.00
C1499  C     0.14134   0.93822   0.90929   0.00000  Uiso   1.00
C1500  C     0.10659   0.69418   0.70628   0.00000  Uiso   1.00
C1501  C     0.05990   0.67578   0.74166   0.00000  Uiso   1.00
C1502  C     0.01498   0.68898   0.73448   0.00000  Uiso   1.00
C1503  C     0.30445   0.77154   0.69249   0.00000  Uiso   1.00
C1504  C     0.22875   0.81153   0.94547   0.00000  Uiso   1.00
C1505  C     0.01003   0.75760   0.64647   0.00000  Uiso   1.00
C1506  C     0.32243   0.72566   0.61975   0.00000  Uiso   1.00
C1507  C     0.02313   0.88966   0.81540   0.00000  Uiso   1.00
C1508  C     0.32783   0.87795   0.86571   0.00000  Uiso   1.00
C1509  C     0.28375   0.90492   0.88952   0.00000  Uiso   1.00
C1510  C     0.08352   0.78019   0.52063   0.00000  Uiso   1.00
C1511  C     0.26206   0.81695   0.96727   0.00000  Uiso   1.00
C1512  C     0.17841   0.98139   0.78695   0.00000  Uiso   1.00
C1513  C     0.14813   0.68341   0.72080   0.00000  Uiso   1.00
C1514  C     0.17639   0.69141   0.78644   0.00000  Uiso   1.00
Cl1515 Cl    0.18520   0.72396   0.83139   0.00000  Uiso   1.00
Cl1516 Cl    0.15703   0.94426   0.66685   0.00000  Uiso   1.00
H1517  H     0.04730   0.76893   0.53945   0.00000  Uiso   1.00
H1518  H     0.24259   0.81101   0.90812   0.00000  Uiso   1.00
H1519  H     0.06074   0.78576   0.69866   0.00000  Uiso   1.00
H1520  H     0.27367   0.88265   0.79975   0.00000  Uiso   1.00
H1521  H     0.16539   0.91118   0.90128   0.00000  Uiso   1.00
H1522  H     0.15685   0.96428   0.92518   0.00000  Uiso   1.00
H1523  H     0.10557   0.92887   0.93456   0.00000  Uiso   1.00
H1524  H     0.11347   0.98052   0.87405   0.00000  Uiso   1.00
H1525  H     0.11638   0.92695   0.85217   0.00000  Uiso   1.00
H1526  H     0.20555   0.93247   0.81716   0.00000  Uiso   1.00
H1527  H     0.20705   0.98209   0.84268   0.00000  Uiso   1.00
H1528  H     0.29967   0.82220   0.94659   0.00000  Uiso   1.00
H1529  H     0.01085   0.72297   0.74271   0.00000  Uiso   1.00
H1530  H     0.01740   0.68121   0.69835   0.00000  Uiso   1.00
H1531  H     0.31620   0.67242   0.75845   0.00000  Uiso   1.00
H1532  H     0.06077   0.97436   0.73897   0.00000  Uiso   1.00
H1533  H     0.05708   0.68610   0.77744   0.00000  Uiso   1.00
H1534  H     0.10358   0.72788   0.70329   0.00000  Uiso   1.00
H1535  H     0.11154   0.68075   0.67109   0.00000  Uiso   1.00
H1536  H     0.30428   0.69924   0.64182   0.00000  Uiso   1.00
H1537  H     0.29602   0.74067   0.60822   0.00000  Uiso   1.00
H1538  H     0.01844   0.71276   0.58889   0.00000  Uiso   1.00
H1539  H     0.14497   0.80998   0.61132   0.00000  Uiso   1.00
H1540  H     0.02430   0.78538   0.62535   0.00000  Uiso   1.00
H1541  H     0.03998   0.74252   0.65234   0.00000  Uiso   1.00
H1542  H     0.29003   0.74416   0.71408   0.00000  Uiso   1.00
H1543  H     0.27519   0.78216   0.68308   0.00000  Uiso   1.00
H1544  H     0.29388   0.93869   0.88582   0.00000  Uiso   1.00
H1545  H     0.25521   0.89729   0.87511   0.00000  Uiso   1.00
H1546  H     0.26863   0.89891   0.92703   0.00000  Uiso   1.00
H1547  H     0.31682   0.84433   0.86693   0.00000  Uiso   1.00
H1548  H     0.01838   0.88255   0.88624   0.00000  Uiso   1.00
H1549  H     0.06084   0.88982   0.81170   0.00000  Uiso   1.00
H1550  H     0.18871   0.83796   0.89028   0.00000  Uiso   1.00
H1551  H     0.01601   0.92220   0.80937   0.00000  Uiso   1.00
H1552  H     0.28924   0.84281   0.60189   0.00000  Uiso   1.00
H1553  H     0.04724   0.80306   0.89284   0.00000  Uiso   1.00
H1554  H     0.02569   0.77817   0.97147   0.00000  Uiso   1.00
H1555  H     0.31679   0.83670   0.51750   0.00000  Uiso   1.00
H1556  H     0.10529   0.77432   0.57773   0.00000  Uiso   1.00
N1557  N     0.04759   0.83334   0.75001   0.00000  Uiso   1.00
N1558  N     0.28574   0.83332   0.74999   0.00000  Uiso   1.00
O1559  O     0.12846   0.89442   0.75001   0.00000  Uiso   1.00
O1560  O     0.20488   0.77225   0.75000   0.00000  Uiso   1.00
O1561  O     0.20490   0.89441   0.75000   0.00000  Uiso   1.00
O1562  O     0.12843   0.77226   0.75000   0.00000  Uiso   1.00
O1563  O     0.10661   0.83334   0.81613   0.00000  Uiso   1.00
O1564  O     0.22672   0.83333   0.68388   0.00000  Uiso   1.00
O1565  O     0.18305   0.83333   0.81612   0.00000  Uiso   1.00
O1566  O     0.15028   0.83334   0.68388   0.00000  Uiso   1.00
Zn1567 Zn    0.11562   0.83334   0.75000   0.00000  Uiso   1.00
Zn1568 Zn    0.21771   0.83333   0.75000   0.00000  Uiso   1.00
C1569  C     0.50072   0.91317   0.75134   0.00000  Uiso   1.00
C1570  C     0.49361   0.97514   0.71532   0.00000  Uiso   1.00
C1571  C     0.49548   0.70877   0.75286   0.00000  Uiso   1.00
C1572  C     0.50402   0.95730   0.75051   0.00000  Uiso   1.00
C1573  C     0.65277   0.80577   0.72101   0.00000  Uiso   1.00
C1574  C     0.34650   0.85995   0.77986   0.00000  Uiso   1.00
C1575  C     0.36741   0.80672   0.72100   0.00000  Uiso   1.00
C1576  C     0.63287   0.86057   0.77817   0.00000  Uiso   1.00
C1577  C     0.47010   0.83205   0.83771   0.00000  Uiso   1.00
C1578  C     0.52995   0.83219   0.66220   0.00000  Uiso   1.00
C1579  C     0.45315   0.82232   0.88657   0.00000  Uiso   1.00
C1580  C     0.49890   0.75321   0.74980   0.00000  Uiso   1.00
C1581  C     0.54817   0.82678   0.61181   0.00000  Uiso   1.00
C1582  C     0.39490   0.79105   0.95401   0.00000  Uiso   1.00
C1583  C     0.61273   0.82946   0.53740   0.00000  Uiso   1.00
C1584  C     0.40686   0.80571   0.90958   0.00000  Uiso   1.00
C1585  C     0.59696   0.83344   0.58546   0.00000  Uiso   1.00
C1586  C     0.48728   0.82340   0.90784   0.00000  Uiso   1.00
C1587  C     0.51579   0.81409   0.59007   0.00000  Uiso   1.00
C1588  C     0.47699   0.80670   0.95098   0.00000  Uiso   1.00
C1589  C     0.53091   0.80928   0.54183   0.00000  Uiso   1.00
C1590  C     0.42936   0.79247   0.97533   0.00000  Uiso   1.00
C1591  C     0.45021   0.78436   0.54271   0.00000  Uiso   1.00
C1592  C     0.57998   0.81820   0.51537   0.00000  Uiso   1.00
C1593  C     0.51245   0.80599   0.97137   0.00000  Uiso   1.00
C1594  C     0.49772   0.79951   0.51922   0.00000  Uiso   1.00
C1595  C     0.51817   0.96149   0.82781   0.00000  Uiso   1.00
C1596  C     0.46905   0.95210   0.86530   0.00000  Uiso   1.00
C1597  C     0.47467   0.93822   0.90929   0.00000  Uiso   1.00
C1598  C     0.43993   0.69418   0.70628   0.00000  Uiso   1.00
C1599  C     0.39324   0.67578   0.74166   0.00000  Uiso   1.00
C1600  C     0.34831   0.68898   0.73448   0.00000  Uiso   1.00
C1601  C     0.63778   0.77154   0.69249   0.00000  Uiso   1.00
C1602  C     0.56208   0.81153   0.94547   0.00000  Uiso   1.00
C1603  C     0.34336   0.75760   0.64647   0.00000  Uiso   1.00
C1604  C     0.65577   0.72566   0.61975   0.00000  Uiso   1.00
C1605  C     0.35646   0.88966   0.81540   0.00000  Uiso   1.00
C1606  C     0.66116   0.87795   0.86571   0.00000  Uiso   1.00
C1607  C     0.61709   0.90492   0.88952   0.00000  Uiso   1.00
C1608  C     0.41686   0.78019   0.52063   0.00000  Uiso   1.00
C1609  C     0.59540   0.81695   0.96727   0.00000  Uiso   1.00
C1610  C     0.51175   0.98139   0.78695   0.00000  Uiso   1.00
C1611  C     0.48146   0.68341   0.72080   0.00000  Uiso   1.00
C1612  C     0.50972   0.69141   0.78644   0.00000  Uiso   1.00
Cl1613 Cl    0.51854   0.72396   0.83139   0.00000  Uiso   1.00
Cl1614 Cl    0.49036   0.94426   0.66685   0.00000  Uiso   1.00
H1615  H     0.38063   0.76893   0.53945   0.00000  Uiso   1.00
H1616  H     0.57592   0.81101   0.90812   0.00000  Uiso   1.00
H1617  H     0.39408   0.78576   0.69866   0.00000  Uiso   1.00
H1618  H     0.60701   0.88265   0.79975   0.00000  Uiso   1.00
H1619  H     0.49872   0.91118   0.90128   0.00000  Uiso   1.00
H1620  H     0.49018   0.96428   0.92518   0.00000  Uiso   1.00
H1621  H     0.43890   0.92887   0.93456   0.00000  Uiso   1.00
H1622  H     0.44680   0.98052   0.87405   0.00000  Uiso   1.00
H1623  H     0.44971   0.92695   0.85217   0.00000  Uiso   1.00
H1624  H     0.53888   0.93247   0.81716   0.00000  Uiso   1.00
H1625  H     0.54038   0.98209   0.84268   0.00000  Uiso   1.00
H1626  H     0.63300   0.82220   0.94659   0.00000  Uiso   1.00
H1627  H     0.34418   0.72297   0.74271   0.00000  Uiso   1.00
H1628  H     0.35074   0.68121   0.69835   0.00000  Uiso   1.00
H1629  H     0.64953   0.67242   0.75845   0.00000  Uiso   1.00
H1630  H     0.39410   0.97436   0.73897   0.00000  Uiso   1.00
H1631  H     0.39041   0.68610   0.77744   0.00000  Uiso   1.00
H1632  H     0.43691   0.72788   0.70329   0.00000  Uiso   1.00
H1633  H     0.44488   0.68075   0.67109   0.00000  Uiso   1.00
H1634  H     0.63762   0.69924   0.64182   0.00000  Uiso   1.00
H1635  H     0.62935   0.74067   0.60822   0.00000  Uiso   1.00
H1636  H     0.35177   0.71276   0.58889   0.00000  Uiso   1.00
H1637  H     0.47831   0.80998   0.61132   0.00000  Uiso   1.00
H1638  H     0.35763   0.78538   0.62535   0.00000  Uiso   1.00
H1639  H     0.37331   0.74252   0.65234   0.00000  Uiso   1.00
H1640  H     0.62336   0.74416   0.71408   0.00000  Uiso   1.00
H1641  H     0.60852   0.78216   0.68308   0.00000  Uiso   1.00
H1642  H     0.62721   0.93869   0.88582   0.00000  Uiso   1.00
H1643  H     0.58855   0.89729   0.87511   0.00000  Uiso   1.00
H1644  H     0.60196   0.89891   0.92703   0.00000  Uiso   1.00
H1645  H     0.65016   0.84433   0.86693   0.00000  Uiso   1.00
H1646  H     0.35171   0.88255   0.88624   0.00000  Uiso   1.00
H1647  H     0.39418   0.88982   0.81170   0.00000  Uiso   1.00
H1648  H     0.52205   0.83796   0.89028   0.00000  Uiso   1.00
H1649  H     0.34935   0.92220   0.80937   0.00000  Uiso   1.00
H1650  H     0.62257   0.84281   0.60189   0.00000  Uiso   1.00
H1651  H     0.38057   0.80306   0.89284   0.00000  Uiso   1.00
H1652  H     0.35902   0.77817   0.97147   0.00000  Uiso   1.00
H1653  H     0.65013   0.83670   0.51750   0.00000  Uiso   1.00
H1654  H     0.43862   0.77432   0.57773   0.00000  Uiso   1.00
N1655  N     0.38093   0.83334   0.75001   0.00000  Uiso   1.00
N1656  N     0.61907   0.83332   0.74999   0.00000  Uiso   1.00
O1657  O     0.46179   0.89442   0.75001   0.00000  Uiso   1.00
O1658  O     0.53821   0.77225   0.75000   0.00000  Uiso   1.00
O1659  O     0.53823   0.89441   0.75000   0.00000  Uiso   1.00
O1660  O     0.46177   0.77226   0.75000   0.00000  Uiso   1.00
O1661  O     0.43994   0.83334   0.81613   0.00000  Uiso   1.00
O1662  O     0.56006   0.83333   0.68388   0.00000  Uiso   1.00
O1663  O     0.51639   0.83333   0.81612   0.00000  Uiso   1.00
O1664  O     0.48361   0.83334   0.68388   0.00000  Uiso   1.00
Zn1665 Zn    0.44896   0.83334   0.75000   0.00000  Uiso   1.00
Zn1666 Zn    0.55104   0.83333   0.75000   0.00000  Uiso   1.00
C1667  C     0.83405   0.91317   0.75134   0.00000  Uiso   1.00
C1668  C     0.82694   0.97514   0.71532   0.00000  Uiso   1.00
C1669  C     0.82881   0.70877   0.75286   0.00000  Uiso   1.00
C1670  C     0.83735   0.95730   0.75051   0.00000  Uiso   1.00
C1671  C     0.98610   0.80577   0.72101   0.00000  Uiso   1.00
C1672  C     0.67983   0.85995   0.77986   0.00000  Uiso   1.00
C1673  C     0.70075   0.80672   0.72100   0.00000  Uiso   1.00
C1674  C     0.96621   0.86057   0.77817   0.00000  Uiso   1.00
C1675  C     0.80343   0.83205   0.83771   0.00000  Uiso   1.00
C1676  C     0.86328   0.83219   0.66220   0.00000  Uiso   1.00
C1677  C     0.78648   0.82232   0.88657   0.00000  Uiso   1.00
C1678  C     0.83224   0.75321   0.74980   0.00000  Uiso   1.00
C1679  C     0.88150   0.82678   0.61181   0.00000  Uiso   1.00
C1680  C     0.72824   0.79105   0.95401   0.00000  Uiso   1.00
C1681  C     0.94606   0.82946   0.53740   0.00000  Uiso   1.00
C1682  C     0.74019   0.80571   0.90958   0.00000  Uiso   1.00
C1683  C     0.93029   0.83344   0.58546   0.00000  Uiso   1.00
C1684  C     0.82061   0.82340   0.90784   0.00000  Uiso   1.00
C1685  C     0.84912   0.81409   0.59007   0.00000  Uiso   1.00
C1686  C     0.81033   0.80670   0.95098   0.00000  Uiso   1.00
C1687  C     0.86424   0.80928   0.54183   0.00000  Uiso   1.00
C1688  C     0.76269   0.79247   0.97533   0.00000  Uiso   1.00
C1689  C     0.78355   0.78436   0.54271   0.00000  Uiso   1.00
C1690  C     0.91331   0.81820   0.51537   0.00000  Uiso   1.00
C1691  C     0.84579   0.80599   0.97137   0.00000  Uiso   1.00
C1692  C     0.83105   0.79951   0.51922   0.00000  Uiso   1.00
C1693  C     0.85150   0.96149   0.82781   0.00000  Uiso   1.00
C1694  C     0.80238   0.95210   0.86530   0.00000  Uiso   1.00
C1695  C     0.80800   0.93822   0.90929   0.00000  Uiso   1.00
C1696  C     0.77326   0.69418   0.70628   0.00000  Uiso   1.00
C1697  C     0.72657   0.67578   0.74166   0.00000  Uiso   1.00
C1698  C     0.68165   0.68898   0.73448   0.00000  Uiso   1.00
C1699  C     0.97112   0.77154   0.69249   0.00000  Uiso   1.00
C1700  C     0.89541   0.81153   0.94547   0.00000  Uiso   1.00
C1701  C     0.67670   0.75760   0.64647   0.00000  Uiso   1.00
C1702  C     0.98910   0.72566   0.61975   0.00000  Uiso   1.00
C1703  C     0.68980   0.88966   0.81540   0.00000  Uiso   1.00
C1704  C     0.99450   0.87795   0.86571   0.00000  Uiso   1.00
C1705  C     0.95042   0.90492   0.88952   0.00000  Uiso   1.00
C1706  C     0.75019   0.78019   0.52063   0.00000  Uiso   1.00
C1707  C     0.92873   0.81695   0.96727   0.00000  Uiso   1.00
C1708  C     0.84508   0.98139   0.78695   0.00000  Uiso   1.00
C1709  C     0.81480   0.68341   0.72080   0.00000  Uiso   1.00
C1710  C     0.84306   0.69141   0.78644   0.00000  Uiso   1.00
Cl1711 Cl    0.85187   0.72396   0.83139   0.00000  Uiso   1.00
Cl1712 Cl    0.82370   0.94426   0.66685   0.00000  Uiso   1.00
H1713  H     0.71397   0.76893   0.53945   0.00000  Uiso   1.00
H1714  H     0.90925   0.81101   0.90812   0.00000  Uiso   1.00
H1715  H     0.72741   0.78576   0.69866   0.00000  Uiso   1.00
H1716  H     0.94034   0.88265   0.79975   0.00000  Uiso   1.00
H1717  H     0.83206   0.91118   0.90128   0.00000  Uiso   1.00
H1718  H     0.82351   0.96428   0.92518   0.00000  Uiso   1.00
H1719  H     0.77224   0.92887   0.93456   0.00000  Uiso   1.00
H1720  H     0.78014   0.98052   0.87405   0.00000  Uiso   1.00
H1721  H     0.78305   0.92695   0.85217   0.00000  Uiso   1.00
H1722  H     0.87221   0.93247   0.81716   0.00000  Uiso   1.00
H1723  H     0.87371   0.98209   0.84268   0.00000  Uiso   1.00
H1724  H     0.96634   0.82220   0.94659   0.00000  Uiso   1.00
H1725  H     0.67751   0.72297   0.74271   0.00000  Uiso   1.00
H1726  H     0.68407   0.68121   0.69835   0.00000  Uiso   1.00
H1727  H     0.98287   0.67242   0.75845   0.00000  Uiso   1.00
H1728  H     0.72743   0.97436   0.73897   0.00000  Uiso   1.00
H1729  H     0.72374   0.68610   0.77744   0.00000  Uiso   1.00
H1730  H     0.77025   0.72788   0.70329   0.00000  Uiso   1.00
H1731  H     0.77821   0.68075   0.67109   0.00000  Uiso   1.00
H1732  H     0.97095   0.69924   0.64182   0.00000  Uiso   1.00
H1733  H     0.96269   0.74067   0.60822   0.00000  Uiso   1.00
H1734  H     0.68511   0.71276   0.58889   0.00000  Uiso   1.00
H1735  H     0.81164   0.80998   0.61132   0.00000  Uiso   1.00
H1736  H     0.69096   0.78538   0.62535   0.00000  Uiso   1.00
H1737  H     0.70664   0.74252   0.65234   0.00000  Uiso   1.00
H1738  H     0.95670   0.74416   0.71408   0.00000  Uiso   1.00
H1739  H     0.94186   0.78216   0.68308   0.00000  Uiso   1.00
H1740  H     0.96055   0.93869   0.88582   0.00000  Uiso   1.00
H1741  H     0.92188   0.89729   0.87511   0.00000  Uiso   1.00
H1742  H     0.93529   0.89891   0.92703   0.00000  Uiso   1.00
H1743  H     0.98349   0.84433   0.86693   0.00000  Uiso   1.00
H1744  H     0.68504   0.88255   0.88624   0.00000  Uiso   1.00
H1745  H     0.72751   0.88982   0.81170   0.00000  Uiso   1.00
H1746  H     0.85538   0.83796   0.89028   0.00000  Uiso   1.00
H1747  H     0.68268   0.92220   0.80937   0.00000  Uiso   1.00
H1748  H     0.95591   0.84281   0.60189   0.00000  Uiso   1.00
H1749  H     0.71390   0.80306   0.89284   0.00000  Uiso   1.00
H1750  H     0.69235   0.77817   0.97147   0.00000  Uiso   1.00
H1751  H     0.98346   0.83670   0.51750   0.00000  Uiso   1.00
H1752  H     0.77196   0.77432   0.57773   0.00000  Uiso   1.00
N1753  N     0.71426   0.83334   0.75001   0.00000  Uiso   1.00
N1754  N     0.95241   0.83332   0.74999   0.00000  Uiso   1.00
O1755  O     0.79512   0.89442   0.75001   0.00000  Uiso   1.00
O1756  O     0.87154   0.77225   0.75000   0.00000  Uiso   1.00
O1757  O     0.87157   0.89441   0.75000   0.00000  Uiso   1.00
O1758  O     0.79510   0.77226   0.75000   0.00000  Uiso   1.00
O1759  O     0.77328   0.83334   0.81613   0.00000  Uiso   1.00
O1760  O     0.89339   0.83333   0.68388   0.00000  Uiso   1.00
O1761  O     0.84972   0.83333   0.81612   0.00000  Uiso   1.00
O1762  O     0.81695   0.83334   0.68388   0.00000  Uiso   1.00
Zn1763 Zn    0.78229   0.83334   0.75000   0.00000  Uiso   1.00
Zn1764 Zn    0.88438   0.83333   0.75000   0.00000  Uiso   1.00
loop_
_geom_bond_atom_site_label_1
_geom_bond_atom_site_label_2
_geom_bond_distance
_geom_bond_site_symmetry_2
_ccdc_geom_bond_type
C1     O91     1.279   .     A
C1     O89     1.294   .     A
C1     C4      1.413   .     S
C2     Cl46    1.780   .     S
C2     C4      1.395   .     A
C2     C337    1.381   .     S
C3     C43     1.413   .     A
C3     C12     1.428   .     S
C3     C44     1.407   .     A
C4     C42     1.412   .     A
C5     N88     1.389   .     A
C5     C33     1.520   .     S
C5     C105    1.428   .     S
C6     N87     1.391   .     A
C6     C37     1.515   .     S
C6     C204    1.419   1_455 S
C7     N87     1.356   .     A
C7     H49     1.076   .     S
C7     C201    1.428   1_455 S
C8     N88     1.353   .     A
C8     H50     1.078   .     S
C8     C104    1.419   .     S
C9     O95     1.296   .     A
C9     O93     1.302   .     A
C9     C11     1.461   .     S
C10    O94     1.298   .     A
C10    O96     1.299   .     A
C10    C13     1.459   .     S
C11    C18     1.395   .     A
C11    C16     1.399   .     A
C12    O90     1.297   .     A
C12    O92     1.285   .     A
C13    C19     1.397   .     A
C13    C17     1.399   .     A
C14    H84     1.083   .     S
C14    C16     1.396   .     A
C14    C22     1.405   .     A
C15    H85     1.082   .     S
C15    C24     1.403   .     A
C15    C17     1.391   .     A
C16    H83     1.082   .     S
C17    H82     1.083   .     S
C18    C20     1.393   .     A
C18    H80     1.079   .     S
C19    C21     1.398   .     A
C19    H69     1.078   .     S
C20    C25     1.414   .     A
C20    C22     1.413   .     A
C21    C26     1.419   .     A
C21    C24     1.419   .     A
C22    C922    1.392   .     S
C23    C26     1.414   .     A
C23    C40     1.394   .     A
C23    H86     1.077   .     S
C24    C923    1.391   1_554 S
C25    C34     1.412   .     A
C25    C908    1.412   .     S
C26    C907    1.412   1_554 S
C27    H57     1.109   .     S
C27    H56     1.105   .     S
C27    C42     1.525   .     S
C27    C28     1.534   .     S
C28    C29     1.525   .     S
C28    H55     1.111   .     S
C28    H54     1.112   .     S
C29    H53     1.110   .     S
C29    H51     1.108   .     S
C29    H52     1.111   .     S
C30    H64     1.099   .     S
C30    C43     1.520   .     S
C30    C31     1.543   .     S
C30    H65     1.110   .     S
C31    H63     1.113   .     S
C31    C32     1.515   .     S
C31    H650    1.112   1_545 S
C32    H60     1.110   .     S
C32    H59     1.105   .     S
C32    H257    1.111   1_455 S
C33    H72     1.108   .     S
C33    H73     1.087   .     S
C33    C133    1.535   .     S
C34    C41     1.388   .     A
C34    H48     1.079   .     S
C35    H70     1.110   .     S
C35    H71     1.108   .     S
C35    C229    1.535   1_455 S
C35    C232    1.529   1_455 S
C36    H66     1.111   .     S
C36    H67     1.111   .     S
C36    C133    1.529   .     S
C36    H166    1.110   .     S
C37    H79     1.087   .     S
C37    H81     1.112   .     S
C37    C234    1.542   1_455 S
C38    C39     1.530   .     S
C38    H77     1.110   .     S
C38    C135    1.542   .     S
C38    H176    1.113   .     S
C39    H74     1.111   .     S
C39    H75     1.106   .     S
C39    H76     1.110   .     S
C40    H47     1.081   .     S
C40    C904    1.392   1_554 S
C41    H58     1.082   .     S
C41    C906    1.391   .     S
C42    C338    1.394   .     S
C43    C590    1.381   1_545 S
C44    Cl45    1.780   .     S
C44    C630    1.394   1_545 S
H61    C130    1.111   .     S
H62    C325    1.112   .     S
H68    C232    1.110   1_455 S
H78    C234    1.113   1_455 S
N87    Zn97    2.026   .     S
N88    Zn98    2.026   .     S
O89    Zn97    1.976   .     S
O90    Zn98    1.976   .     S
O91    Zn98    2.010   .     S
O92    Zn97    2.010   .     S
O93    Zn97    1.969   .     S
O94    Zn98    1.969   .     S
O95    Zn98    1.933   .     S
O96    Zn97    1.933   .     S
C99    O189    1.279   .     A
C99    O187    1.294   .     A
C99    C102    1.413   .     S
C100   Cl144   1.780   .     S
C100   C102    1.395   .     A
C100   C435    1.381   .     S
C101   C141    1.413   .     A
C101   C110    1.428   .     S
C101   C142    1.407   .     A
C102   C140    1.412   .     A
C103   N186    1.389   .     A
C103   C131    1.520   .     S
C103   C203    1.428   .     S
C104   N185    1.391   .     A
C104   C135    1.515   .     S
C105   N185    1.356   .     A
C105   H147    1.076   .     S
C106   N186    1.353   .     A
C106   H148    1.078   .     S
C106   C202    1.419   .     S
C107   O193    1.296   .     A
C107   O191    1.302   .     A
C107   C109    1.461   .     S
C108   O192    1.298   .     A
C108   O194    1.299   .     A
C108   C111    1.459   .     S
C109   C116    1.395   .     A
C109   C114    1.399   .     A
C110   O188    1.297   .     A
C110   O190    1.285   .     A
C111   C117    1.397   .     A
C111   C115    1.399   .     A
C112   H182    1.083   .     S
C112   C114    1.396   .     A
C112   C120    1.405   .     A
C113   H183    1.082   .     S
C113   C122    1.403   .     A
C113   C115    1.391   .     A
C114   H181    1.082   .     S
C115   H180    1.083   .     S
C116   C118    1.393   .     A
C116   H178    1.079   .     S
C117   C119    1.398   .     A
C117   H167    1.078   .     S
C118   C123    1.414   .     A
C118   C120    1.413   .     A
C119   C124    1.419   .     A
C119   C122    1.419   .     A
C120   C1020   1.392   .     S
C121   C124    1.414   .     A
C121   C138    1.394   .     A
C121   H184    1.077   .     S
C122   C1021   1.391   1_554 S
C123   C132    1.412   .     A
C123   C1006   1.412   .     S
C124   C1005   1.412   1_554 S
C125   H155    1.109   .     S
C125   H154    1.105   .     S
C125   C140    1.525   .     S
C125   C126    1.534   .     S
C126   C127    1.525   .     S
C126   H153    1.111   .     S
C126   H152    1.112   .     S
C127   H151    1.110   .     S
C127   H149    1.108   .     S
C127   H150    1.111   .     S
C128   H162    1.099   .     S
C128   C141    1.520   .     S
C128   C129    1.543   .     S
C128   H163    1.110   .     S
C129   H161    1.113   .     S
C129   C130    1.515   .     S
C129   H748    1.112   1_545 S
C130   H158    1.110   .     S
C130   H157    1.105   .     S
C131   H170    1.108   .     S
C131   H171    1.087   .     S
C131   C231    1.535   .     S
C132   C139    1.388   .     A
C132   H146    1.079   .     S
C133   H168    1.110   .     S
C133   H169    1.108   .     S
C134   H164    1.111   .     S
C134   H165    1.111   .     S
C134   C231    1.529   .     S
C134   H264    1.110   .     S
C135   H177    1.087   .     S
C135   H179    1.112   .     S
C136   C137    1.530   .     S
C136   H175    1.110   .     S
C136   C233    1.542   .     S
C136   H274    1.113   .     S
C137   H172    1.111   .     S
C137   H173    1.106   .     S
C137   H174    1.110   .     S
C138   H145    1.081   .     S
C138   C1002   1.392   1_554 S
C139   H156    1.082   .     S
C139   C1004   1.391   .     S
C140   C436    1.394   .     S
C141   C688    1.381   1_545 S
C142   Cl143   1.780   .     S
C142   C728    1.394   1_545 S
H159   C228    1.111   .     S
H160   C423    1.112   .     S
N185   Zn195   2.026   .     S
N186   Zn196   2.026   .     S
O187   Zn195   1.976   .     S
O188   Zn196   1.976   .     S
O189   Zn196   2.010   .     S
O190   Zn195   2.010   .     S
O191   Zn195   1.969   .     S
O192   Zn196   1.969   .     S
O193   Zn196   1.933   .     S
O194   Zn195   1.933   .     S
C197   O287    1.279   .     A
C197   O285    1.294   .     A
C197   C200    1.413   .     S
C198   Cl242   1.780   .     S
C198   C200    1.395   .     A
C198   C533    1.381   .     S
C199   C239    1.413   .     A
C199   C208    1.428   .     S
C199   C240    1.407   .     A
C200   C238    1.412   .     A
C201   N284    1.389   .     A
C201   C229    1.520   .     S
C201   C7      1.428   1_655 S
C202   N283    1.391   .     A
C202   C233    1.515   .     S
C203   N283    1.356   .     A
C203   H245    1.076   .     S
C204   N284    1.353   .     A
C204   H246    1.078   .     S
C204   C6      1.419   1_655 S
C205   O291    1.296   .     A
C205   O289    1.302   .     A
C205   C207    1.461   .     S
C206   O290    1.298   .     A
C206   O292    1.299   .     A
C206   C209    1.459   .     S
C207   C214    1.395   .     A
C207   C212    1.399   .     A
C208   O286    1.297   .     A
C208   O288    1.285   .     A
C209   C215    1.397   .     A
C209   C213    1.399   .     A
C210   H280    1.083   .     S
C210   C212    1.396   .     A
C210   C218    1.405   .     A
C211   H281    1.082   .     S
C211   C220    1.403   .     A
C211   C213    1.391   .     A
C212   H279    1.082   .     S
C213   H278    1.083   .     S
C214   C216    1.393   .     A
C214   H276    1.079   .     S
C215   C217    1.398   .     A
C215   H265    1.078   .     S
C216   C221    1.414   .     A
C216   C218    1.413   .     A
C217   C222    1.419   .     A
C217   C220    1.419   .     A
C218   C1118   1.392   .     S
C219   C222    1.414   .     A
C219   C236    1.394   .     A
C219   H282    1.077   .     S
C220   C1119   1.391   1_554 S
C221   C230    1.412   .     A
C221   C1104   1.412   .     S
C222   C1103   1.412   1_554 S
C223   H253    1.109   .     S
C223   H252    1.105   .     S
C223   C238    1.525   .     S
C223   C224    1.534   .     S
C224   C225    1.525   .     S
C224   H251    1.111   .     S
C224   H250    1.112   .     S
C225   H249    1.110   .     S
C225   H247    1.108   .     S
C225   H248    1.111   .     S
C226   H260    1.099   .     S
C226   C239    1.520   .     S
C226   C227    1.543   .     S
C226   H261    1.110   .     S
C227   H259    1.113   .     S
C227   C228    1.515   .     S
C227   H846    1.112   1_545 S
C228   H256    1.110   .     S
C228   H255    1.105   .     S
C229   H268    1.108   .     S
C229   H269    1.087   .     S
C229   C35     1.535   1_655 S
C230   C237    1.388   .     A
C230   H244    1.079   .     S
C231   H266    1.110   .     S
C231   H267    1.108   .     S
C232   H262    1.111   .     S
C232   H263    1.111   .     S
C232   C35     1.529   1_655 S
C232   H68     1.110   1_655 S
C233   H275    1.087   .     S
C233   H277    1.112   .     S
C234   C235    1.530   .     S
C234   H273    1.110   .     S
C234   C37     1.542   1_655 S
C234   H78     1.113   1_655 S
C235   H270    1.111   .     S
C235   H271    1.106   .     S
C235   H272    1.110   .     S
C236   H243    1.081   .     S
C236   C1100   1.392   1_554 S
C237   H254    1.082   .     S
C237   C1102   1.391   .     S
C238   C534    1.394   .     S
C239   C786    1.381   1_545 S
C240   Cl241   1.780   .     S
C240   C826    1.394   1_545 S
H257   C32     1.111   1_655 S
H258   C521    1.112   .     S
N283   Zn293   2.026   .     S
N284   Zn294   2.026   .     S
O285   Zn293   1.976   .     S
O286   Zn294   1.976   .     S
O287   Zn294   2.010   .     S
O288   Zn293   2.010   .     S
O289   Zn293   1.969   .     S
O290   Zn294   1.969   .     S
O291   Zn294   1.933   .     S
O292   Zn293   1.933   .     S
C295   O385    1.279   .     A
C295   O383    1.294   .     A
C295   C298    1.413   .     S
C296   Cl340   1.780   .     S
C296   C298    1.395   .     A
C296   C631    1.381   .     S
C297   C337    1.413   .     A
C297   C306    1.428   .     S
C297   C338    1.407   .     A
C298   C336    1.412   .     A
C299   N382    1.389   .     A
C299   C327    1.520   .     S
C299   C399    1.428   .     S
C300   N381    1.391   .     A
C300   C331    1.515   .     S
C300   C498    1.419   1_455 S
C301   N381    1.356   .     A
C301   H343    1.076   .     S
C301   C495    1.428   1_455 S
C302   N382    1.353   .     A
C302   H344    1.078   .     S
C302   C398    1.419   .     S
C303   O389    1.296   .     A
C303   O387    1.302   .     A
C303   C305    1.461   .     S
C304   O388    1.298   .     A
C304   O390    1.299   .     A
C304   C307    1.459   .     S
C305   C312    1.395   .     A
C305   C310    1.399   .     A
C306   O384    1.297   .     A
C306   O386    1.285   .     A
C307   C313    1.397   .     A
C307   C311    1.399   .     A
C308   H378    1.083   .     S
C308   C310    1.396   .     A
C308   C316    1.405   .     A
C309   H379    1.082   .     S
C309   C318    1.403   .     A
C309   C311    1.391   .     A
C310   H377    1.082   .     S
C311   H376    1.083   .     S
C312   C314    1.393   .     A
C312   H374    1.079   .     S
C313   C315    1.398   .     A
C313   H363    1.078   .     S
C314   C319    1.414   .     A
C314   C316    1.413   .     A
C315   C320    1.419   .     A
C315   C318    1.419   .     A
C316   C1216   1.392   .     S
C317   C320    1.414   .     A
C317   C334    1.394   .     A
C317   H380    1.077   .     S
C318   C1217   1.391   1_554 S
C319   C328    1.412   .     A
C319   C1202   1.412   .     S
C320   C1201   1.412   1_554 S
C321   H351    1.109   .     S
C321   H350    1.105   .     S
C321   C336    1.525   .     S
C321   C322    1.534   .     S
C322   C323    1.525   .     S
C322   H349    1.111   .     S
C322   H348    1.112   .     S
C323   H347    1.110   .     S
C323   H345    1.108   .     S
C323   H346    1.111   .     S
C324   H358    1.099   .     S
C324   C337    1.520   .     S
C324   C325    1.543   .     S
C324   H359    1.110   .     S
C325   H357    1.113   .     S
C325   C326    1.515   .     S
C326   H354    1.110   .     S
C326   H353    1.105   .     S
C326   H551    1.111   1_455 S
C327   H366    1.108   .     S
C327   H367    1.087   .     S
C327   C427    1.535   .     S
C328   C335    1.388   .     A
C328   H342    1.079   .     S
C329   H364    1.110   .     S
C329   H365    1.108   .     S
C329   C523    1.535   1_455 S
C329   C526    1.529   1_455 S
C330   H360    1.111   .     S
C330   H361    1.111   .     S
C330   C427    1.529   .     S
C330   H460    1.110   .     S
C331   H373    1.087   .     S
C331   H375    1.112   .     S
C331   C528    1.542   1_455 S
C332   C333    1.530   .     S
C332   H371    1.110   .     S
C332   C429    1.542   .     S
C332   H470    1.113   .     S
C333   H368    1.111   .     S
C333   H369    1.106   .     S
C333   H370    1.110   .     S
C334   H341    1.081   .     S
C334   C1198   1.392   1_554 S
C335   H352    1.082   .     S
C335   C1200   1.391   .     S
C336   C632    1.394   .     S
C338   Cl339   1.780   .     S
H355   C424    1.111   .     S
H356   C619    1.112   .     S
H362   C526    1.110   1_455 S
H372   C528    1.113   1_455 S
N381   Zn391   2.026   .     S
N382   Zn392   2.026   .     S
O383   Zn391   1.976   .     S
O384   Zn392   1.976   .     S
O385   Zn392   2.010   .     S
O386   Zn391   2.010   .     S
O387   Zn391   1.969   .     S
O388   Zn392   1.969   .     S
O389   Zn392   1.933   .     S
O390   Zn391   1.933   .     S
C393   O483    1.279   .     A
C393   O481    1.294   .     A
C393   C396    1.413   .     S
C394   Cl438   1.780   .     S
C394   C396    1.395   .     A
C394   C729    1.381   .     S
C395   C435    1.413   .     A
C395   C404    1.428   .     S
C395   C436    1.407   .     A
C396   C434    1.412   .     A
C397   N480    1.389   .     A
C397   C425    1.520   .     S
C397   C497    1.428   .     S
C398   N479    1.391   .     A
C398   C429    1.515   .     S
C399   N479    1.356   .     A
C399   H441    1.076   .     S
C400   N480    1.353   .     A
C400   H442    1.078   .     S
C400   C496    1.419   .     S
C401   O487    1.296   .     A
C401   O485    1.302   .     A
C401   C403    1.461   .     S
C402   O486    1.298   .     A
C402   O488    1.299   .     A
C402   C405    1.459   .     S
C403   C410    1.395   .     A
C403   C408    1.399   .     A
C404   O482    1.297   .     A
C404   O484    1.285   .     A
C405   C411    1.397   .     A
C405   C409    1.399   .     A
C406   H476    1.083   .     S
C406   C408    1.396   .     A
C406   C414    1.405   .     A
C407   H477    1.082   .     S
C407   C416    1.403   .     A
C407   C409    1.391   .     A
C408   H475    1.082   .     S
C409   H474    1.083   .     S
C410   C412    1.393   .     A
C410   H472    1.079   .     S
C411   C413    1.398   .     A
C411   H461    1.078   .     S
C412   C417    1.414   .     A
C412   C414    1.413   .     A
C413   C418    1.419   .     A
C413   C416    1.419   .     A
C414   C1314   1.392   .     S
C415   C418    1.414   .     A
C415   C432    1.394   .     A
C415   H478    1.077   .     S
C416   C1315   1.391   1_554 S
C417   C426    1.412   .     A
C417   C1300   1.412   .     S
C418   C1299   1.412   1_554 S
C419   H449    1.109   .     S
C419   H448    1.105   .     S
C419   C434    1.525   .     S
C419   C420    1.534   .     S
C420   C421    1.525   .     S
C420   H447    1.111   .     S
C420   H446    1.112   .     S
C421   H445    1.110   .     S
C421   H443    1.108   .     S
C421   H444    1.111   .     S
C422   H456    1.099   .     S
C422   C435    1.520   .     S
C422   C423    1.543   .     S
C422   H457    1.110   .     S
C423   H455    1.113   .     S
C423   C424    1.515   .     S
C424   H452    1.110   .     S
C424   H451    1.105   .     S
C425   H464    1.108   .     S
C425   H465    1.087   .     S
C425   C525    1.535   .     S
C426   C433    1.388   .     A
C426   H440    1.079   .     S
C427   H462    1.110   .     S
C427   H463    1.108   .     S
C428   H458    1.111   .     S
C428   H459    1.111   .     S
C428   C525    1.529   .     S
C428   H558    1.110   .     S
C429   H471    1.087   .     S
C429   H473    1.112   .     S
C430   C431    1.530   .     S
C430   H469    1.110   .     S
C430   C527    1.542   .     S
C430   H568    1.113   .     S
C431   H466    1.111   .     S
C431   H467    1.106   .     S
C431   H468    1.110   .     S
C432   H439    1.081   .     S
C432   C1296   1.392   1_554 S
C433   H450    1.082   .     S
C433   C1298   1.391   .     S
C434   C730    1.394   .     S
C436   Cl437   1.780   .     S
H453   C522    1.111   .     S
H454   C717    1.112   .     S
N479   Zn489   2.026   .     S
N480   Zn490   2.026   .     S
O481   Zn489   1.976   .     S
O482   Zn490   1.976   .     S
O483   Zn490   2.010   .     S
O484   Zn489   2.010   .     S
O485   Zn489   1.969   .     S
O486   Zn490   1.969   .     S
O487   Zn490   1.933   .     S
O488   Zn489   1.933   .     S
C491   O581    1.279   .     A
C491   O579    1.294   .     A
C491   C494    1.413   .     S
C492   Cl536   1.780   .     S
C492   C494    1.395   .     A
C492   C827    1.381   .     S
C493   C533    1.413   .     A
C493   C502    1.428   .     S
C493   C534    1.407   .     A
C494   C532    1.412   .     A
C495   N578    1.389   .     A
C495   C523    1.520   .     S
C495   C301    1.428   1_655 S
C496   N577    1.391   .     A
C496   C527    1.515   .     S
C497   N577    1.356   .     A
C497   H539    1.076   .     S
C498   N578    1.353   .     A
C498   H540    1.078   .     S
C498   C300    1.419   1_655 S
C499   O585    1.296   .     A
C499   O583    1.302   .     A
C499   C501    1.461   .     S
C500   O584    1.298   .     A
C500   O586    1.299   .     A
C500   C503    1.459   .     S
C501   C508    1.395   .     A
C501   C506    1.399   .     A
C502   O580    1.297   .     A
C502   O582    1.285   .     A
C503   C509    1.397   .     A
C503   C507    1.399   .     A
C504   H574    1.083   .     S
C504   C506    1.396   .     A
C504   C512    1.405   .     A
C505   H575    1.082   .     S
C505   C514    1.403   .     A
C505   C507    1.391   .     A
C506   H573    1.082   .     S
C507   H572    1.083   .     S
C508   C510    1.393   .     A
C508   H570    1.079   .     S
C509   C511    1.398   .     A
C509   H559    1.078   .     S
C510   C515    1.414   .     A
C510   C512    1.413   .     A
C511   C516    1.419   .     A
C511   C514    1.419   .     A
C512   C1412   1.392   .     S
C513   C516    1.414   .     A
C513   C530    1.394   .     A
C513   H576    1.077   .     S
C514   C1413   1.391   1_554 S
C515   C524    1.412   .     A
C515   C1398   1.412   .     S
C516   C1397   1.412   1_554 S
C517   H547    1.109   .     S
C517   H546    1.105   .     S
C517   C532    1.525   .     S
C517   C518    1.534   .     S
C518   C519    1.525   .     S
C518   H545    1.111   .     S
C518   H544    1.112   .     S
C519   H543    1.110   .     S
C519   H541    1.108   .     S
C519   H542    1.111   .     S
C520   H554    1.099   .     S
C520   C533    1.520   .     S
C520   C521    1.543   .     S
C520   H555    1.110   .     S
C521   H553    1.113   .     S
C521   C522    1.515   .     S
C522   H550    1.110   .     S
C522   H549    1.105   .     S
C523   H562    1.108   .     S
C523   H563    1.087   .     S
C523   C329    1.535   1_655 S
C524   C531    1.388   .     A
C524   H538    1.079   .     S
C525   H560    1.110   .     S
C525   H561    1.108   .     S
C526   H556    1.111   .     S
C526   H557    1.111   .     S
C526   C329    1.529   1_655 S
C526   H362    1.110   1_655 S
C527   H569    1.087   .     S
C527   H571    1.112   .     S
C528   C529    1.530   .     S
C528   H567    1.110   .     S
C528   C331    1.542   1_655 S
C528   H372    1.113   1_655 S
C529   H564    1.111   .     S
C529   H565    1.106   .     S
C529   H566    1.110   .     S
C530   H537    1.081   .     S
C530   C1394   1.392   1_554 S
C531   H548    1.082   .     S
C531   C1396   1.391   .     S
C532   C828    1.394   .     S
C534   Cl535   1.780   .     S
H551   C326    1.111   1_655 S
H552   C815    1.112   .     S
N577   Zn587   2.026   .     S
N578   Zn588   2.026   .     S
O579   Zn587   1.976   .     S
O580   Zn588   1.976   .     S
O581   Zn588   2.010   .     S
O582   Zn587   2.010   .     S
O583   Zn587   1.969   .     S
O584   Zn588   1.969   .     S
O585   Zn588   1.933   .     S
O586   Zn587   1.933   .     S
C589   O679    1.279   .     A
C589   O677    1.294   .     A
C589   C592    1.413   .     S
C590   Cl634   1.780   .     S
C590   C592    1.395   .     A
C590   C43     1.381   1_565 S
C591   C631    1.413   .     A
C591   C600    1.428   .     S
C591   C632    1.407   .     A
C592   C630    1.412   .     A
C593   N676    1.389   .     A
C593   C621    1.520   .     S
C593   C693    1.428   .     S
C594   N675    1.391   .     A
C594   C625    1.515   .     S
C594   C792    1.419   1_455 S
C595   N675    1.356   .     A
C595   H637    1.076   .     S
C595   C789    1.428   1_455 S
C596   N676    1.353   .     A
C596   H638    1.078   .     S
C596   C692    1.419   .     S
C597   O683    1.296   .     A
C597   O681    1.302   .     A
C597   C599    1.461   .     S
C598   O682    1.298   .     A
C598   O684    1.299   .     A
C598   C601    1.459   .     S
C599   C606    1.395   .     A
C599   C604    1.399   .     A
C600   O678    1.297   .     A
C600   O680    1.285   .     A
C601   C607    1.397   .     A
C601   C605    1.399   .     A
C602   H672    1.083   .     S
C602   C604    1.396   .     A
C602   C610    1.405   .     A
C603   H673    1.082   .     S
C603   C612    1.403   .     A
C603   C605    1.391   .     A
C604   H671    1.082   .     S
C605   H670    1.083   .     S
C606   C608    1.393   .     A
C606   H668    1.079   .     S
C607   C609    1.398   .     A
C607   H657    1.078   .     S
C608   C613    1.414   .     A
C608   C610    1.413   .     A
C609   C614    1.419   .     A
C609   C612    1.419   .     A
C610   C1510   1.392   .     S
C611   C614    1.414   .     A
C611   C628    1.394   .     A
C611   H674    1.077   .     S
C612   C1511   1.391   1_554 S
C613   C622    1.412   .     A
C613   C1496   1.412   .     S
C614   C1495   1.412   1_554 S
C615   H645    1.109   .     S
C615   H644    1.105   .     S
C615   C630    1.525   .     S
C615   C616    1.534   .     S
C616   C617    1.525   .     S
C616   H643    1.111   .     S
C616   H642    1.112   .     S
C617   H641    1.110   .     S
C617   H639    1.108   .     S
C617   H640    1.111   .     S
C618   H652    1.099   .     S
C618   C631    1.520   .     S
C618   C619    1.543   .     S
C618   H653    1.110   .     S
C619   H651    1.113   .     S
C619   C620    1.515   .     S
C620   H648    1.110   .     S
C620   H647    1.105   .     S
C620   H845    1.111   1_455 S
C621   H660    1.108   .     S
C621   H661    1.087   .     S
C621   C721    1.535   .     S
C622   C629    1.388   .     A
C622   H636    1.079   .     S
C623   H658    1.110   .     S
C623   H659    1.108   .     S
C623   C817    1.535   1_455 S
C623   C820    1.529   1_455 S
C624   H654    1.111   .     S
C624   H655    1.111   .     S
C624   C721    1.529   .     S
C624   H754    1.110   .     S
C625   H667    1.087   .     S
C625   H669    1.112   .     S
C625   C822    1.542   1_455 S
C626   C627    1.530   .     S
C626   H665    1.110   .     S
C626   C723    1.542   .     S
C626   H764    1.113   .     S
C627   H662    1.111   .     S
C627   H663    1.106   .     S
C627   H664    1.110   .     S
C628   H635    1.081   .     S
C628   C1492   1.392   1_554 S
C629   H646    1.082   .     S
C629   C1494   1.391   .     S
C630   C44     1.394   1_565 S
C632   Cl633   1.780   .     S
H649   C718    1.111   .     S
H650   C31     1.112   1_565 S
H656   C820    1.110   1_455 S
H666   C822    1.113   1_455 S
N675   Zn685   2.026   .     S
N676   Zn686   2.026   .     S
O677   Zn685   1.976   .     S
O678   Zn686   1.976   .     S
O679   Zn686   2.010   .     S
O680   Zn685   2.010   .     S
O681   Zn685   1.969   .     S
O682   Zn686   1.969   .     S
O683   Zn686   1.933   .     S
O684   Zn685   1.933   .     S
C687   O777    1.279   .     A
C687   O775    1.294   .     A
C687   C690    1.413   .     S
C688   Cl732   1.780   .     S
C688   C690    1.395   .     A
C688   C141    1.381   1_565 S
C689   C729    1.413   .     A
C689   C698    1.428   .     S
C689   C730    1.407   .     A
C690   C728    1.412   .     A
C691   N774    1.389   .     A
C691   C719    1.520   .     S
C691   C791    1.428   .     S
C692   N773    1.391   .     A
C692   C723    1.515   .     S
C693   N773    1.356   .     A
C693   H735    1.076   .     S
C694   N774    1.353   .     A
C694   H736    1.078   .     S
C694   C790    1.419   .     S
C695   O781    1.296   .     A
C695   O779    1.302   .     A
C695   C697    1.461   .     S
C696   O780    1.298   .     A
C696   O782    1.299   .     A
C696   C699    1.459   .     S
C697   C704    1.395   .     A
C697   C702    1.399   .     A
C698   O776    1.297   .     A
C698   O778    1.285   .     A
C699   C705    1.397   .     A
C699   C703    1.399   .     A
C700   H770    1.083   .     S
C700   C702    1.396   .     A
C700   C708    1.405   .     A
C701   H771    1.082   .     S
C701   C710    1.403   .     A
C701   C703    1.391   .     A
C702   H769    1.082   .     S
C703   H768    1.083   .     S
C704   C706    1.393   .     A
C704   H766    1.079   .     S
C705   C707    1.398   .     A
C705   H755    1.078   .     S
C706   C711    1.414   .     A
C706   C708    1.413   .     A
C707   C712    1.419   .     A
C707   C710    1.419   .     A
C708   C1608   1.392   .     S
C709   C712    1.414   .     A
C709   C726    1.394   .     A
C709   H772    1.077   .     S
C710   C1609   1.391   1_554 S
C711   C720    1.412   .     A
C711   C1594   1.412   .     S
C712   C1593   1.412   1_554 S
C713   H743    1.109   .     S
C713   H742    1.105   .     S
C713   C728    1.525   .     S
C713   C714    1.534   .     S
C714   C715    1.525   .     S
C714   H741    1.111   .     S
C714   H740    1.112   .     S
C715   H739    1.110   .     S
C715   H737    1.108   .     S
C715   H738    1.111   .     S
C716   H750    1.099   .     S
C716   C729    1.520   .     S
C716   C717    1.543   .     S
C716   H751    1.110   .     S
C717   H749    1.113   .     S
C717   C718    1.515   .     S
C718   H746    1.110   .     S
C718   H745    1.105   .     S
C719   H758    1.108   .     S
C719   H759    1.087   .     S
C719   C819    1.535   .     S
C720   C727    1.388   .     A
C720   H734    1.079   .     S
C721   H756    1.110   .     S
C721   H757    1.108   .     S
C722   H752    1.111   .     S
C722   H753    1.111   .     S
C722   C819    1.529   .     S
C722   H852    1.110   .     S
C723   H765    1.087   .     S
C723   H767    1.112   .     S
C724   C725    1.530   .     S
C724   H763    1.110   .     S
C724   C821    1.542   .     S
C724   H862    1.113   .     S
C725   H760    1.111   .     S
C725   H761    1.106   .     S
C725   H762    1.110   .     S
C726   H733    1.081   .     S
C726   C1590   1.392   1_554 S
C727   H744    1.082   .     S
C727   C1592   1.391   .     S
C728   C142    1.394   1_565 S
C730   Cl731   1.780   .     S
H747   C816    1.111   .     S
H748   C129    1.112   1_565 S
N773   Zn783   2.026   .     S
N774   Zn784   2.026   .     S
O775   Zn783   1.976   .     S
O776   Zn784   1.976   .     S
O777   Zn784   2.010   .     S
O778   Zn783   2.010   .     S
O779   Zn783   1.969   .     S
O780   Zn784   1.969   .     S
O781   Zn784   1.933   .     S
O782   Zn783   1.933   .     S
C785   O875    1.279   .     A
C785   O873    1.294   .     A
C785   C788    1.413   .     S
C786   Cl830   1.780   .     S
C786   C788    1.395   .     A
C786   C239    1.381   1_565 S
C787   C827    1.413   .     A
C787   C796    1.428   .     S
C787   C828    1.407   .     A
C788   C826    1.412   .     A
C789   N872    1.389   .     A
C789   C817    1.520   .     S
C789   C595    1.428   1_655 S
C790   N871    1.391   .     A
C790   C821    1.515   .     S
C791   N871    1.356   .     A
C791   H833    1.076   .     S
C792   N872    1.353   .     A
C792   H834    1.078   .     S
C792   C594    1.419   1_655 S
C793   O879    1.296   .     A
C793   O877    1.302   .     A
C793   C795    1.461   .     S
C794   O878    1.298   .     A
C794   O880    1.299   .     A
C794   C797    1.459   .     S
C795   C802    1.395   .     A
C795   C800    1.399   .     A
C796   O874    1.297   .     A
C796   O876    1.285   .     A
C797   C803    1.397   .     A
C797   C801    1.399   .     A
C798   H868    1.083   .     S
C798   C800    1.396   .     A
C798   C806    1.405   .     A
C799   H869    1.082   .     S
C799   C808    1.403   .     A
C799   C801    1.391   .     A
C800   H867    1.082   .     S
C801   H866    1.083   .     S
C802   C804    1.393   .     A
C802   H864    1.079   .     S
C803   C805    1.398   .     A
C803   H853    1.078   .     S
C804   C809    1.414   .     A
C804   C806    1.413   .     A
C805   C810    1.419   .     A
C805   C808    1.419   .     A
C806   C1706   1.392   .     S
C807   C810    1.414   .     A
C807   C824    1.394   .     A
C807   H870    1.077   .     S
C808   C1707   1.391   1_554 S
C809   C818    1.412   .     A
C809   C1692   1.412   .     S
C810   C1691   1.412   1_554 S
C811   H841    1.109   .     S
C811   H840    1.105   .     S
C811   C826    1.525   .     S
C811   C812    1.534   .     S
C812   C813    1.525   .     S
C812   H839    1.111   .     S
C812   H838    1.112   .     S
C813   H837    1.110   .     S
C813   H835    1.108   .     S
C813   H836    1.111   .     S
C814   H848    1.099   .     S
C814   C827    1.520   .     S
C814   C815    1.543   .     S
C814   H849    1.110   .     S
C815   H847    1.113   .     S
C815   C816    1.515   .     S
C816   H844    1.110   .     S
C816   H843    1.105   .     S
C817   H856    1.108   .     S
C817   H857    1.087   .     S
C817   C623    1.535   1_655 S
C818   C825    1.388   .     A
C818   H832    1.079   .     S
C819   H854    1.110   .     S
C819   H855    1.108   .     S
C820   H850    1.111   .     S
C820   H851    1.111   .     S
C820   C623    1.529   1_655 S
C820   H656    1.110   1_655 S
C821   H863    1.087   .     S
C821   H865    1.112   .     S
C822   C823    1.530   .     S
C822   H861    1.110   .     S
C822   C625    1.542   1_655 S
C822   H666    1.113   1_655 S
C823   H858    1.111   .     S
C823   H859    1.106   .     S
C823   H860    1.110   .     S
C824   H831    1.081   .     S
C824   C1688   1.392   1_554 S
C825   H842    1.082   .     S
C825   C1690   1.391   .     S
C826   C240    1.394   1_565 S
C828   Cl829   1.780   .     S
H845   C620    1.111   1_655 S
H846   C227    1.112   1_565 S
N871   Zn881   2.026   .     S
N872   Zn882   2.026   .     S
O873   Zn881   1.976   .     S
O874   Zn882   1.976   .     S
O875   Zn882   2.010   .     S
O876   Zn881   2.010   .     S
O877   Zn881   1.969   .     S
O878   Zn882   1.969   .     S
O879   Zn882   1.933   .     S
O880   Zn881   1.933   .     S
C883   O973    1.279   .     A
C883   O971    1.294   .     A
C883   C886    1.413   .     S
C884   Cl928   1.780   .     S
C884   C886    1.395   .     A
C884   C1219   1.381   .     S
C885   C925    1.413   .     A
C885   C894    1.428   .     S
C885   C926    1.407   .     A
C886   C924    1.412   .     A
C887   N970    1.389   .     A
C887   C915    1.520   .     S
C887   C987    1.428   .     S
C888   N969    1.391   .     A
C888   C919    1.515   .     S
C888   C1086   1.419   1_455 S
C889   N969    1.356   .     A
C889   H931    1.076   .     S
C889   C1083   1.428   1_455 S
C890   N970    1.353   .     A
C890   H932    1.078   .     S
C890   C986    1.419   .     S
C891   O977    1.296   .     A
C891   O975    1.302   .     A
C891   C893    1.461   .     S
C892   O976    1.298   .     A
C892   O978    1.299   .     A
C892   C895    1.459   .     S
C893   C900    1.395   .     A
C893   C898    1.399   .     A
C894   O972    1.297   .     A
C894   O974    1.285   .     A
C895   C901    1.397   .     A
C895   C899    1.399   .     A
C896   H966    1.083   .     S
C896   C898    1.396   .     A
C896   C904    1.405   .     A
C897   H967    1.082   .     S
C897   C906    1.403   .     A
C897   C899    1.391   .     A
C898   H965    1.082   .     S
C899   H964    1.083   .     S
C900   C902    1.393   .     A
C900   H962    1.079   .     S
C901   C903    1.398   .     A
C901   H951    1.078   .     S
C902   C907    1.414   .     A
C902   C904    1.413   .     A
C903   C908    1.419   .     A
C903   C906    1.419   .     A
C904   C40     1.392   1_556 S
C905   C908    1.414   .     A
C905   C922    1.394   .     A
C905   H968    1.077   .     S
C907   C916    1.412   .     A
C907   C26     1.412   1_556 S
C909   H939    1.109   .     S
C909   H938    1.105   .     S
C909   C924    1.525   .     S
C909   C910    1.534   .     S
C910   C911    1.525   .     S
C910   H937    1.111   .     S
C910   H936    1.112   .     S
C911   H935    1.110   .     S
C911   H933    1.108   .     S
C911   H934    1.111   .     S
C912   H946    1.099   .     S
C912   C925    1.520   .     S
C912   C913    1.543   .     S
C912   H947    1.110   .     S
C913   H945    1.113   .     S
C913   C914    1.515   .     S
C913   H1532   1.112   1_545 S
C914   H942    1.110   .     S
C914   H941    1.105   .     S
C914   H1139   1.111   1_455 S
C915   H954    1.108   .     S
C915   H955    1.087   .     S
C915   C1015   1.535   .     S
C916   C923    1.388   .     A
C916   H930    1.079   .     S
C917   H952    1.110   .     S
C917   H953    1.108   .     S
C917   C1111   1.535   1_455 S
C917   C1114   1.529   1_455 S
C918   H948    1.111   .     S
C918   H949    1.111   .     S
C918   C1015   1.529   .     S
C918   H1048   1.110   .     S
C919   H961    1.087   .     S
C919   H963    1.112   .     S
C919   C1116   1.542   1_455 S
C920   C921    1.530   .     S
C920   H959    1.110   .     S
C920   C1017   1.542   .     S
C920   H1058   1.113   .     S
C921   H956    1.111   .     S
C921   H957    1.106   .     S
C921   H958    1.110   .     S
C922   H929    1.081   .     S
C923   H940    1.082   .     S
C923   C24     1.391   1_556 S
C924   C1220   1.394   .     S
C925   C1472   1.381   1_545 S
C926   Cl927   1.780   .     S
C926   C1512   1.394   1_545 S
H943   C1012   1.111   .     S
H944   C1207   1.112   .     S
H950   C1114   1.110   1_455 S
H960   C1116   1.113   1_455 S
N969   Zn979   2.026   .     S
N970   Zn980   2.026   .     S
O971   Zn979   1.976   .     S
O972   Zn980   1.976   .     S
O973   Zn980   2.010   .     S
O974   Zn979   2.010   .     S
O975   Zn979   1.969   .     S
O976   Zn980   1.969   .     S
O977   Zn980   1.933   .     S
O978   Zn979   1.933   .     S
C981   O1071   1.279   .     A
C981   O1069   1.294   .     A
C981   C984    1.413   .     S
C982   Cl1026  1.780   .     S
C982   C984    1.395   .     A
C982   C1317   1.381   .     S
C983   C1023   1.413   .     A
C983   C992    1.428   .     S
C983   C1024   1.407   .     A
C984   C1022   1.412   .     A
C985   N1068   1.389   .     A
C985   C1013   1.520   .     S
C985   C1085   1.428   .     S
C986   N1067   1.391   .     A
C986   C1017   1.515   .     S
C987   N1067   1.356   .     A
C987   H1029   1.076   .     S
C988   N1068   1.353   .     A
C988   H1030   1.078   .     S
C988   C1084   1.419   .     S
C989   O1075   1.296   .     A
C989   O1073   1.302   .     A
C989   C991    1.461   .     S
C990   O1074   1.298   .     A
C990   O1076   1.299   .     A
C990   C993    1.459   .     S
C991   C998    1.395   .     A
C991   C996    1.399   .     A
C992   O1070   1.297   .     A
C992   O1072   1.285   .     A
C993   C999    1.397   .     A
C993   C997    1.399   .     A
C994   H1064   1.083   .     S
C994   C996    1.396   .     A
C994   C1002   1.405   .     A
C995   H1065   1.082   .     S
C995   C1004   1.403   .     A
C995   C997    1.391   .     A
C996   H1063   1.082   .     S
C997   H1062   1.083   .     S
C998   C1000   1.393   .     A
C998   H1060   1.079   .     S
C999   C1001   1.398   .     A
C999   H1049   1.078   .     S
C1000  C1005   1.414   .     A
C1000  C1002   1.413   .     A
C1001  C1006   1.419   .     A
C1001  C1004   1.419   .     A
C1002  C138    1.392   1_556 S
C1003  C1006   1.414   .     A
C1003  C1020   1.394   .     A
C1003  H1066   1.077   .     S
C1005  C1014   1.412   .     A
C1005  C124    1.412   1_556 S
C1007  H1037   1.109   .     S
C1007  H1036   1.105   .     S
C1007  C1022   1.525   .     S
C1007  C1008   1.534   .     S
C1008  C1009   1.525   .     S
C1008  H1035   1.111   .     S
C1008  H1034   1.112   .     S
C1009  H1033   1.110   .     S
C1009  H1031   1.108   .     S
C1009  H1032   1.111   .     S
C1010  H1044   1.099   .     S
C1010  C1023   1.520   .     S
C1010  C1011   1.543   .     S
C1010  H1045   1.110   .     S
C1011  H1043   1.113   .     S
C1011  C1012   1.515   .     S
C1011  H1630   1.112   1_545 S
C1012  H1040   1.110   .     S
C1012  H1039   1.105   .     S
C1013  H1052   1.108   .     S
C1013  H1053   1.087   .     S
C1013  C1113   1.535   .     S
C1014  C1021   1.388   .     A
C1014  H1028   1.079   .     S
C1015  H1050   1.110   .     S
C1015  H1051   1.108   .     S
C1016  H1046   1.111   .     S
C1016  H1047   1.111   .     S
C1016  C1113   1.529   .     S
C1016  H1146   1.110   .     S
C1017  H1059   1.087   .     S
C1017  H1061   1.112   .     S
C1018  C1019   1.530   .     S
C1018  H1057   1.110   .     S
C1018  C1115   1.542   .     S
C1018  H1156   1.113   .     S
C1019  H1054   1.111   .     S
C1019  H1055   1.106   .     S
C1019  H1056   1.110   .     S
C1020  H1027   1.081   .     S
C1021  H1038   1.082   .     S
C1021  C122    1.391   1_556 S
C1022  C1318   1.394   .     S
C1023  C1570   1.381   1_545 S
C1024  Cl1025  1.780   .     S
C1024  C1610   1.394   1_545 S
H1041  C1110   1.111   .     S
H1042  C1305   1.112   .     S
N1067  Zn1077  2.026   .     S
N1068  Zn1078  2.026   .     S
O1069  Zn1077  1.976   .     S
O1070  Zn1078  1.976   .     S
O1071  Zn1078  2.010   .     S
O1072  Zn1077  2.010   .     S
O1073  Zn1077  1.969   .     S
O1074  Zn1078  1.969   .     S
O1075  Zn1078  1.933   .     S
O1076  Zn1077  1.933   .     S
C1079  O1169   1.279   .     A
C1079  O1167   1.294   .     A
C1079  C1082   1.413   .     S
C1080  Cl1124  1.780   .     S
C1080  C1082   1.395   .     A
C1080  C1415   1.381   .     S
C1081  C1121   1.413   .     A
C1081  C1090   1.428   .     S
C1081  C1122   1.407   .     A
C1082  C1120   1.412   .     A
C1083  N1166   1.389   .     A
C1083  C1111   1.520   .     S
C1083  C889    1.428   1_655 S
C1084  N1165   1.391   .     A
C1084  C1115   1.515   .     S
C1085  N1165   1.356   .     A
C1085  H1127   1.076   .     S
C1086  N1166   1.353   .     A
C1086  H1128   1.078   .     S
C1086  C888    1.419   1_655 S
C1087  O1173   1.296   .     A
C1087  O1171   1.302   .     A
C1087  C1089   1.461   .     S
C1088  O1172   1.298   .     A
C1088  O1174   1.299   .     A
C1088  C1091   1.459   .     S
C1089  C1096   1.395   .     A
C1089  C1094   1.399   .     A
C1090  O1168   1.297   .     A
C1090  O1170   1.285   .     A
C1091  C1097   1.397   .     A
C1091  C1095   1.399   .     A
C1092  H1162   1.083   .     S
C1092  C1094   1.396   .     A
C1092  C1100   1.405   .     A
C1093  H1163   1.082   .     S
C1093  C1102   1.403   .     A
C1093  C1095   1.391   .     A
C1094  H1161   1.082   .     S
C1095  H1160   1.083   .     S
C1096  C1098   1.393   .     A
C1096  H1158   1.079   .     S
C1097  C1099   1.398   .     A
C1097  H1147   1.078   .     S
C1098  C1103   1.414   .     A
C1098  C1100   1.413   .     A
C1099  C1104   1.419   .     A
C1099  C1102   1.419   .     A
C1100  C236    1.392   1_556 S
C1101  C1104   1.414   .     A
C1101  C1118   1.394   .     A
C1101  H1164   1.077   .     S
C1103  C1112   1.412   .     A
C1103  C222    1.412   1_556 S
C1105  H1135   1.109   .     S
C1105  H1134   1.105   .     S
C1105  C1120   1.525   .     S
C1105  C1106   1.534   .     S
C1106  C1107   1.525   .     S
C1106  H1133   1.111   .     S
C1106  H1132   1.112   .     S
C1107  H1131   1.110   .     S
C1107  H1129   1.108   .     S
C1107  H1130   1.111   .     S
C1108  H1142   1.099   .     S
C1108  C1121   1.520   .     S
C1108  C1109   1.543   .     S
C1108  H1143   1.110   .     S
C1109  H1141   1.113   .     S
C1109  C1110   1.515   .     S
C1109  H1728   1.112   1_545 S
C1110  H1138   1.110   .     S
C1110  H1137   1.105   .     S
C1111  H1150   1.108   .     S
C1111  H1151   1.087   .     S
C1111  C917    1.535   1_655 S
C1112  C1119   1.388   .     A
C1112  H1126   1.079   .     S
C1113  H1148   1.110   .     S
C1113  H1149   1.108   .     S
C1114  H1144   1.111   .     S
C1114  H1145   1.111   .     S
C1114  C917    1.529   1_655 S
C1114  H950    1.110   1_655 S
C1115  H1157   1.087   .     S
C1115  H1159   1.112   .     S
C1116  C1117   1.530   .     S
C1116  H1155   1.110   .     S
C1116  C919    1.542   1_655 S
C1116  H960    1.113   1_655 S
C1117  H1152   1.111   .     S
C1117  H1153   1.106   .     S
C1117  H1154   1.110   .     S
C1118  H1125   1.081   .     S
C1119  H1136   1.082   .     S
C1119  C220    1.391   1_556 S
C1120  C1416   1.394   .     S
C1121  C1668   1.381   1_545 S
C1122  Cl1123  1.780   .     S
C1122  C1708   1.394   1_545 S
H1139  C914    1.111   1_655 S
H1140  C1403   1.112   .     S
N1165  Zn1175  2.026   .     S
N1166  Zn1176  2.026   .     S
O1167  Zn1175  1.976   .     S
O1168  Zn1176  1.976   .     S
O1169  Zn1176  2.010   .     S
O1170  Zn1175  2.010   .     S
O1171  Zn1175  1.969   .     S
O1172  Zn1176  1.969   .     S
O1173  Zn1176  1.933   .     S
O1174  Zn1175  1.933   .     S
C1177  O1267   1.279   .     A
C1177  O1265   1.294   .     A
C1177  C1180   1.413   .     S
C1178  Cl1222  1.780   .     S
C1178  C1180   1.395   .     A
C1178  C1513   1.381   .     S
C1179  C1219   1.413   .     A
C1179  C1188   1.428   .     S
C1179  C1220   1.407   .     A
C1180  C1218   1.412   .     A
C1181  N1264   1.389   .     A
C1181  C1209   1.520   .     S
C1181  C1281   1.428   .     S
C1182  N1263   1.391   .     A
C1182  C1213   1.515   .     S
C1182  C1380   1.419   1_455 S
C1183  N1263   1.356   .     A
C1183  H1225   1.076   .     S
C1183  C1377   1.428   1_455 S
C1184  N1264   1.353   .     A
C1184  H1226   1.078   .     S
C1184  C1280   1.419   .     S
C1185  O1271   1.296   .     A
C1185  O1269   1.302   .     A
C1185  C1187   1.461   .     S
C1186  O1270   1.298   .     A
C1186  O1272   1.299   .     A
C1186  C1189   1.459   .     S
C1187  C1194   1.395   .     A
C1187  C1192   1.399   .     A
C1188  O1266   1.297   .     A
C1188  O1268   1.285   .     A
C1189  C1195   1.397   .     A
C1189  C1193   1.399   .     A
C1190  H1260   1.083   .     S
C1190  C1192   1.396   .     A
C1190  C1198   1.405   .     A
C1191  H1261   1.082   .     S
C1191  C1200   1.403   .     A
C1191  C1193   1.391   .     A
C1192  H1259   1.082   .     S
C1193  H1258   1.083   .     S
C1194  C1196   1.393   .     A
C1194  H1256   1.079   .     S
C1195  C1197   1.398   .     A
C1195  H1245   1.078   .     S
C1196  C1201   1.414   .     A
C1196  C1198   1.413   .     A
C1197  C1202   1.419   .     A
C1197  C1200   1.419   .     A
C1198  C334    1.392   1_556 S
C1199  C1202   1.414   .     A
C1199  C1216   1.394   .     A
C1199  H1262   1.077   .     S
C1201  C1210   1.412   .     A
C1201  C320    1.412   1_556 S
C1203  H1233   1.109   .     S
C1203  H1232   1.105   .     S
C1203  C1218   1.525   .     S
C1203  C1204   1.534   .     S
C1204  C1205   1.525   .     S
C1204  H1231   1.111   .     S
C1204  H1230   1.112   .     S
C1205  H1229   1.110   .     S
C1205  H1227   1.108   .     S
C1205  H1228   1.111   .     S
C1206  H1240   1.099   .     S
C1206  C1219   1.520   .     S
C1206  C1207   1.543   .     S
C1206  H1241   1.110   .     S
C1207  H1239   1.113   .     S
C1207  C1208   1.515   .     S
C1208  H1236   1.110   .     S
C1208  H1235   1.105   .     S
C1208  H1433   1.111   1_455 S
C1209  H1248   1.108   .     S
C1209  H1249   1.087   .     S
C1209  C1309   1.535   .     S
C1210  C1217   1.388   .     A
C1210  H1224   1.079   .     S
C1211  H1246   1.110   .     S
C1211  H1247   1.108   .     S
C1211  C1405   1.535   1_455 S
C1211  C1408   1.529   1_455 S
C1212  H1242   1.111   .     S
C1212  H1243   1.111   .     S
C1212  C1309   1.529   .     S
C1212  H1342   1.110   .     S
C1213  H1255   1.087   .     S
C1213  H1257   1.112   .     S
C1213  C1410   1.542   1_455 S
C1214  C1215   1.530   .     S
C1214  H1253   1.110   .     S
C1214  C1311   1.542   .     S
C1214  H1352   1.113   .     S
C1215  H1250   1.111   .     S
C1215  H1251   1.106   .     S
C1215  H1252   1.110   .     S
C1216  H1223   1.081   .     S
C1217  H1234   1.082   .     S
C1217  C318    1.391   1_556 S
C1218  C1514   1.394   .     S
C1220  Cl1221  1.780   .     S
H1237  C1306   1.111   .     S
H1238  C1501   1.112   .     S
H1244  C1408   1.110   1_455 S
H1254  C1410   1.113   1_455 S
N1263  Zn1273  2.026   .     S
N1264  Zn1274  2.026   .     S
O1265  Zn1273  1.976   .     S
O1266  Zn1274  1.976   .     S
O1267  Zn1274  2.010   .     S
O1268  Zn1273  2.010   .     S
O1269  Zn1273  1.969   .     S
O1270  Zn1274  1.969   .     S
O1271  Zn1274  1.933   .     S
O1272  Zn1273  1.933   .     S
C1275  O1365   1.279   .     A
C1275  O1363   1.294   .     A
C1275  C1278   1.413   .     S
C1276  Cl1320  1.780   .     S
C1276  C1278   1.395   .     A
C1276  C1611   1.381   .     S
C1277  C1317   1.413   .     A
C1277  C1286   1.428   .     S
C1277  C1318   1.407   .     A
C1278  C1316   1.412   .     A
C1279  N1362   1.389   .     A
C1279  C1307   1.520   .     S
C1279  C1379   1.428   .     S
C1280  N1361   1.391   .     A
C1280  C1311   1.515   .     S
C1281  N1361   1.356   .     A
C1281  H1323   1.076   .     S
C1282  N1362   1.353   .     A
C1282  H1324   1.078   .     S
C1282  C1378   1.419   .     S
C1283  O1369   1.296   .     A
C1283  O1367   1.302   .     A
C1283  C1285   1.461   .     S
C1284  O1368   1.298   .     A
C1284  O1370   1.299   .     A
C1284  C1287   1.459   .     S
C1285  C1292   1.395   .     A
C1285  C1290   1.399   .     A
C1286  O1364   1.297   .     A
C1286  O1366   1.285   .     A
C1287  C1293   1.397   .     A
C1287  C1291   1.399   .     A
C1288  H1358   1.083   .     S
C1288  C1290   1.396   .     A
C1288  C1296   1.405   .     A
C1289  H1359   1.082   .     S
C1289  C1298   1.403   .     A
C1289  C1291   1.391   .     A
C1290  H1357   1.082   .     S
C1291  H1356   1.083   .     S
C1292  C1294   1.393   .     A
C1292  H1354   1.079   .     S
C1293  C1295   1.398   .     A
C1293  H1343   1.078   .     S
C1294  C1299   1.414   .     A
C1294  C1296   1.413   .     A
C1295  C1300   1.419   .     A
C1295  C1298   1.419   .     A
C1296  C432    1.392   1_556 S
C1297  C1300   1.414   .     A
C1297  C1314   1.394   .     A
C1297  H1360   1.077   .     S
C1299  C1308   1.412   .     A
C1299  C418    1.412   1_556 S
C1301  H1331   1.109   .     S
C1301  H1330   1.105   .     S
C1301  C1316   1.525   .     S
C1301  C1302   1.534   .     S
C1302  C1303   1.525   .     S
C1302  H1329   1.111   .     S
C1302  H1328   1.112   .     S
C1303  H1327   1.110   .     S
C1303  H1325   1.108   .     S
C1303  H1326   1.111   .     S
C1304  H1338   1.099   .     S
C1304  C1317   1.520   .     S
C1304  C1305   1.543   .     S
C1304  H1339   1.110   .     S
C1305  H1337   1.113   .     S
C1305  C1306   1.515   .     S
C1306  H1334   1.110   .     S
C1306  H1333   1.105   .     S
C1307  H1346   1.108   .     S
C1307  H1347   1.087   .     S
C1307  C1407   1.535   .     S
C1308  C1315   1.388   .     A
C1308  H1322   1.079   .     S
C1309  H1344   1.110   .     S
C1309  H1345   1.108   .     S
C1310  H1340   1.111   .     S
C1310  H1341   1.111   .     S
C1310  C1407   1.529   .     S
C1310  H1440   1.110   .     S
C1311  H1353   1.087   .     S
C1311  H1355   1.112   .     S
C1312  C1313   1.530   .     S
C1312  H1351   1.110   .     S
C1312  C1409   1.542   .     S
C1312  H1450   1.113   .     S
C1313  H1348   1.111   .     S
C1313  H1349   1.106   .     S
C1313  H1350   1.110   .     S
C1314  H1321   1.081   .     S
C1315  H1332   1.082   .     S
C1315  C416    1.391   1_556 S
C1316  C1612   1.394   .     S
C1318  Cl1319  1.780   .     S
H1335  C1404   1.111   .     S
H1336  C1599   1.112   .     S
N1361  Zn1371  2.026   .     S
N1362  Zn1372  2.026   .     S
O1363  Zn1371  1.976   .     S
O1364  Zn1372  1.976   .     S
O1365  Zn1372  2.010   .     S
O1366  Zn1371  2.010   .     S
O1367  Zn1371  1.969   .     S
O1368  Zn1372  1.969   .     S
O1369  Zn1372  1.933   .     S
O1370  Zn1371  1.933   .     S
C1373  O1463   1.279   .     A
C1373  O1461   1.294   .     A
C1373  C1376   1.413   .     S
C1374  Cl1418  1.780   .     S
C1374  C1376   1.395   .     A
C1374  C1709   1.381   .     S
C1375  C1415   1.413   .     A
C1375  C1384   1.428   .     S
C1375  C1416   1.407   .     A
C1376  C1414   1.412   .     A
C1377  N1460   1.389   .     A
C1377  C1405   1.520   .     S
C1377  C1183   1.428   1_655 S
C1378  N1459   1.391   .     A
C1378  C1409   1.515   .     S
C1379  N1459   1.356   .     A
C1379  H1421   1.076   .     S
C1380  N1460   1.353   .     A
C1380  H1422   1.078   .     S
C1380  C1182   1.419   1_655 S
C1381  O1467   1.296   .     A
C1381  O1465   1.302   .     A
C1381  C1383   1.461   .     S
C1382  O1466   1.298   .     A
C1382  O1468   1.299   .     A
C1382  C1385   1.459   .     S
C1383  C1390   1.395   .     A
C1383  C1388   1.399   .     A
C1384  O1462   1.297   .     A
C1384  O1464   1.285   .     A
C1385  C1391   1.397   .     A
C1385  C1389   1.399   .     A
C1386  H1456   1.083   .     S
C1386  C1388   1.396   .     A
C1386  C1394   1.405   .     A
C1387  H1457   1.082   .     S
C1387  C1396   1.403   .     A
C1387  C1389   1.391   .     A
C1388  H1455   1.082   .     S
C1389  H1454   1.083   .     S
C1390  C1392   1.393   .     A
C1390  H1452   1.079   .     S
C1391  C1393   1.398   .     A
C1391  H1441   1.078   .     S
C1392  C1397   1.414   .     A
C1392  C1394   1.413   .     A
C1393  C1398   1.419   .     A
C1393  C1396   1.419   .     A
C1394  C530    1.392   1_556 S
C1395  C1398   1.414   .     A
C1395  C1412   1.394   .     A
C1395  H1458   1.077   .     S
C1397  C1406   1.412   .     A
C1397  C516    1.412   1_556 S
C1399  H1429   1.109   .     S
C1399  H1428   1.105   .     S
C1399  C1414   1.525   .     S
C1399  C1400   1.534   .     S
C1400  C1401   1.525   .     S
C1400  H1427   1.111   .     S
C1400  H1426   1.112   .     S
C1401  H1425   1.110   .     S
C1401  H1423   1.108   .     S
C1401  H1424   1.111   .     S
C1402  H1436   1.099   .     S
C1402  C1415   1.520   .     S
C1402  C1403   1.543   .     S
C1402  H1437   1.110   .     S
C1403  H1435   1.113   .     S
C1403  C1404   1.515   .     S
C1404  H1432   1.110   .     S
C1404  H1431   1.105   .     S
C1405  H1444   1.108   .     S
C1405  H1445   1.087   .     S
C1405  C1211   1.535   1_655 S
C1406  C1413   1.388   .     A
C1406  H1420   1.079   .     S
C1407  H1442   1.110   .     S
C1407  H1443   1.108   .     S
C1408  H1438   1.111   .     S
C1408  H1439   1.111   .     S
C1408  C1211   1.529   1_655 S
C1408  H1244   1.110   1_655 S
C1409  H1451   1.087   .     S
C1409  H1453   1.112   .     S
C1410  C1411   1.530   .     S
C1410  H1449   1.110   .     S
C1410  C1213   1.542   1_655 S
C1410  H1254   1.113   1_655 S
C1411  H1446   1.111   .     S
C1411  H1447   1.106   .     S
C1411  H1448   1.110   .     S
C1412  H1419   1.081   .     S
C1413  H1430   1.082   .     S
C1413  C514    1.391   1_556 S
C1414  C1710   1.394   .     S
C1416  Cl1417  1.780   .     S
H1433  C1208   1.111   1_655 S
H1434  C1697   1.112   .     S
N1459  Zn1469  2.026   .     S
N1460  Zn1470  2.026   .     S
O1461  Zn1469  1.976   .     S
O1462  Zn1470  1.976   .     S
O1463  Zn1470  2.010   .     S
O1464  Zn1469  2.010   .     S
O1465  Zn1469  1.969   .     S
O1466  Zn1470  1.969   .     S
O1467  Zn1470  1.933   .     S
O1468  Zn1469  1.933   .     S
C1471  O1561   1.279   .     A
C1471  O1559   1.294   .     A
C1471  C1474   1.413   .     S
C1472  Cl1516  1.780   .     S
C1472  C1474   1.395   .     A
C1472  C925    1.381   1_565 S
C1473  C1513   1.413   .     A
C1473  C1482   1.428   .     S
C1473  C1514   1.407   .     A
C1474  C1512   1.412   .     A
C1475  N1558   1.389   .     A
C1475  C1503   1.520   .     S
C1475  C1575   1.428   .     S
C1476  N1557   1.391   .     A
C1476  C1507   1.515   .     S
C1476  C1674   1.419   1_455 S
C1477  N1557   1.356   .     A
C1477  H1519   1.076   .     S
C1477  C1671   1.428   1_455 S
C1478  N1558   1.353   .     A
C1478  H1520   1.078   .     S
C1478  C1574   1.419   .     S
C1479  O1565   1.296   .     A
C1479  O1563   1.302   .     A
C1479  C1481   1.461   .     S
C1480  O1564   1.298   .     A
C1480  O1566   1.299   .     A
C1480  C1483   1.459   .     S
C1481  C1488   1.395   .     A
C1481  C1486   1.399   .     A
C1482  O1560   1.297   .     A
C1482  O1562   1.285   .     A
C1483  C1489   1.397   .     A
C1483  C1487   1.399   .     A
C1484  H1554   1.083   .     S
C1484  C1486   1.396   .     A
C1484  C1492   1.405   .     A
C1485  H1555   1.082   .     S
C1485  C1494   1.403   .     A
C1485  C1487   1.391   .     A
C1486  H1553   1.082   .     S
C1487  H1552   1.083   .     S
C1488  C1490   1.393   .     A
C1488  H1550   1.079   .     S
C1489  C1491   1.398   .     A
C1489  H1539   1.078   .     S
C1490  C1495   1.414   .     A
C1490  C1492   1.413   .     A
C1491  C1496   1.419   .     A
C1491  C1494   1.419   .     A
C1492  C628    1.392   1_556 S
C1493  C1496   1.414   .     A
C1493  C1510   1.394   .     A
C1493  H1556   1.077   .     S
C1495  C1504   1.412   .     A
C1495  C614    1.412   1_556 S
C1497  H1527   1.109   .     S
C1497  H1526   1.105   .     S
C1497  C1512   1.525   .     S
C1497  C1498   1.534   .     S
C1498  C1499   1.525   .     S
C1498  H1525   1.111   .     S
C1498  H1524   1.112   .     S
C1499  H1523   1.110   .     S
C1499  H1521   1.108   .     S
C1499  H1522   1.111   .     S
C1500  H1534   1.099   .     S
C1500  C1513   1.520   .     S
C1500  C1501   1.543   .     S
C1500  H1535   1.110   .     S
C1501  H1533   1.113   .     S
C1501  C1502   1.515   .     S
C1502  H1530   1.110   .     S
C1502  H1529   1.105   .     S
C1502  H1727   1.111   1_455 S
C1503  H1542   1.108   .     S
C1503  H1543   1.087   .     S
C1503  C1603   1.535   .     S
C1504  C1511   1.388   .     A
C1504  H1518   1.079   .     S
C1505  H1540   1.110   .     S
C1505  H1541   1.108   .     S
C1505  C1699   1.535   1_455 S
C1505  C1702   1.529   1_455 S
C1506  H1536   1.111   .     S
C1506  H1537   1.111   .     S
C1506  C1603   1.529   .     S
C1506  H1636   1.110   .     S
C1507  H1549   1.087   .     S
C1507  H1551   1.112   .     S
C1507  C1704   1.542   1_455 S
C1508  C1509   1.530   .     S
C1508  H1547   1.110   .     S
C1508  C1605   1.542   .     S
C1508  H1646   1.113   .     S
C1509  H1544   1.111   .     S
C1509  H1545   1.106   .     S
C1509  H1546   1.110   .     S
C1510  H1517   1.081   .     S
C1511  H1528   1.082   .     S
C1511  C612    1.391   1_556 S
C1512  C926    1.394   1_565 S
C1514  Cl1515  1.780   .     S
H1531  C1600   1.111   .     S
H1532  C913    1.112   1_565 S
H1538  C1702   1.110   1_455 S
H1548  C1704   1.113   1_455 S
N1557  Zn1567  2.026   .     S
N1558  Zn1568  2.026   .     S
O1559  Zn1567  1.976   .     S
O1560  Zn1568  1.976   .     S
O1561  Zn1568  2.010   .     S
O1562  Zn1567  2.010   .     S
O1563  Zn1567  1.969   .     S
O1564  Zn1568  1.969   .     S
O1565  Zn1568  1.933   .     S
O1566  Zn1567  1.933   .     S
C1569  O1659   1.279   .     A
C1569  O1657   1.294   .     A
C1569  C1572   1.413   .     S
C1570  Cl1614  1.780   .     S
C1570  C1572   1.395   .     A
C1570  C1023   1.381   1_565 S
C1571  C1611   1.413   .     A
C1571  C1580   1.428   .     S
C1571  C1612   1.407   .     A
C1572  C1610   1.412   .     A
C1573  N1656   1.389   .     A
C1573  C1601   1.520   .     S
C1573  C1673   1.428   .     S
C1574  N1655   1.391   .     A
C1574  C1605   1.515   .     S
C1575  N1655   1.356   .     A
C1575  H1617   1.076   .     S
C1576  N1656   1.353   .     A
C1576  H1618   1.078   .     S
C1576  C1672   1.419   .     S
C1577  O1663   1.296   .     A
C1577  O1661   1.302   .     A
C1577  C1579   1.461   .     S
C1578  O1662   1.298   .     A
C1578  O1664   1.299   .     A
C1578  C1581   1.459   .     S
C1579  C1586   1.395   .     A
C1579  C1584   1.399   .     A
C1580  O1658   1.297   .     A
C1580  O1660   1.285   .     A
C1581  C1587   1.397   .     A
C1581  C1585   1.399   .     A
C1582  H1652   1.083   .     S
C1582  C1584   1.396   .     A
C1582  C1590   1.405   .     A
C1583  H1653   1.082   .     S
C1583  C1592   1.403   .     A
C1583  C1585   1.391   .     A
C1584  H1651   1.082   .     S
C1585  H1650   1.083   .     S
C1586  C1588   1.393   .     A
C1586  H1648   1.079   .     S
C1587  C1589   1.398   .     A
C1587  H1637   1.078   .     S
C1588  C1593   1.414   .     A
C1588  C1590   1.413   .     A
C1589  C1594   1.419   .     A
C1589  C1592   1.419   .     A
C1590  C726    1.392   1_556 S
C1591  C1594   1.414   .     A
C1591  C1608   1.394   .     A
C1591  H1654   1.077   .     S
C1593  C1602   1.412   .     A
C1593  C712    1.412   1_556 S
C1595  H1625   1.109   .     S
C1595  H1624   1.105   .     S
C1595  C1610   1.525   .     S
C1595  C1596   1.534   .     S
C1596  C1597   1.525   .     S
C1596  H1623   1.111   .     S
C1596  H1622   1.112   .     S
C1597  H1621   1.110   .     S
C1597  H1619   1.108   .     S
C1597  H1620   1.111   .     S
C1598  H1632   1.099   .     S
C1598  C1611   1.520   .     S
C1598  C1599   1.543   .     S
C1598  H1633   1.110   .     S
C1599  H1631   1.113   .     S
C1599  C1600   1.515   .     S
C1600  H1628   1.110   .     S
C1600  H1627   1.105   .     S
C1601  H1640   1.108   .     S
C1601  H1641   1.087   .     S
C1601  C1701   1.535   .     S
C1602  C1609   1.388   .     A
C1602  H1616   1.079   .     S
C1603  H1638   1.110   .     S
C1603  H1639   1.108   .     S
C1604  H1634   1.111   .     S
C1604  H1635   1.111   .     S
C1604  C1701   1.529   .     S
C1604  H1734   1.110   .     S
C1605  H1647   1.087   .     S
C1605  H1649   1.112   .     S
C1606  C1607   1.530   .     S
C1606  H1645   1.110   .     S
C1606  C1703   1.542   .     S
C1606  H1744   1.113   .     S
C1607  H1642   1.111   .     S
C1607  H1643   1.106   .     S
C1607  H1644   1.110   .     S
C1608  H1615   1.081   .     S
C1609  H1626   1.082   .     S
C1609  C710    1.391   1_556 S
C1610  C1024   1.394   1_565 S
C1612  Cl1613  1.780   .     S
H1629  C1698   1.111   .     S
H1630  C1011   1.112   1_565 S
N1655  Zn1665  2.026   .     S
N1656  Zn1666  2.026   .     S
O1657  Zn1665  1.976   .     S
O1658  Zn1666  1.976   .     S
O1659  Zn1666  2.010   .     S
O1660  Zn1665  2.010   .     S
O1661  Zn1665  1.969   .     S
O1662  Zn1666  1.969   .     S
O1663  Zn1666  1.933   .     S
O1664  Zn1665  1.933   .     S
C1667  O1757   1.279   .     A
C1667  O1755   1.294   .     A
C1667  C1670   1.413   .     S
C1668  Cl1712  1.780   .     S
C1668  C1670   1.395   .     A
C1668  C1121   1.381   1_565 S
C1669  C1709   1.413   .     A
C1669  C1678   1.428   .     S
C1669  C1710   1.407   .     A
C1670  C1708   1.412   .     A
C1671  N1754   1.389   .     A
C1671  C1699   1.520   .     S
C1671  C1477   1.428   1_655 S
C1672  N1753   1.391   .     A
C1672  C1703   1.515   .     S
C1673  N1753   1.356   .     A
C1673  H1715   1.076   .     S
C1674  N1754   1.353   .     A
C1674  H1716   1.078   .     S
C1674  C1476   1.419   1_655 S
C1675  O1761   1.296   .     A
C1675  O1759   1.302   .     A
C1675  C1677   1.461   .     S
C1676  O1760   1.298   .     A
C1676  O1762   1.299   .     A
C1676  C1679   1.459   .     S
C1677  C1684   1.395   .     A
C1677  C1682   1.399   .     A
C1678  O1756   1.297   .     A
C1678  O1758   1.285   .     A
C1679  C1685   1.397   .     A
C1679  C1683   1.399   .     A
C1680  H1750   1.083   .     S
C1680  C1682   1.396   .     A
C1680  C1688   1.405   .     A
C1681  H1751   1.082   .     S
C1681  C1690   1.403   .     A
C1681  C1683   1.391   .     A
C1682  H1749   1.082   .     S
C1683  H1748   1.083   .     S
C1684  C1686   1.393   .     A
C1684  H1746   1.079   .     S
C1685  C1687   1.398   .     A
C1685  H1735   1.078   .     S
C1686  C1691   1.414   .     A
C1686  C1688   1.413   .     A
C1687  C1692   1.419   .     A
C1687  C1690   1.419   .     A
C1688  C824    1.392   1_556 S
C1689  C1692   1.414   .     A
C1689  C1706   1.394   .     A
C1689  H1752   1.077   .     S
C1691  C1700   1.412   .     A
C1691  C810    1.412   1_556 S
C1693  H1723   1.109   .     S
C1693  H1722   1.105   .     S
C1693  C1708   1.525   .     S
C1693  C1694   1.534   .     S
C1694  C1695   1.525   .     S
C1694  H1721   1.111   .     S
C1694  H1720   1.112   .     S
C1695  H1719   1.110   .     S
C1695  H1717   1.108   .     S
C1695  H1718   1.111   .     S
C1696  H1730   1.099   .     S
C1696  C1709   1.520   .     S
C1696  C1697   1.543   .     S
C1696  H1731   1.110   .     S
C1697  H1729   1.113   .     S
C1697  C1698   1.515   .     S
C1698  H1726   1.110   .     S
C1698  H1725   1.105   .     S
C1699  H1738   1.108   .     S
C1699  H1739   1.087   .     S
C1699  C1505   1.535   1_655 S
C1700  C1707   1.388   .     A
C1700  H1714   1.079   .     S
C1701  H1736   1.110   .     S
C1701  H1737   1.108   .     S
C1702  H1732   1.111   .     S
C1702  H1733   1.111   .     S
C1702  C1505   1.529   1_655 S
C1702  H1538   1.110   1_655 S
C1703  H1745   1.087   .     S
C1703  H1747   1.112   .     S
C1704  C1705   1.530   .     S
C1704  H1743   1.110   .     S
C1704  C1507   1.542   1_655 S
C1704  H1548   1.113   1_655 S
C1705  H1740   1.111   .     S
C1705  H1741   1.106   .     S
C1705  H1742   1.110   .     S
C1706  H1713   1.081   .     S
C1707  H1724   1.082   .     S
C1707  C808    1.391   1_556 S
C1708  C1122   1.394   1_565 S
C1710  Cl1711  1.780   .     S
H1727  C1502   1.111   1_655 S
H1728  C1109   1.112   1_565 S
N1753  Zn1763  2.026   .     S
N1754  Zn1764  2.026   .     S
O1755  Zn1763  1.976   .     S
O1756  Zn1764  1.976   .     S
O1757  Zn1764  2.010   .     S
O1758  Zn1763  2.010   .     S
O1759  Zn1763  1.969   .     S
O1760  Zn1764  1.969   .     S
O1761  Zn1764  1.933   .     S
O1762  Zn1763  1.933   .     S
