data_str_m1_o1_o17_pcu_sym.88
_audit_creation_date              2020-01-03
_audit_creation_method            'Materials Studio'
_symmetry_space_group_name_H-M    'P1'
_symmetry_Int_Tables_number       1
_symmetry_cell_setting            triclinic
loop_
_symmetry_equiv_pos_as_xyz
  x,y,z
_cell_length_a                    36.7376
_cell_length_b                    36.7375
_cell_length_c                    34.2966
_cell_angle_alpha                 89.9999
_cell_angle_beta                  89.9999
_cell_angle_gamma                 90.0002
loop_
_atom_site_label
_atom_site_type_symbol
_atom_site_fract_x
_atom_site_fract_y
_atom_site_fract_z
_atom_site_U_iso_or_equiv
_atom_site_adp_type
_atom_site_occupancy
C1     C     0.48502   0.27980   0.41824   0.00000  Uiso   1.00
C2     C     0.23504   0.47019   0.08176   0.00000  Uiso   1.00
C3     C     0.21878   0.48807   0.54126   0.00000  Uiso   1.00
C4     C     0.48682   0.28069   0.45917   0.00000  Uiso   1.00
C5     C     0.01195   0.21878   0.54126   0.00000  Uiso   1.00
C6     C     0.21930   0.48684   0.45917   0.00000  Uiso   1.00
C7     C     0.28122   0.01193   0.54126   0.00000  Uiso   1.00
C8     C     0.23807   0.46878   0.95874   0.00000  Uiso   1.00
C9     C     0.26316   0.03070   0.04083   0.00000  Uiso   1.00
C10    C     0.03121   0.23805   0.95874   0.00000  Uiso   1.00
C11    C     0.46931   0.26318   0.04083   0.00000  Uiso   1.00
C12    C     0.26193   0.03122   0.95874   0.00000  Uiso   1.00
C13    C     0.46860   0.26114   0.91787   0.00000  Uiso   1.00
C14    C     0.23684   0.46930   0.04083   0.00000  Uiso   1.00
C15    C     0.46878   0.26195   0.95874   0.00000  Uiso   1.00
C16    C     0.03069   0.23682   0.04083   0.00000  Uiso   1.00
C17    C     0.09799   0.34799   0.25000   0.00000  Uiso   1.00
C18    C     0.40191   0.15191   0.75000   0.00000  Uiso   1.00
C19    C     0.15201   0.09799   0.25000   0.00000  Uiso   1.00
C20    C     0.34809   0.40191   0.75000   0.00000  Uiso   1.00
C21    C     0.40201   0.15201   0.25000   0.00000  Uiso   1.00
C22    C     0.09809   0.34809   0.75000   0.00000  Uiso   1.00
C23    C     0.34799   0.40201   0.25000   0.00000  Uiso   1.00
C24    C     0.02980   0.23501   0.08176   0.00000  Uiso   1.00
C25    C     0.15191   0.09809   0.75000   0.00000  Uiso   1.00
C26    C     0.09812   0.15188   0.75000   0.00000  Uiso   1.00
C27    C     0.40170   0.34830   0.25000   0.00000  Uiso   1.00
C28    C     0.15188   0.40188   0.75000   0.00000  Uiso   1.00
C29    C     0.34830   0.09830   0.25000   0.00000  Uiso   1.00
C30    C     0.40188   0.34812   0.75000   0.00000  Uiso   1.00
C31    C     0.09830   0.15170   0.25000   0.00000  Uiso   1.00
C32    C     0.34812   0.09812   0.75000   0.00000  Uiso   1.00
C33    C     0.15170   0.40170   0.25000   0.00000  Uiso   1.00
C34    C     0.00000   0.25000   0.47966   0.00000  Uiso   1.00
C35    C     0.23888   0.46859   0.91787   0.00000  Uiso   1.00
C36    C     0.00000   0.25000   0.52076   0.00000  Uiso   1.00
C37    C     0.25000  -0.00000   0.47966   0.00000  Uiso   1.00
C38    C     0.25000  -0.00000   0.52076   0.00000  Uiso   1.00
C39    C     0.25000  -0.00000   0.97924   0.00000  Uiso   1.00
C40    C     0.25000  -0.00000   0.02034   0.00000  Uiso   1.00
C41    C    -0.00000   0.25000   0.97924   0.00000  Uiso   1.00
C42    C    -0.00000   0.25000   0.02034   0.00000  Uiso   1.00
C43    C     0.09900   0.45694   0.20732   0.00000  Uiso   1.00
C44    C     0.35410   0.08085   0.84113   0.00000  Uiso   1.00
C45    C     0.04308   0.09901   0.20728   0.00000  Uiso   1.00
C46    C     0.26496   0.02981   0.08176   0.00000  Uiso   1.00
C47    C     0.41918   0.35413   0.84112   0.00000  Uiso   1.00
C48    C     0.40100   0.04307   0.20732   0.00000  Uiso   1.00
C49    C     0.14590   0.41915   0.84113   0.00000  Uiso   1.00
C50    C     0.45693   0.40100   0.20731   0.00000  Uiso   1.00
C51    C     0.08082   0.14587   0.84112   0.00000  Uiso   1.00
C52    C     0.14341   0.08174   0.84201   0.00000  Uiso   1.00
C53    C     0.38635   0.44783   0.17797   0.00000  Uiso   1.00
C54    C     0.08177   0.35656   0.84202   0.00000  Uiso   1.00
C55    C     0.44783   0.11365   0.17797   0.00000  Uiso   1.00
C56    C     0.35659   0.41826   0.84201   0.00000  Uiso   1.00
C57    C     0.03140   0.23886   0.91787   0.00000  Uiso   1.00
C58    C     0.11366   0.05218   0.17796   0.00000  Uiso   1.00
C59    C     0.41822   0.14345   0.84202   0.00000  Uiso   1.00
C60    C     0.05217   0.38636   0.17797   0.00000  Uiso   1.00
C61    C     0.39345   0.16822   0.65798   0.00000  Uiso   1.00
C62    C     0.13635   0.30217   0.32203   0.00000  Uiso   1.00
C63    C     0.33174   0.39341   0.65799   0.00000  Uiso   1.00
C64    C     0.19782   0.13634   0.32204   0.00000  Uiso   1.00
C65    C     0.10656   0.33177   0.65798   0.00000  Uiso   1.00
C66    C     0.36365   0.19783   0.32203   0.00000  Uiso   1.00
C67    C     0.16826   0.10659   0.65799   0.00000  Uiso   1.00
C68    C     0.47020   0.26498   0.08176   0.00000  Uiso   1.00
C69    C     0.30217   0.36365   0.32203   0.00000  Uiso   1.00
C70    C     0.34900   0.29307   0.29269   0.00000  Uiso   1.00
C71    C     0.10413   0.16918   0.65888   0.00000  Uiso   1.00
C72    C     0.29306   0.15100   0.29268   0.00000  Uiso   1.00
C73    C     0.16915   0.39590   0.65887   0.00000  Uiso   1.00
C74    C     0.15100   0.20692   0.29271   0.00000  Uiso   1.00
C75    C     0.39587   0.33082   0.65888   0.00000  Uiso   1.00
C76    C     0.20693   0.34899   0.29268   0.00000  Uiso   1.00
C77    C     0.33085   0.10410   0.65887   0.00000  Uiso   1.00
C78    C     0.43380   0.30848   0.39615   0.00000  Uiso   1.00
C79    C     0.00000   0.25000   0.39815   0.00000  Uiso   1.00
C80    C     0.41982   0.34465   0.38065   0.00000  Uiso   1.00
C81    C     0.49238   0.16598   0.61077   0.00000  Uiso   1.00
C82    C     0.00338   0.13676   0.63986   0.00000  Uiso   1.00
C83    C     0.19148   0.43385   0.39614   0.00000  Uiso   1.00
C84    C     0.15531   0.41988   0.38059   0.00000  Uiso   1.00
C85    C     0.33402   0.49234   0.61077   0.00000  Uiso   1.00
C86    C     0.36324   0.00333   0.63987   0.00000  Uiso   1.00
C87    C     0.06620   0.19152   0.39615   0.00000  Uiso   1.00
C88    C     0.08019   0.15534   0.38067   0.00000  Uiso   1.00
C89    C     0.00762   0.33402   0.61077   0.00000  Uiso   1.00
C90    C     0.00000   0.25000   0.60212   0.00000  Uiso   1.00
C91    C     0.49662   0.36324   0.63987   0.00000  Uiso   1.00
C92    C     0.30852   0.06615   0.39614   0.00000  Uiso   1.00
C93    C     0.34468   0.08011   0.38059   0.00000  Uiso   1.00
C94    C     0.16598   0.00766   0.61077   0.00000  Uiso   1.00
C95    C     0.13675   0.49666   0.63986   0.00000  Uiso   1.00
C96    C     0.24234   0.08402   0.88923   0.00000  Uiso   1.00
C97    C     0.25333   0.11325   0.86014   0.00000  Uiso   1.00
C98    C     0.18385   0.44147   0.10386   0.00000  Uiso   1.00
C99    C     0.16989   0.40531   0.11942   0.00000  Uiso   1.00
C100   C     0.41598   0.24238   0.88923   0.00000  Uiso   1.00
C101   C     0.25000  -0.00000   0.39815   0.00000  Uiso   1.00
C102   C     0.38676   0.25338   0.86013   0.00000  Uiso   1.00
C103   C     0.05848   0.18380   0.10385   0.00000  Uiso   1.00
C104   C     0.09466   0.16981   0.11932   0.00000  Uiso   1.00
C105   C     0.25766   0.41598   0.88922   0.00000  Uiso   1.00
C106   C     0.24667   0.38676   0.86013   0.00000  Uiso   1.00
C107   C     0.31615   0.05853   0.10386   0.00000  Uiso   1.00
C108   C     0.33011   0.09469   0.11942   0.00000  Uiso   1.00
C109   C     0.08402   0.25762   0.88923   0.00000  Uiso   1.00
C110   C     0.11324   0.24662   0.86014   0.00000  Uiso   1.00
C111   C     0.44152   0.31619   0.10385   0.00000  Uiso   1.00
C112   C     0.01114   0.21860   0.58213   0.00000  Uiso   1.00
C113   C     0.25000  -0.00000   0.60212   0.00000  Uiso   1.00
C114   C     0.40535   0.33018   0.11936   0.00000  Uiso   1.00
C115   C     0.25000  -0.00000   0.89788   0.00000  Uiso   1.00
C116   C     0.25000  -0.00000   0.10185   0.00000  Uiso   1.00
C117   C    -0.00000   0.25000   0.89788   0.00000  Uiso   1.00
C118   C    -0.00000   0.25000   0.10185   0.00000  Uiso   1.00
C119   C     0.02445   0.18838   0.48000   0.00000  Uiso   1.00
C120   C     0.47595   0.31179   0.52051   0.00000  Uiso   1.00
C121   C     0.31163   0.02441   0.48000   0.00000  Uiso   1.00
C122   C     0.18819   0.47599   0.52051   0.00000  Uiso   1.00
C123   C     0.47555   0.31162   0.48000   0.00000  Uiso   1.00
C124   C     0.22019   0.48504   0.41824   0.00000  Uiso   1.00
C125   C     0.02405   0.18821   0.52051   0.00000  Uiso   1.00
C126   C     0.18837   0.47559   0.48000   0.00000  Uiso   1.00
C127   C     0.31181   0.02401   0.52051   0.00000  Uiso   1.00
C128   C     0.22599   0.43819   0.97949   0.00000  Uiso   1.00
C129   C     0.27441   0.06163   0.02000   0.00000  Uiso   1.00
C130   C     0.06179   0.22595   0.97949   0.00000  Uiso   1.00
C131   C     0.43838   0.27445   0.02000   0.00000  Uiso   1.00
C132   C     0.27401   0.06181   0.97949   0.00000  Uiso   1.00
C133   C     0.22559   0.43836   0.02000   0.00000  Uiso   1.00
C134   C     0.43821   0.27405   0.97949   0.00000  Uiso   1.00
C135   C     0.28140   0.01112   0.58213   0.00000  Uiso   1.00
C136   C     0.06162   0.22555   0.02000   0.00000  Uiso   1.00
C137   C     0.25000  -0.00000   0.35580   0.00000  Uiso   1.00
C138   C     0.25000  -0.00000   0.64431   0.00000  Uiso   1.00
C139   C    -0.00000   0.25000   0.35580   0.00000  Uiso   1.00
C140   C    -0.00000   0.25000   0.64431   0.00000  Uiso   1.00
C141   C    -0.00000   0.25000   0.85569   0.00000  Uiso   1.00
C142   C     0.00000   0.25000   0.14420   0.00000  Uiso   1.00
C143   C     0.25000  -0.00000   0.85569   0.00000  Uiso   1.00
C144   C     0.25000  -0.00000   0.14420   0.00000  Uiso   1.00
C145   C     0.18000   0.07000   0.25000   0.00000  Uiso   1.00
C146   C     0.01498   0.22020   0.41824   0.00000  Uiso   1.00
C147   C     0.32003   0.42997   0.75000   0.00000  Uiso   1.00
C148   C     0.43000   0.18000   0.25000   0.00000  Uiso   1.00
C149   C     0.07003   0.32003   0.75000   0.00000  Uiso   1.00
C150   C     0.32000   0.43000   0.25000   0.00000  Uiso   1.00
C151   C     0.17997   0.07003   0.75000   0.00000  Uiso   1.00
C152   C     0.07000   0.32000   0.25000   0.00000  Uiso   1.00
C153   C     0.42997   0.17997   0.75000   0.00000  Uiso   1.00
C154   C     0.17996   0.42996   0.75000   0.00000  Uiso   1.00
C155   C     0.32011   0.07011   0.25000   0.00000  Uiso   1.00
C156   C     0.42996   0.32004   0.75000   0.00000  Uiso   1.00
C157   C     0.48886   0.28140   0.58213   0.00000  Uiso   1.00
C158   C     0.07011   0.17989   0.25000   0.00000  Uiso   1.00
C159   C     0.32004   0.07004   0.75000   0.00000  Uiso   1.00
C160   C     0.17989   0.42989   0.25000   0.00000  Uiso   1.00
C161   C     0.07004   0.17996   0.75000   0.00000  Uiso   1.00
C162   C     0.42989   0.32011   0.25000   0.00000  Uiso   1.00
C163   C     0.12419   0.40191   0.22109   0.00000  Uiso   1.00
C164   C     0.35784   0.11520   0.78526   0.00000  Uiso   1.00
C165   C     0.09810   0.12419   0.22108   0.00000  Uiso   1.00
C166   C     0.38481   0.35786   0.78526   0.00000  Uiso   1.00
C167   C     0.37581   0.09809   0.22109   0.00000  Uiso   1.00
C168   C     0.27981   0.01496   0.41824   0.00000  Uiso   1.00
C169   C     0.14215   0.38480   0.78526   0.00000  Uiso   1.00
C170   C     0.40191   0.37581   0.22109   0.00000  Uiso   1.00
C171   C     0.11519   0.14214   0.78526   0.00000  Uiso   1.00
C172   C     0.14205   0.11501   0.78530   0.00000  Uiso   1.00
C173   C     0.37249   0.39970   0.21853   0.00000  Uiso   1.00
C174   C     0.11502   0.35794   0.78529   0.00000  Uiso   1.00
C175   C     0.39970   0.12751   0.21853   0.00000  Uiso   1.00
C176   C     0.35795   0.38499   0.78530   0.00000  Uiso   1.00
C177   C     0.12752   0.10031   0.21853   0.00000  Uiso   1.00
C178   C     0.38498   0.14206   0.78529   0.00000  Uiso   1.00
C179   C     0.21859   0.48888   0.58213   0.00000  Uiso   1.00
C180   C     0.10030   0.37249   0.21853   0.00000  Uiso   1.00
C181   C     0.39206   0.13498   0.71471   0.00000  Uiso   1.00
C182   C     0.12249   0.35030   0.28147   0.00000  Uiso   1.00
C183   C     0.36501   0.39205   0.71470   0.00000  Uiso   1.00
C184   C     0.14969   0.12248   0.28147   0.00000  Uiso   1.00
C185   C     0.10794   0.36502   0.71471   0.00000  Uiso   1.00
C186   C     0.37751   0.14970   0.28147   0.00000  Uiso   1.00
C187   C     0.13499   0.10795   0.71470   0.00000  Uiso   1.00
C188   C     0.35030   0.37751   0.28147   0.00000  Uiso   1.00
C189   C     0.37419   0.34809   0.27891   0.00000  Uiso   1.00
C190   C     0.26112   0.03140   0.91787   0.00000  Uiso   1.00
C191   C     0.10786   0.13481   0.71474   0.00000  Uiso   1.00
C192   C     0.34809   0.12581   0.27891   0.00000  Uiso   1.00
C193   C     0.13480   0.39215   0.71474   0.00000  Uiso   1.00
C194   C     0.12581   0.15190   0.27891   0.00000  Uiso   1.00
C195   C     0.39214   0.36519   0.71474   0.00000  Uiso   1.00
C196   C     0.15191   0.37419   0.27891   0.00000  Uiso   1.00
C197   C     0.36520   0.10784   0.71474   0.00000  Uiso   1.00
C198   C     0.01318   0.21931   0.45917   0.00000  Uiso   1.00
C199   C     0.48805   0.28122   0.54126   0.00000  Uiso   1.00
C200   C     0.28070   0.01316   0.45917   0.00000  Uiso   1.00
H201   H     0.03371   0.16410   0.46511   0.00000  Uiso   1.00
H202   H     0.28364   0.08592   0.03489   0.00000  Uiso   1.00
H203   H     0.18955   0.41704   0.65145   0.00000  Uiso   1.00
H204   H     0.13725   0.22373   0.27023   0.00000  Uiso   1.00
H205   H     0.17686   0.19644   0.28017   0.00000  Uiso   1.00
H206   H     0.15828   0.22489   0.31747   0.00000  Uiso   1.00
H207   H     0.38581   0.34234   0.63102   0.00000  Uiso   1.00
H208   H     0.37308   0.31611   0.67358   0.00000  Uiso   1.00
H209   H     0.41701   0.31042   0.65145   0.00000  Uiso   1.00
H210   H     0.22373   0.36275   0.27020   0.00000  Uiso   1.00
H211   H     0.19644   0.32313   0.28014   0.00000  Uiso   1.00
H212   H     0.22491   0.34171   0.31743   0.00000  Uiso   1.00
H213   H     0.08602   0.21664   0.96452   0.00000  Uiso   1.00
H214   H     0.34238   0.11414   0.63102   0.00000  Uiso   1.00
H215   H     0.31613   0.12689   0.67356   0.00000  Uiso   1.00
H216   H     0.31046   0.08295   0.65145   0.00000  Uiso   1.00
H217   H     0.42144   0.30401   0.42542   0.00000  Uiso   1.00
H218   H     0.42436   0.28646   0.37639   0.00000  Uiso   1.00
H219   H     0.43046   0.34945   0.35077   0.00000  Uiso   1.00
H220   H     0.38960   0.34439   0.37977   0.00000  Uiso   1.00
H221   H     0.42886   0.36716   0.39997   0.00000  Uiso   1.00
H222   H     0.48281   0.15250   0.58358   0.00000  Uiso   1.00
H223   H     0.46939   0.18162   0.62371   0.00000  Uiso   1.00
H224   H     0.41410   0.28370   0.03489   0.00000  Uiso   1.00
H225   H     0.01182   0.14960   0.66776   0.00000  Uiso   1.00
H226   H     0.47998   0.11837   0.64554   0.00000  Uiso   1.00
H227   H     0.02636   0.12049   0.62807   0.00000  Uiso   1.00
H228   H     0.19591   0.42148   0.42542   0.00000  Uiso   1.00
H229   H     0.21352   0.42439   0.37641   0.00000  Uiso   1.00
H230   H     0.15056   0.43053   0.35070   0.00000  Uiso   1.00
H231   H     0.15555   0.38967   0.37971   0.00000  Uiso   1.00
H232   H     0.13279   0.42894   0.39988   0.00000  Uiso   1.00
H233   H     0.34749   0.48277   0.58359   0.00000  Uiso   1.00
H234   H     0.31836   0.46936   0.62372   0.00000  Uiso   1.00
H235   H     0.28330   0.08604   0.96452   0.00000  Uiso   1.00
H236   H     0.35040   0.01179   0.66777   0.00000  Uiso   1.00
H237   H     0.38162   0.47993   0.64555   0.00000  Uiso   1.00
H238   H     0.37952   0.02631   0.62807   0.00000  Uiso   1.00
H239   H     0.07856   0.19601   0.42542   0.00000  Uiso   1.00
H240   H     0.07564   0.21353   0.37637   0.00000  Uiso   1.00
H241   H     0.06954   0.15052   0.35080   0.00000  Uiso   1.00
H242   H     0.11040   0.15560   0.37979   0.00000  Uiso   1.00
H243   H     0.07115   0.13284   0.40001   0.00000  Uiso   1.00
H244   H     0.01718   0.34750   0.58358   0.00000  Uiso   1.00
H245   H     0.03061   0.31838   0.62371   0.00000  Uiso   1.00
H246   H     0.21636   0.41407   0.03489   0.00000  Uiso   1.00
H247   H     0.48818   0.35039   0.66777   0.00000  Uiso   1.00
H248   H     0.02002   0.38162   0.64555   0.00000  Uiso   1.00
H249   H     0.47364   0.37950   0.62808   0.00000  Uiso   1.00
H250   H     0.30409   0.07852   0.42542   0.00000  Uiso   1.00
H251   H     0.28648   0.07561   0.37641   0.00000  Uiso   1.00
H252   H     0.34944   0.06947   0.35070   0.00000  Uiso   1.00
H253   H     0.34445   0.11033   0.37971   0.00000  Uiso   1.00
H254   H     0.36721   0.07105   0.39988   0.00000  Uiso   1.00
H255   H     0.15251   0.01724   0.58359   0.00000  Uiso   1.00
H256   H     0.18164   0.03064   0.62372   0.00000  Uiso   1.00
H257   H     0.41398   0.28335   0.96452   0.00000  Uiso   1.00
H258   H     0.14959   0.48821   0.66776   0.00000  Uiso   1.00
H259   H     0.11838   0.02007   0.64554   0.00000  Uiso   1.00
H260   H     0.12048   0.47369   0.62806   0.00000  Uiso   1.00
H261   H     0.23276   0.09749   0.91641   0.00000  Uiso   1.00
H262   H     0.21936   0.06836   0.87627   0.00000  Uiso   1.00
H263   H     0.26179   0.10042   0.83224   0.00000  Uiso   1.00
H264   H     0.22993   0.13162   0.85446   0.00000  Uiso   1.00
H265   H     0.27631   0.12952   0.87195   0.00000  Uiso   1.00
H266   H     0.17148   0.44590   0.07458   0.00000  Uiso   1.00
H267   H     0.17440   0.46352   0.12359   0.00000  Uiso   1.00
H268   H     0.08590   0.21629   0.03489   0.00000  Uiso   1.00
H269   H     0.18053   0.40056   0.14930   0.00000  Uiso   1.00
H270   H     0.13967   0.40555   0.12029   0.00000  Uiso   1.00
H271   H     0.17895   0.38278   0.10013   0.00000  Uiso   1.00
H272   H     0.40250   0.23281   0.91642   0.00000  Uiso   1.00
H273   H     0.43162   0.21939   0.87629   0.00000  Uiso   1.00
H274   H     0.39961   0.26182   0.83223   0.00000  Uiso   1.00
H275   H     0.36838   0.22998   0.85445   0.00000  Uiso   1.00
H276   H     0.37050   0.27636   0.87193   0.00000  Uiso   1.00
H277   H     0.05398   0.17144   0.07458   0.00000  Uiso   1.00
H278   H     0.03647   0.17436   0.12363   0.00000  Uiso   1.00
H279   H     0.11275   0.47373   0.22980   0.00000  Uiso   1.00
H280   H     0.09949   0.18045   0.14919   0.00000  Uiso   1.00
H281   H     0.09440   0.13960   0.12020   0.00000  Uiso   1.00
H282   H     0.11716   0.17885   0.09997   0.00000  Uiso   1.00
H283   H     0.26724   0.40251   0.91641   0.00000  Uiso   1.00
H284   H     0.28064   0.43164   0.87628   0.00000  Uiso   1.00
H285   H     0.23821   0.39960   0.83223   0.00000  Uiso   1.00
H286   H     0.27007   0.36838   0.85445   0.00000  Uiso   1.00
H287   H     0.22369   0.37048   0.87193   0.00000  Uiso   1.00
H288   H     0.32852   0.05410   0.07458   0.00000  Uiso   1.00
H289   H     0.32560   0.03648   0.12359   0.00000  Uiso   1.00
H290   H     0.07313   0.44645   0.21986   0.00000  Uiso   1.00
H291   H     0.31947   0.09944   0.14930   0.00000  Uiso   1.00
H292   H     0.36033   0.09445   0.12029   0.00000  Uiso   1.00
H293   H     0.32105   0.11722   0.10013   0.00000  Uiso   1.00
H294   H     0.09750   0.26719   0.91642   0.00000  Uiso   1.00
H295   H     0.06838   0.28061   0.87629   0.00000  Uiso   1.00
H296   H     0.10040   0.23818   0.83224   0.00000  Uiso   1.00
H297   H     0.13162   0.27002   0.85446   0.00000  Uiso   1.00
H298   H     0.12950   0.22364   0.87193   0.00000  Uiso   1.00
H299   H     0.44598   0.32856   0.07458   0.00000  Uiso   1.00
H300   H     0.46355   0.32563   0.12360   0.00000  Uiso   1.00
H301   H     0.09171   0.47491   0.18257   0.00000  Uiso   1.00
H302   H     0.40056   0.31954   0.14924   0.00000  Uiso   1.00
H303   H     0.40560   0.36039   0.12024   0.00000  Uiso   1.00
H304   H     0.38283   0.32113   0.10005   0.00000  Uiso   1.00
H305   H     0.46664   0.33602   0.53548   0.00000  Uiso   1.00
H306   H     0.36415   0.09238   0.86898   0.00000  Uiso   1.00
H307   H     0.37688   0.06613   0.82643   0.00000  Uiso   1.00
H308   H     0.33295   0.06046   0.84856   0.00000  Uiso   1.00
H309   H     0.02627   0.11275   0.22977   0.00000  Uiso   1.00
H310   H     0.05356   0.07314   0.21982   0.00000  Uiso   1.00
H311   H     0.02511   0.09172   0.18252   0.00000  Uiso   1.00
H312   H     0.40766   0.36419   0.86898   0.00000  Uiso   1.00
H313   H     0.43389   0.37692   0.82641   0.00000  Uiso   1.00
H314   H     0.43958   0.33299   0.84855   0.00000  Uiso   1.00
H315   H     0.38725   0.02627   0.22980   0.00000  Uiso   1.00
H316   H     0.33592   0.03364   0.46511   0.00000  Uiso   1.00
H317   H     0.42687   0.05355   0.21986   0.00000  Uiso   1.00
H318   H     0.40829   0.02509   0.18256   0.00000  Uiso   1.00
H319   H     0.13585   0.40762   0.86898   0.00000  Uiso   1.00
H320   H     0.12311   0.43387   0.82643   0.00000  Uiso   1.00
H321   H     0.16704   0.43955   0.84855   0.00000  Uiso   1.00
H322   H     0.47373   0.38725   0.22980   0.00000  Uiso   1.00
H323   H     0.44644   0.42687   0.21986   0.00000  Uiso   1.00
H324   H     0.47491   0.40829   0.18256   0.00000  Uiso   1.00
H325   H     0.09234   0.13581   0.86898   0.00000  Uiso   1.00
H326   H     0.06611   0.12308   0.82641   0.00000  Uiso   1.00
H327   H     0.16396   0.46670   0.53548   0.00000  Uiso   1.00
H328   H     0.06042   0.16701   0.84855   0.00000  Uiso   1.00
H329   H     0.16004   0.05659   0.84324   0.00000  Uiso   1.00
H330   H     0.11554   0.07427   0.83181   0.00000  Uiso   1.00
H331   H     0.14124   0.09212   0.87229   0.00000  Uiso   1.00
H332   H     0.41084   0.44089   0.16060   0.00000  Uiso   1.00
H333   H     0.39415   0.46139   0.20581   0.00000  Uiso   1.00
H334   H     0.37056   0.46794   0.16075   0.00000  Uiso   1.00
H335   H     0.05662   0.33993   0.84325   0.00000  Uiso   1.00
H336   H     0.07430   0.38443   0.83183   0.00000  Uiso   1.00
H337   H     0.09216   0.35871   0.87230   0.00000  Uiso   1.00
H338   H     0.46630   0.33590   0.46511   0.00000  Uiso   1.00
H339   H     0.44089   0.08916   0.16060   0.00000  Uiso   1.00
H340   H     0.46139   0.10585   0.20581   0.00000  Uiso   1.00
H341   H     0.46794   0.12944   0.16075   0.00000  Uiso   1.00
H342   H     0.33996   0.44340   0.84324   0.00000  Uiso   1.00
H343   H     0.38446   0.42573   0.83181   0.00000  Uiso   1.00
H344   H     0.35876   0.40788   0.87229   0.00000  Uiso   1.00
H345   H     0.08917   0.05912   0.16057   0.00000  Uiso   1.00
H346   H     0.10586   0.03861   0.20579   0.00000  Uiso   1.00
H347   H     0.12946   0.03208   0.16074   0.00000  Uiso   1.00
H348   H     0.42569   0.11557   0.83184   0.00000  Uiso   1.00
H349   H     0.03336   0.16398   0.53548   0.00000  Uiso   1.00
H350   H     0.40784   0.14130   0.87230   0.00000  Uiso   1.00
H351   H     0.44338   0.16007   0.84324   0.00000  Uiso   1.00
H352   H     0.05910   0.41085   0.16060   0.00000  Uiso   1.00
H353   H     0.03861   0.39415   0.20581   0.00000  Uiso   1.00
H354   H     0.03206   0.37056   0.16075   0.00000  Uiso   1.00
H355   H     0.41008   0.19337   0.65675   0.00000  Uiso   1.00
H356   H     0.36557   0.17570   0.66816   0.00000  Uiso   1.00
H357   H     0.39129   0.15784   0.62770   0.00000  Uiso   1.00
H358   H     0.16084   0.30910   0.33940   0.00000  Uiso   1.00
H359   H     0.14415   0.28861   0.29419   0.00000  Uiso   1.00
H360   H     0.16408   0.46636   0.46511   0.00000  Uiso   1.00
H361   H     0.12056   0.28206   0.33925   0.00000  Uiso   1.00
H362   H     0.30660   0.41004   0.65676   0.00000  Uiso   1.00
H363   H     0.32427   0.36554   0.66819   0.00000  Uiso   1.00
H364   H     0.34212   0.39124   0.62771   0.00000  Uiso   1.00
H365   H     0.19088   0.16083   0.33942   0.00000  Uiso   1.00
H366   H     0.21138   0.14414   0.29421   0.00000  Uiso   1.00
H367   H     0.21792   0.12054   0.33926   0.00000  Uiso   1.00
H368   H     0.13443   0.32429   0.66817   0.00000  Uiso   1.00
H369   H     0.10872   0.34215   0.62770   0.00000  Uiso   1.00
H370   H     0.08992   0.30662   0.65675   0.00000  Uiso   1.00
H371   H     0.33604   0.03330   0.53548   0.00000  Uiso   1.00
H372   H     0.33915   0.19089   0.33940   0.00000  Uiso   1.00
H373   H     0.35585   0.21139   0.29419   0.00000  Uiso   1.00
H374   H     0.37944   0.21794   0.33925   0.00000  Uiso   1.00
H375   H     0.19340   0.08996   0.65676   0.00000  Uiso   1.00
H376   H     0.17573   0.13446   0.66819   0.00000  Uiso   1.00
H377   H     0.15788   0.10876   0.62771   0.00000  Uiso   1.00
H378   H     0.30911   0.33916   0.33941   0.00000  Uiso   1.00
H379   H     0.28861   0.35585   0.29419   0.00000  Uiso   1.00
H380   H     0.28206   0.37944   0.33925   0.00000  Uiso   1.00
H381   H     0.36275   0.27627   0.27020   0.00000  Uiso   1.00
H382   H     0.21670   0.41396   0.96452   0.00000  Uiso   1.00
H383   H     0.32313   0.30356   0.28015   0.00000  Uiso   1.00
H384   H     0.34171   0.27509   0.31744   0.00000  Uiso   1.00
H385   H     0.11418   0.15766   0.63102   0.00000  Uiso   1.00
H386   H     0.12692   0.18389   0.67358   0.00000  Uiso   1.00
H387   H     0.08299   0.18958   0.65145   0.00000  Uiso   1.00
H388   H     0.27627   0.13725   0.27019   0.00000  Uiso   1.00
H389   H     0.30355   0.17687   0.28014   0.00000  Uiso   1.00
H390   H     0.27509   0.15829   0.31743   0.00000  Uiso   1.00
H391   H     0.15762   0.38585   0.63102   0.00000  Uiso   1.00
H392   H     0.18387   0.37311   0.67356   0.00000  Uiso   1.00
O393   O     0.25000  -0.00000   0.25000   0.00000  Uiso   1.00
O394   O     0.25000   0.46963   0.66245   0.00000  Uiso   1.00
O395   O     0.44042   0.27772   0.10251   0.00000  Uiso   1.00
O396   O     0.46963   0.25000   0.33755   0.00000  Uiso   1.00
O397   O     0.03036   0.25000   0.66245   0.00000  Uiso   1.00
O398   O     0.00000   0.21963   0.83755   0.00000  Uiso   1.00
O399   O    -0.00000   0.28036   0.16245   0.00000  Uiso   1.00
O400   O     0.28036  -0.00000   0.83755   0.00000  Uiso   1.00
O401   O     0.21963  -0.00000   0.16245   0.00000  Uiso   1.00
O402   O     0.00000   0.28036   0.83755   0.00000  Uiso   1.00
O403   O    -0.00000   0.21963   0.16245   0.00000  Uiso   1.00
O404   O     0.21963  -0.00000   0.83755   0.00000  Uiso   1.00
O405   O     0.25000  -0.00000   0.75000   0.00000  Uiso   1.00
O406   O     0.28036  -0.00000   0.16245   0.00000  Uiso   1.00
O407   O     0.20724   0.07307   0.27302   0.00000  Uiso   1.00
O408   O     0.29275   0.42692   0.72698   0.00000  Uiso   1.00
O409   O     0.42692   0.20724   0.27302   0.00000  Uiso   1.00
O410   O     0.07307   0.29275   0.72698   0.00000  Uiso   1.00
O411   O     0.29275   0.42692   0.27302   0.00000  Uiso   1.00
O412   O     0.20724   0.07307   0.72698   0.00000  Uiso   1.00
O413   O     0.07307   0.29275   0.27302   0.00000  Uiso   1.00
O414   O     0.42692   0.20724   0.72698   0.00000  Uiso   1.00
O415   O     0.20724   0.42692   0.72698   0.00000  Uiso   1.00
O416   O    -0.00000   0.25000   0.25000   0.00000  Uiso   1.00
O417   O     0.29275   0.07307   0.27302   0.00000  Uiso   1.00
O418   O     0.42692   0.29275   0.72698   0.00000  Uiso   1.00
O419   O     0.07307   0.20724   0.27302   0.00000  Uiso   1.00
O420   O     0.29275   0.07307   0.72698   0.00000  Uiso   1.00
O421   O     0.20724   0.42692   0.27302   0.00000  Uiso   1.00
O422   O     0.07307   0.20724   0.72698   0.00000  Uiso   1.00
O423   O     0.42692   0.29275   0.27302   0.00000  Uiso   1.00
O424   O     0.45724   0.32307   0.77302   0.00000  Uiso   1.00
O425   O     0.04275   0.17692   0.22698   0.00000  Uiso   1.00
O426   O     0.17692   0.45724   0.77302   0.00000  Uiso   1.00
O427   O    -0.00000   0.25000   0.75000   0.00000  Uiso   1.00
O428   O     0.32307   0.04275   0.22698   0.00000  Uiso   1.00
O429   O     0.04275   0.17692   0.77302   0.00000  Uiso   1.00
O430   O     0.45724   0.32307   0.22698   0.00000  Uiso   1.00
O431   O     0.32307   0.04275   0.77302   0.00000  Uiso   1.00
O432   O     0.17692   0.45724   0.22698   0.00000  Uiso   1.00
O433   O     0.45724   0.17692   0.22698   0.00000  Uiso   1.00
O434   O     0.04275   0.32307   0.77302   0.00000  Uiso   1.00
O435   O     0.17692   0.04275   0.22698   0.00000  Uiso   1.00
O436   O     0.32307   0.45724   0.77302   0.00000  Uiso   1.00
O437   O     0.04275   0.32307   0.22698   0.00000  Uiso   1.00
O438   O     0.25000   0.46963   0.33755   0.00000  Uiso   1.00
O439   O     0.45724   0.17692   0.77302   0.00000  Uiso   1.00
O440   O     0.32307   0.45724   0.22698   0.00000  Uiso   1.00
O441   O     0.17692   0.04275   0.77302   0.00000  Uiso   1.00
O442   O     0.12213   0.42905   0.19324   0.00000  Uiso   1.00
O443   O     0.33783   0.10885   0.81880   0.00000  Uiso   1.00
O444   O     0.07097   0.12215   0.19323   0.00000  Uiso   1.00
O445   O     0.39118   0.33785   0.81881   0.00000  Uiso   1.00
O446   O     0.37787   0.07095   0.19324   0.00000  Uiso   1.00
O447   O     0.16217   0.39115   0.81880   0.00000  Uiso   1.00
O448   O     0.42905   0.37787   0.19324   0.00000  Uiso   1.00
O449   O     0.25000   0.03036   0.66245   0.00000  Uiso   1.00
O450   O     0.10882   0.16215   0.81881   0.00000  Uiso   1.00
O451   O     0.16158   0.10810   0.81904   0.00000  Uiso   1.00
O452   O     0.36454   0.41661   0.18332   0.00000  Uiso   1.00
O453   O     0.10812   0.33840   0.81904   0.00000  Uiso   1.00
O454   O     0.41661   0.13546   0.18332   0.00000  Uiso   1.00
O455   O     0.33842   0.39190   0.81904   0.00000  Uiso   1.00
O456   O     0.13547   0.08340   0.18331   0.00000  Uiso   1.00
O457   O     0.39188   0.16160   0.81904   0.00000  Uiso   1.00
O458   O     0.08339   0.36455   0.18332   0.00000  Uiso   1.00
O459   O     0.41160   0.14188   0.68096   0.00000  Uiso   1.00
O460   O     0.03036   0.25000   0.33755   0.00000  Uiso   1.00
O461   O     0.11454   0.33339   0.31668   0.00000  Uiso   1.00
O462   O     0.35810   0.41158   0.68095   0.00000  Uiso   1.00
O463   O     0.16660   0.11453   0.31668   0.00000  Uiso   1.00
O464   O     0.08840   0.35812   0.68096   0.00000  Uiso   1.00
O465   O     0.38546   0.16661   0.31668   0.00000  Uiso   1.00
O466   O     0.14190   0.08842   0.68095   0.00000  Uiso   1.00
O467   O     0.33339   0.38546   0.31668   0.00000  Uiso   1.00
O468   O     0.37214   0.32095   0.30676   0.00000  Uiso   1.00
O469   O     0.08785   0.14118   0.68119   0.00000  Uiso   1.00
O470   O     0.32095   0.12787   0.30676   0.00000  Uiso   1.00
O471   O     0.46963   0.25000   0.66245   0.00000  Uiso   1.00
O472   O     0.14115   0.41217   0.68120   0.00000  Uiso   1.00
O473   O     0.12785   0.17903   0.30677   0.00000  Uiso   1.00
O474   O     0.41214   0.35882   0.68119   0.00000  Uiso   1.00
O475   O     0.17905   0.37213   0.30675   0.00000  Uiso   1.00
O476   O     0.35885   0.08783   0.68120   0.00000  Uiso   1.00
O477   O     0.47228   0.30958   0.39749   0.00000  Uiso   1.00
O478   O     0.02275   0.18839   0.60286   0.00000  Uiso   1.00
O479   O     0.19040   0.47232   0.39749   0.00000  Uiso   1.00
O480   O     0.31162   0.02272   0.60286   0.00000  Uiso   1.00
O481   O     0.02772   0.19042   0.39749   0.00000  Uiso   1.00
O482   O     0.25000   0.03036   0.33755   0.00000  Uiso   1.00
O483   O     0.47725   0.31161   0.60286   0.00000  Uiso   1.00
O484   O     0.30960   0.02768   0.39749   0.00000  Uiso   1.00
O485   O     0.18838   0.47728   0.60286   0.00000  Uiso   1.00
O486   O     0.27272   0.06162   0.89714   0.00000  Uiso   1.00
O487   O     0.22232   0.44040   0.10251   0.00000  Uiso   1.00
O488   O     0.43839   0.27275   0.89714   0.00000  Uiso   1.00
O489   O     0.05958   0.22228   0.10251   0.00000  Uiso   1.00
O490   O     0.22728   0.43838   0.89714   0.00000  Uiso   1.00
O491   O     0.27768   0.05960   0.10251   0.00000  Uiso   1.00
O492   O     0.06161   0.22725   0.89714   0.00000  Uiso   1.00
Zn493  Zn    0.20659  -0.00000   0.21735   0.00000  Uiso   1.00
Zn494  Zn    0.04340   0.25000   0.28265   0.00000  Uiso   1.00
Zn495  Zn    0.25000   0.45659   0.71735   0.00000  Uiso   1.00
Zn496  Zn    0.25000   0.04340   0.28265   0.00000  Uiso   1.00
Zn497  Zn    0.04340   0.25000   0.71735   0.00000  Uiso   1.00
Zn498  Zn    0.45659   0.25000   0.28265   0.00000  Uiso   1.00
Zn499  Zn    0.25000   0.04340   0.71735   0.00000  Uiso   1.00
Zn500  Zn    0.25000   0.45659   0.28265   0.00000  Uiso   1.00
Zn501  Zn    0.29340  -0.00000   0.78265   0.00000  Uiso   1.00
Zn502  Zn    0.00000   0.20659   0.21735   0.00000  Uiso   1.00
Zn503  Zn   -0.00000   0.29340   0.78265   0.00000  Uiso   1.00
Zn504  Zn    0.29340  -0.00000   0.21735   0.00000  Uiso   1.00
Zn505  Zn    0.20659  -0.00000   0.78265   0.00000  Uiso   1.00
Zn506  Zn    0.00000   0.29340   0.21735   0.00000  Uiso   1.00
Zn507  Zn   -0.00000   0.20659   0.78265   0.00000  Uiso   1.00
Zn508  Zn    0.45659   0.25000   0.71735   0.00000  Uiso   1.00
C509   C     0.98502   0.27980   0.41824   0.00000  Uiso   1.00
C510   C     0.73504   0.47019   0.08176   0.00000  Uiso   1.00
C511   C     0.71878   0.48807   0.54126   0.00000  Uiso   1.00
C512   C     0.98682   0.28069   0.45917   0.00000  Uiso   1.00
C513   C     0.51195   0.21878   0.54126   0.00000  Uiso   1.00
C514   C     0.71930   0.48684   0.45917   0.00000  Uiso   1.00
C515   C     0.78122   0.01193   0.54126   0.00000  Uiso   1.00
C516   C     0.73807   0.46878   0.95874   0.00000  Uiso   1.00
C517   C     0.76316   0.03070   0.04083   0.00000  Uiso   1.00
C518   C     0.53121   0.23805   0.95874   0.00000  Uiso   1.00
C519   C     0.96931   0.26318   0.04083   0.00000  Uiso   1.00
C520   C     0.76193   0.03122   0.95874   0.00000  Uiso   1.00
C521   C     0.96860   0.26114   0.91787   0.00000  Uiso   1.00
C522   C     0.73684   0.46930   0.04083   0.00000  Uiso   1.00
C523   C     0.96878   0.26195   0.95874   0.00000  Uiso   1.00
C524   C     0.53069   0.23682   0.04083   0.00000  Uiso   1.00
C525   C     0.59799   0.34799   0.25000   0.00000  Uiso   1.00
C526   C     0.90191   0.15191   0.75000   0.00000  Uiso   1.00
C527   C     0.65201   0.09799   0.25000   0.00000  Uiso   1.00
C528   C     0.84809   0.40191   0.75000   0.00000  Uiso   1.00
C529   C     0.90201   0.15201   0.25000   0.00000  Uiso   1.00
C530   C     0.59809   0.34809   0.75000   0.00000  Uiso   1.00
C531   C     0.84799   0.40201   0.25000   0.00000  Uiso   1.00
C532   C     0.52980   0.23501   0.08176   0.00000  Uiso   1.00
C533   C     0.65191   0.09809   0.75000   0.00000  Uiso   1.00
C534   C     0.59812   0.15188   0.75000   0.00000  Uiso   1.00
C535   C     0.90170   0.34830   0.25000   0.00000  Uiso   1.00
C536   C     0.65188   0.40188   0.75000   0.00000  Uiso   1.00
C537   C     0.84830   0.09830   0.25000   0.00000  Uiso   1.00
C538   C     0.90188   0.34812   0.75000   0.00000  Uiso   1.00
C539   C     0.59830   0.15170   0.25000   0.00000  Uiso   1.00
C540   C     0.84812   0.09812   0.75000   0.00000  Uiso   1.00
C541   C     0.65170   0.40170   0.25000   0.00000  Uiso   1.00
C542   C     0.50000   0.25000   0.47966   0.00000  Uiso   1.00
C543   C     0.73888   0.46859   0.91787   0.00000  Uiso   1.00
C544   C     0.50000   0.25000   0.52076   0.00000  Uiso   1.00
C545   C     0.75000  -0.00000   0.47966   0.00000  Uiso   1.00
C546   C     0.75000  -0.00000   0.52076   0.00000  Uiso   1.00
C547   C     0.75000  -0.00000   0.97924   0.00000  Uiso   1.00
C548   C     0.75000  -0.00000   0.02034   0.00000  Uiso   1.00
C549   C     0.50000   0.25000   0.97924   0.00000  Uiso   1.00
C550   C     0.50000   0.25000   0.02034   0.00000  Uiso   1.00
C551   C     0.59900   0.45694   0.20732   0.00000  Uiso   1.00
C552   C     0.85410   0.08085   0.84113   0.00000  Uiso   1.00
C553   C     0.54308   0.09901   0.20728   0.00000  Uiso   1.00
C554   C     0.76496   0.02981   0.08176   0.00000  Uiso   1.00
C555   C     0.91918   0.35413   0.84112   0.00000  Uiso   1.00
C556   C     0.90100   0.04307   0.20732   0.00000  Uiso   1.00
C557   C     0.64590   0.41915   0.84113   0.00000  Uiso   1.00
C558   C     0.95693   0.40100   0.20731   0.00000  Uiso   1.00
C559   C     0.58082   0.14587   0.84112   0.00000  Uiso   1.00
C560   C     0.64341   0.08174   0.84201   0.00000  Uiso   1.00
C561   C     0.88635   0.44783   0.17797   0.00000  Uiso   1.00
C562   C     0.58177   0.35656   0.84202   0.00000  Uiso   1.00
C563   C     0.94783   0.11365   0.17797   0.00000  Uiso   1.00
C564   C     0.85659   0.41826   0.84201   0.00000  Uiso   1.00
C565   C     0.53140   0.23886   0.91787   0.00000  Uiso   1.00
C566   C     0.61366   0.05218   0.17796   0.00000  Uiso   1.00
C567   C     0.91822   0.14345   0.84202   0.00000  Uiso   1.00
C568   C     0.55217   0.38636   0.17797   0.00000  Uiso   1.00
C569   C     0.89345   0.16822   0.65798   0.00000  Uiso   1.00
C570   C     0.63635   0.30217   0.32203   0.00000  Uiso   1.00
C571   C     0.83174   0.39341   0.65799   0.00000  Uiso   1.00
C572   C     0.69782   0.13634   0.32204   0.00000  Uiso   1.00
C573   C     0.60656   0.33177   0.65798   0.00000  Uiso   1.00
C574   C     0.86365   0.19783   0.32203   0.00000  Uiso   1.00
C575   C     0.66826   0.10659   0.65799   0.00000  Uiso   1.00
C576   C     0.97020   0.26498   0.08176   0.00000  Uiso   1.00
C577   C     0.80217   0.36365   0.32203   0.00000  Uiso   1.00
C578   C     0.84900   0.29307   0.29269   0.00000  Uiso   1.00
C579   C     0.60413   0.16918   0.65888   0.00000  Uiso   1.00
C580   C     0.79306   0.15100   0.29268   0.00000  Uiso   1.00
C581   C     0.66915   0.39590   0.65887   0.00000  Uiso   1.00
C582   C     0.65100   0.20692   0.29271   0.00000  Uiso   1.00
C583   C     0.89587   0.33082   0.65888   0.00000  Uiso   1.00
C584   C     0.70693   0.34899   0.29268   0.00000  Uiso   1.00
C585   C     0.83085   0.10410   0.65887   0.00000  Uiso   1.00
C586   C     0.93380   0.30848   0.39615   0.00000  Uiso   1.00
C587   C     0.50000   0.25000   0.39815   0.00000  Uiso   1.00
C588   C     0.91982   0.34465   0.38065   0.00000  Uiso   1.00
C589   C     0.99238   0.16598   0.61077   0.00000  Uiso   1.00
C590   C     0.50338   0.13676   0.63986   0.00000  Uiso   1.00
C591   C     0.69148   0.43385   0.39614   0.00000  Uiso   1.00
C592   C     0.65531   0.41988   0.38059   0.00000  Uiso   1.00
C593   C     0.83402   0.49234   0.61077   0.00000  Uiso   1.00
C594   C     0.86324   0.00333   0.63987   0.00000  Uiso   1.00
C595   C     0.56620   0.19152   0.39615   0.00000  Uiso   1.00
C596   C     0.58019   0.15534   0.38067   0.00000  Uiso   1.00
C597   C     0.50762   0.33402   0.61077   0.00000  Uiso   1.00
C598   C     0.50000   0.25000   0.60212   0.00000  Uiso   1.00
C599   C     0.99662   0.36324   0.63987   0.00000  Uiso   1.00
C600   C     0.80852   0.06615   0.39614   0.00000  Uiso   1.00
C601   C     0.84468   0.08011   0.38059   0.00000  Uiso   1.00
C602   C     0.66598   0.00766   0.61077   0.00000  Uiso   1.00
C603   C     0.63675   0.49666   0.63986   0.00000  Uiso   1.00
C604   C     0.74234   0.08402   0.88923   0.00000  Uiso   1.00
C605   C     0.75333   0.11325   0.86014   0.00000  Uiso   1.00
C606   C     0.68385   0.44147   0.10386   0.00000  Uiso   1.00
C607   C     0.66989   0.40531   0.11942   0.00000  Uiso   1.00
C608   C     0.91598   0.24238   0.88923   0.00000  Uiso   1.00
C609   C     0.75000  -0.00000   0.39815   0.00000  Uiso   1.00
C610   C     0.88676   0.25338   0.86013   0.00000  Uiso   1.00
C611   C     0.55848   0.18380   0.10385   0.00000  Uiso   1.00
C612   C     0.59466   0.16981   0.11932   0.00000  Uiso   1.00
C613   C     0.75766   0.41598   0.88922   0.00000  Uiso   1.00
C614   C     0.74667   0.38676   0.86013   0.00000  Uiso   1.00
C615   C     0.81615   0.05853   0.10386   0.00000  Uiso   1.00
C616   C     0.83011   0.09469   0.11942   0.00000  Uiso   1.00
C617   C     0.58402   0.25762   0.88923   0.00000  Uiso   1.00
C618   C     0.61324   0.24662   0.86014   0.00000  Uiso   1.00
C619   C     0.94152   0.31619   0.10385   0.00000  Uiso   1.00
C620   C     0.51114   0.21860   0.58213   0.00000  Uiso   1.00
C621   C     0.75000  -0.00000   0.60212   0.00000  Uiso   1.00
C622   C     0.90535   0.33018   0.11936   0.00000  Uiso   1.00
C623   C     0.75000  -0.00000   0.89788   0.00000  Uiso   1.00
C624   C     0.75000  -0.00000   0.10185   0.00000  Uiso   1.00
C625   C     0.50000   0.25000   0.89788   0.00000  Uiso   1.00
C626   C     0.50000   0.25000   0.10185   0.00000  Uiso   1.00
C627   C     0.52445   0.18838   0.48000   0.00000  Uiso   1.00
C628   C     0.97595   0.31179   0.52051   0.00000  Uiso   1.00
C629   C     0.81163   0.02441   0.48000   0.00000  Uiso   1.00
C630   C     0.68819   0.47599   0.52051   0.00000  Uiso   1.00
C631   C     0.97555   0.31162   0.48000   0.00000  Uiso   1.00
C632   C     0.72019   0.48504   0.41824   0.00000  Uiso   1.00
C633   C     0.52405   0.18821   0.52051   0.00000  Uiso   1.00
C634   C     0.68837   0.47559   0.48000   0.00000  Uiso   1.00
C635   C     0.81181   0.02401   0.52051   0.00000  Uiso   1.00
C636   C     0.72599   0.43819   0.97949   0.00000  Uiso   1.00
C637   C     0.77441   0.06163   0.02000   0.00000  Uiso   1.00
C638   C     0.56179   0.22595   0.97949   0.00000  Uiso   1.00
C639   C     0.93838   0.27445   0.02000   0.00000  Uiso   1.00
C640   C     0.77401   0.06181   0.97949   0.00000  Uiso   1.00
C641   C     0.72559   0.43836   0.02000   0.00000  Uiso   1.00
C642   C     0.93821   0.27405   0.97949   0.00000  Uiso   1.00
C643   C     0.78140   0.01112   0.58213   0.00000  Uiso   1.00
C644   C     0.56162   0.22555   0.02000   0.00000  Uiso   1.00
C645   C     0.75000  -0.00000   0.35580   0.00000  Uiso   1.00
C646   C     0.75000  -0.00000   0.64431   0.00000  Uiso   1.00
C647   C     0.50000   0.25000   0.35580   0.00000  Uiso   1.00
C648   C     0.50000   0.25000   0.64431   0.00000  Uiso   1.00
C649   C     0.50000   0.25000   0.85569   0.00000  Uiso   1.00
C650   C     0.50000   0.25000   0.14420   0.00000  Uiso   1.00
C651   C     0.75000  -0.00000   0.85569   0.00000  Uiso   1.00
C652   C     0.75000  -0.00000   0.14420   0.00000  Uiso   1.00
C653   C     0.68000   0.07000   0.25000   0.00000  Uiso   1.00
C654   C     0.51498   0.22020   0.41824   0.00000  Uiso   1.00
C655   C     0.82003   0.42997   0.75000   0.00000  Uiso   1.00
C656   C     0.93000   0.18000   0.25000   0.00000  Uiso   1.00
C657   C     0.57003   0.32003   0.75000   0.00000  Uiso   1.00
C658   C     0.82000   0.43000   0.25000   0.00000  Uiso   1.00
C659   C     0.67997   0.07003   0.75000   0.00000  Uiso   1.00
C660   C     0.57000   0.32000   0.25000   0.00000  Uiso   1.00
C661   C     0.92997   0.17997   0.75000   0.00000  Uiso   1.00
C662   C     0.67996   0.42996   0.75000   0.00000  Uiso   1.00
C663   C     0.82011   0.07011   0.25000   0.00000  Uiso   1.00
C664   C     0.92996   0.32004   0.75000   0.00000  Uiso   1.00
C665   C     0.98886   0.28140   0.58213   0.00000  Uiso   1.00
C666   C     0.57011   0.17989   0.25000   0.00000  Uiso   1.00
C667   C     0.82004   0.07004   0.75000   0.00000  Uiso   1.00
C668   C     0.67989   0.42989   0.25000   0.00000  Uiso   1.00
C669   C     0.57004   0.17996   0.75000   0.00000  Uiso   1.00
C670   C     0.92989   0.32011   0.25000   0.00000  Uiso   1.00
C671   C     0.62419   0.40191   0.22109   0.00000  Uiso   1.00
C672   C     0.85784   0.11520   0.78526   0.00000  Uiso   1.00
C673   C     0.59810   0.12419   0.22108   0.00000  Uiso   1.00
C674   C     0.88481   0.35786   0.78526   0.00000  Uiso   1.00
C675   C     0.87581   0.09809   0.22109   0.00000  Uiso   1.00
C676   C     0.77981   0.01496   0.41824   0.00000  Uiso   1.00
C677   C     0.64215   0.38480   0.78526   0.00000  Uiso   1.00
C678   C     0.90191   0.37581   0.22109   0.00000  Uiso   1.00
C679   C     0.61519   0.14214   0.78526   0.00000  Uiso   1.00
C680   C     0.64205   0.11501   0.78530   0.00000  Uiso   1.00
C681   C     0.87249   0.39970   0.21853   0.00000  Uiso   1.00
C682   C     0.61502   0.35794   0.78529   0.00000  Uiso   1.00
C683   C     0.89970   0.12751   0.21853   0.00000  Uiso   1.00
C684   C     0.85795   0.38499   0.78530   0.00000  Uiso   1.00
C685   C     0.62752   0.10031   0.21853   0.00000  Uiso   1.00
C686   C     0.88498   0.14206   0.78529   0.00000  Uiso   1.00
C687   C     0.71859   0.48888   0.58213   0.00000  Uiso   1.00
C688   C     0.60030   0.37249   0.21853   0.00000  Uiso   1.00
C689   C     0.89206   0.13498   0.71471   0.00000  Uiso   1.00
C690   C     0.62249   0.35030   0.28147   0.00000  Uiso   1.00
C691   C     0.86501   0.39205   0.71470   0.00000  Uiso   1.00
C692   C     0.64969   0.12248   0.28147   0.00000  Uiso   1.00
C693   C     0.60794   0.36502   0.71471   0.00000  Uiso   1.00
C694   C     0.87751   0.14970   0.28147   0.00000  Uiso   1.00
C695   C     0.63499   0.10795   0.71470   0.00000  Uiso   1.00
C696   C     0.85030   0.37751   0.28147   0.00000  Uiso   1.00
C697   C     0.87419   0.34809   0.27891   0.00000  Uiso   1.00
C698   C     0.76112   0.03140   0.91787   0.00000  Uiso   1.00
C699   C     0.60786   0.13481   0.71474   0.00000  Uiso   1.00
C700   C     0.84809   0.12581   0.27891   0.00000  Uiso   1.00
C701   C     0.63480   0.39215   0.71474   0.00000  Uiso   1.00
C702   C     0.62581   0.15190   0.27891   0.00000  Uiso   1.00
C703   C     0.89214   0.36519   0.71474   0.00000  Uiso   1.00
C704   C     0.65191   0.37419   0.27891   0.00000  Uiso   1.00
C705   C     0.86520   0.10784   0.71474   0.00000  Uiso   1.00
C706   C     0.51318   0.21931   0.45917   0.00000  Uiso   1.00
C707   C     0.98805   0.28122   0.54126   0.00000  Uiso   1.00
C708   C     0.78070   0.01316   0.45917   0.00000  Uiso   1.00
H709   H     0.53371   0.16410   0.46511   0.00000  Uiso   1.00
H710   H     0.78364   0.08592   0.03489   0.00000  Uiso   1.00
H711   H     0.68955   0.41704   0.65145   0.00000  Uiso   1.00
H712   H     0.63725   0.22373   0.27023   0.00000  Uiso   1.00
H713   H     0.67686   0.19644   0.28017   0.00000  Uiso   1.00
H714   H     0.65828   0.22489   0.31747   0.00000  Uiso   1.00
H715   H     0.88581   0.34234   0.63102   0.00000  Uiso   1.00
H716   H     0.87308   0.31611   0.67358   0.00000  Uiso   1.00
H717   H     0.91701   0.31042   0.65145   0.00000  Uiso   1.00
H718   H     0.72373   0.36275   0.27020   0.00000  Uiso   1.00
H719   H     0.69644   0.32313   0.28014   0.00000  Uiso   1.00
H720   H     0.72491   0.34171   0.31743   0.00000  Uiso   1.00
H721   H     0.58602   0.21664   0.96452   0.00000  Uiso   1.00
H722   H     0.84238   0.11414   0.63102   0.00000  Uiso   1.00
H723   H     0.81613   0.12689   0.67356   0.00000  Uiso   1.00
H724   H     0.81046   0.08295   0.65145   0.00000  Uiso   1.00
H725   H     0.92144   0.30401   0.42542   0.00000  Uiso   1.00
H726   H     0.92436   0.28646   0.37639   0.00000  Uiso   1.00
H727   H     0.93046   0.34945   0.35077   0.00000  Uiso   1.00
H728   H     0.88960   0.34439   0.37977   0.00000  Uiso   1.00
H729   H     0.92886   0.36716   0.39997   0.00000  Uiso   1.00
H730   H     0.98281   0.15250   0.58358   0.00000  Uiso   1.00
H731   H     0.96939   0.18162   0.62371   0.00000  Uiso   1.00
H732   H     0.91410   0.28370   0.03489   0.00000  Uiso   1.00
H733   H     0.51182   0.14960   0.66776   0.00000  Uiso   1.00
H734   H     0.97998   0.11837   0.64554   0.00000  Uiso   1.00
H735   H     0.52636   0.12049   0.62807   0.00000  Uiso   1.00
H736   H     0.69591   0.42148   0.42542   0.00000  Uiso   1.00
H737   H     0.71352   0.42439   0.37641   0.00000  Uiso   1.00
H738   H     0.65056   0.43053   0.35070   0.00000  Uiso   1.00
H739   H     0.65555   0.38967   0.37971   0.00000  Uiso   1.00
H740   H     0.63279   0.42894   0.39988   0.00000  Uiso   1.00
H741   H     0.84749   0.48277   0.58359   0.00000  Uiso   1.00
H742   H     0.81836   0.46936   0.62372   0.00000  Uiso   1.00
H743   H     0.78330   0.08604   0.96452   0.00000  Uiso   1.00
H744   H     0.85040   0.01179   0.66777   0.00000  Uiso   1.00
H745   H     0.88162   0.47993   0.64555   0.00000  Uiso   1.00
H746   H     0.87952   0.02631   0.62807   0.00000  Uiso   1.00
H747   H     0.57856   0.19601   0.42542   0.00000  Uiso   1.00
H748   H     0.57564   0.21353   0.37637   0.00000  Uiso   1.00
H749   H     0.56954   0.15052   0.35080   0.00000  Uiso   1.00
H750   H     0.61040   0.15560   0.37979   0.00000  Uiso   1.00
H751   H     0.57115   0.13284   0.40001   0.00000  Uiso   1.00
H752   H     0.51718   0.34750   0.58358   0.00000  Uiso   1.00
H753   H     0.53061   0.31838   0.62371   0.00000  Uiso   1.00
H754   H     0.71636   0.41407   0.03489   0.00000  Uiso   1.00
H755   H     0.98818   0.35039   0.66777   0.00000  Uiso   1.00
H756   H     0.52002   0.38162   0.64555   0.00000  Uiso   1.00
H757   H     0.97364   0.37950   0.62808   0.00000  Uiso   1.00
H758   H     0.80409   0.07852   0.42542   0.00000  Uiso   1.00
H759   H     0.78648   0.07561   0.37641   0.00000  Uiso   1.00
H760   H     0.84944   0.06947   0.35070   0.00000  Uiso   1.00
H761   H     0.84445   0.11033   0.37971   0.00000  Uiso   1.00
H762   H     0.86721   0.07105   0.39988   0.00000  Uiso   1.00
H763   H     0.65251   0.01724   0.58359   0.00000  Uiso   1.00
H764   H     0.68164   0.03064   0.62372   0.00000  Uiso   1.00
H765   H     0.91398   0.28335   0.96452   0.00000  Uiso   1.00
H766   H     0.64959   0.48821   0.66776   0.00000  Uiso   1.00
H767   H     0.61838   0.02007   0.64554   0.00000  Uiso   1.00
H768   H     0.62048   0.47369   0.62806   0.00000  Uiso   1.00
H769   H     0.73276   0.09749   0.91641   0.00000  Uiso   1.00
H770   H     0.71936   0.06836   0.87627   0.00000  Uiso   1.00
H771   H     0.76179   0.10042   0.83224   0.00000  Uiso   1.00
H772   H     0.72993   0.13162   0.85446   0.00000  Uiso   1.00
H773   H     0.77631   0.12952   0.87195   0.00000  Uiso   1.00
H774   H     0.67148   0.44590   0.07458   0.00000  Uiso   1.00
H775   H     0.67440   0.46352   0.12359   0.00000  Uiso   1.00
H776   H     0.58590   0.21629   0.03489   0.00000  Uiso   1.00
H777   H     0.68053   0.40056   0.14930   0.00000  Uiso   1.00
H778   H     0.63967   0.40555   0.12029   0.00000  Uiso   1.00
H779   H     0.67895   0.38278   0.10013   0.00000  Uiso   1.00
H780   H     0.90250   0.23281   0.91642   0.00000  Uiso   1.00
H781   H     0.93162   0.21939   0.87629   0.00000  Uiso   1.00
H782   H     0.89961   0.26182   0.83223   0.00000  Uiso   1.00
H783   H     0.86838   0.22998   0.85445   0.00000  Uiso   1.00
H784   H     0.87050   0.27636   0.87193   0.00000  Uiso   1.00
H785   H     0.55398   0.17144   0.07458   0.00000  Uiso   1.00
H786   H     0.53647   0.17436   0.12363   0.00000  Uiso   1.00
H787   H     0.61275   0.47373   0.22980   0.00000  Uiso   1.00
H788   H     0.59949   0.18045   0.14919   0.00000  Uiso   1.00
H789   H     0.59440   0.13960   0.12020   0.00000  Uiso   1.00
H790   H     0.61716   0.17885   0.09997   0.00000  Uiso   1.00
H791   H     0.76724   0.40251   0.91641   0.00000  Uiso   1.00
H792   H     0.78064   0.43164   0.87628   0.00000  Uiso   1.00
H793   H     0.73821   0.39960   0.83223   0.00000  Uiso   1.00
H794   H     0.77007   0.36838   0.85445   0.00000  Uiso   1.00
H795   H     0.72369   0.37048   0.87193   0.00000  Uiso   1.00
H796   H     0.82852   0.05410   0.07458   0.00000  Uiso   1.00
H797   H     0.82560   0.03648   0.12359   0.00000  Uiso   1.00
H798   H     0.57313   0.44645   0.21986   0.00000  Uiso   1.00
H799   H     0.81947   0.09944   0.14930   0.00000  Uiso   1.00
H800   H     0.86033   0.09445   0.12029   0.00000  Uiso   1.00
H801   H     0.82105   0.11722   0.10013   0.00000  Uiso   1.00
H802   H     0.59750   0.26719   0.91642   0.00000  Uiso   1.00
H803   H     0.56838   0.28061   0.87629   0.00000  Uiso   1.00
H804   H     0.60040   0.23818   0.83224   0.00000  Uiso   1.00
H805   H     0.63162   0.27002   0.85446   0.00000  Uiso   1.00
H806   H     0.62950   0.22364   0.87193   0.00000  Uiso   1.00
H807   H     0.94598   0.32856   0.07458   0.00000  Uiso   1.00
H808   H     0.96355   0.32563   0.12360   0.00000  Uiso   1.00
H809   H     0.59171   0.47491   0.18257   0.00000  Uiso   1.00
H810   H     0.90056   0.31954   0.14924   0.00000  Uiso   1.00
H811   H     0.90560   0.36039   0.12024   0.00000  Uiso   1.00
H812   H     0.88283   0.32113   0.10005   0.00000  Uiso   1.00
H813   H     0.96664   0.33602   0.53548   0.00000  Uiso   1.00
H814   H     0.86415   0.09238   0.86898   0.00000  Uiso   1.00
H815   H     0.87688   0.06613   0.82643   0.00000  Uiso   1.00
H816   H     0.83295   0.06046   0.84856   0.00000  Uiso   1.00
H817   H     0.52627   0.11275   0.22977   0.00000  Uiso   1.00
H818   H     0.55356   0.07314   0.21982   0.00000  Uiso   1.00
H819   H     0.52511   0.09172   0.18252   0.00000  Uiso   1.00
H820   H     0.90766   0.36419   0.86898   0.00000  Uiso   1.00
H821   H     0.93389   0.37692   0.82641   0.00000  Uiso   1.00
H822   H     0.93958   0.33299   0.84855   0.00000  Uiso   1.00
H823   H     0.88725   0.02627   0.22980   0.00000  Uiso   1.00
H824   H     0.83592   0.03364   0.46511   0.00000  Uiso   1.00
H825   H     0.92687   0.05355   0.21986   0.00000  Uiso   1.00
H826   H     0.90829   0.02509   0.18256   0.00000  Uiso   1.00
H827   H     0.63585   0.40762   0.86898   0.00000  Uiso   1.00
H828   H     0.62311   0.43387   0.82643   0.00000  Uiso   1.00
H829   H     0.66704   0.43955   0.84855   0.00000  Uiso   1.00
H830   H     0.97373   0.38725   0.22980   0.00000  Uiso   1.00
H831   H     0.94644   0.42687   0.21986   0.00000  Uiso   1.00
H832   H     0.97491   0.40829   0.18256   0.00000  Uiso   1.00
H833   H     0.59234   0.13581   0.86898   0.00000  Uiso   1.00
H834   H     0.56611   0.12308   0.82641   0.00000  Uiso   1.00
H835   H     0.66396   0.46670   0.53548   0.00000  Uiso   1.00
H836   H     0.56042   0.16701   0.84855   0.00000  Uiso   1.00
H837   H     0.66004   0.05659   0.84324   0.00000  Uiso   1.00
H838   H     0.61554   0.07427   0.83181   0.00000  Uiso   1.00
H839   H     0.64124   0.09212   0.87229   0.00000  Uiso   1.00
H840   H     0.91084   0.44089   0.16060   0.00000  Uiso   1.00
H841   H     0.89415   0.46139   0.20581   0.00000  Uiso   1.00
H842   H     0.87056   0.46794   0.16075   0.00000  Uiso   1.00
H843   H     0.55662   0.33993   0.84325   0.00000  Uiso   1.00
H844   H     0.57430   0.38443   0.83183   0.00000  Uiso   1.00
H845   H     0.59216   0.35871   0.87230   0.00000  Uiso   1.00
H846   H     0.96630   0.33590   0.46511   0.00000  Uiso   1.00
H847   H     0.94089   0.08916   0.16060   0.00000  Uiso   1.00
H848   H     0.96139   0.10585   0.20581   0.00000  Uiso   1.00
H849   H     0.96794   0.12944   0.16075   0.00000  Uiso   1.00
H850   H     0.83996   0.44340   0.84324   0.00000  Uiso   1.00
H851   H     0.88446   0.42573   0.83181   0.00000  Uiso   1.00
H852   H     0.85876   0.40788   0.87229   0.00000  Uiso   1.00
H853   H     0.58917   0.05912   0.16057   0.00000  Uiso   1.00
H854   H     0.60586   0.03861   0.20579   0.00000  Uiso   1.00
H855   H     0.62946   0.03208   0.16074   0.00000  Uiso   1.00
H856   H     0.92569   0.11557   0.83184   0.00000  Uiso   1.00
H857   H     0.53336   0.16398   0.53548   0.00000  Uiso   1.00
H858   H     0.90784   0.14130   0.87230   0.00000  Uiso   1.00
H859   H     0.94338   0.16007   0.84324   0.00000  Uiso   1.00
H860   H     0.55910   0.41085   0.16060   0.00000  Uiso   1.00
H861   H     0.53861   0.39415   0.20581   0.00000  Uiso   1.00
H862   H     0.53206   0.37056   0.16075   0.00000  Uiso   1.00
H863   H     0.91008   0.19337   0.65675   0.00000  Uiso   1.00
H864   H     0.86557   0.17570   0.66816   0.00000  Uiso   1.00
H865   H     0.89129   0.15784   0.62770   0.00000  Uiso   1.00
H866   H     0.66084   0.30910   0.33940   0.00000  Uiso   1.00
H867   H     0.64415   0.28861   0.29419   0.00000  Uiso   1.00
H868   H     0.66408   0.46636   0.46511   0.00000  Uiso   1.00
H869   H     0.62056   0.28206   0.33925   0.00000  Uiso   1.00
H870   H     0.80660   0.41004   0.65676   0.00000  Uiso   1.00
H871   H     0.82427   0.36554   0.66819   0.00000  Uiso   1.00
H872   H     0.84212   0.39124   0.62771   0.00000  Uiso   1.00
H873   H     0.69088   0.16083   0.33942   0.00000  Uiso   1.00
H874   H     0.71138   0.14414   0.29421   0.00000  Uiso   1.00
H875   H     0.71792   0.12054   0.33926   0.00000  Uiso   1.00
H876   H     0.63443   0.32429   0.66817   0.00000  Uiso   1.00
H877   H     0.60872   0.34215   0.62770   0.00000  Uiso   1.00
H878   H     0.58992   0.30662   0.65675   0.00000  Uiso   1.00
H879   H     0.83604   0.03330   0.53548   0.00000  Uiso   1.00
H880   H     0.83915   0.19089   0.33940   0.00000  Uiso   1.00
H881   H     0.85585   0.21139   0.29419   0.00000  Uiso   1.00
H882   H     0.87944   0.21794   0.33925   0.00000  Uiso   1.00
H883   H     0.69340   0.08996   0.65676   0.00000  Uiso   1.00
H884   H     0.67573   0.13446   0.66819   0.00000  Uiso   1.00
H885   H     0.65788   0.10876   0.62771   0.00000  Uiso   1.00
H886   H     0.80911   0.33916   0.33941   0.00000  Uiso   1.00
H887   H     0.78861   0.35585   0.29419   0.00000  Uiso   1.00
H888   H     0.78206   0.37944   0.33925   0.00000  Uiso   1.00
H889   H     0.86275   0.27627   0.27020   0.00000  Uiso   1.00
H890   H     0.71670   0.41396   0.96452   0.00000  Uiso   1.00
H891   H     0.82313   0.30356   0.28015   0.00000  Uiso   1.00
H892   H     0.84171   0.27509   0.31744   0.00000  Uiso   1.00
H893   H     0.61418   0.15766   0.63102   0.00000  Uiso   1.00
H894   H     0.62692   0.18389   0.67358   0.00000  Uiso   1.00
H895   H     0.58299   0.18958   0.65145   0.00000  Uiso   1.00
H896   H     0.77627   0.13725   0.27019   0.00000  Uiso   1.00
H897   H     0.80355   0.17687   0.28014   0.00000  Uiso   1.00
H898   H     0.77509   0.15829   0.31743   0.00000  Uiso   1.00
H899   H     0.65762   0.38585   0.63102   0.00000  Uiso   1.00
H900   H     0.68387   0.37311   0.67356   0.00000  Uiso   1.00
O901   O     0.75000  -0.00000   0.25000   0.00000  Uiso   1.00
O902   O     0.75000   0.46963   0.66245   0.00000  Uiso   1.00
O903   O     0.94042   0.27772   0.10251   0.00000  Uiso   1.00
O904   O     0.96963   0.25000   0.33755   0.00000  Uiso   1.00
O905   O     0.53036   0.25000   0.66245   0.00000  Uiso   1.00
O906   O     0.50000   0.21963   0.83755   0.00000  Uiso   1.00
O907   O     0.50000   0.28036   0.16245   0.00000  Uiso   1.00
O908   O     0.78036  -0.00000   0.83755   0.00000  Uiso   1.00
O909   O     0.71963  -0.00000   0.16245   0.00000  Uiso   1.00
O910   O     0.50000   0.28036   0.83755   0.00000  Uiso   1.00
O911   O     0.50000   0.21963   0.16245   0.00000  Uiso   1.00
O912   O     0.71963  -0.00000   0.83755   0.00000  Uiso   1.00
O913   O     0.75000  -0.00000   0.75000   0.00000  Uiso   1.00
O914   O     0.78036  -0.00000   0.16245   0.00000  Uiso   1.00
O915   O     0.70724   0.07307   0.27302   0.00000  Uiso   1.00
O916   O     0.79275   0.42692   0.72698   0.00000  Uiso   1.00
O917   O     0.92692   0.20724   0.27302   0.00000  Uiso   1.00
O918   O     0.57307   0.29275   0.72698   0.00000  Uiso   1.00
O919   O     0.79275   0.42692   0.27302   0.00000  Uiso   1.00
O920   O     0.70724   0.07307   0.72698   0.00000  Uiso   1.00
O921   O     0.57307   0.29275   0.27302   0.00000  Uiso   1.00
O922   O     0.92692   0.20724   0.72698   0.00000  Uiso   1.00
O923   O     0.70724   0.42692   0.72698   0.00000  Uiso   1.00
O924   O     0.50000   0.25000   0.25000   0.00000  Uiso   1.00
O925   O     0.79275   0.07307   0.27302   0.00000  Uiso   1.00
O926   O     0.92692   0.29275   0.72698   0.00000  Uiso   1.00
O927   O     0.57307   0.20724   0.27302   0.00000  Uiso   1.00
O928   O     0.79275   0.07307   0.72698   0.00000  Uiso   1.00
O929   O     0.70724   0.42692   0.27302   0.00000  Uiso   1.00
O930   O     0.57307   0.20724   0.72698   0.00000  Uiso   1.00
O931   O     0.92692   0.29275   0.27302   0.00000  Uiso   1.00
O932   O     0.95724   0.32307   0.77302   0.00000  Uiso   1.00
O933   O     0.54275   0.17692   0.22698   0.00000  Uiso   1.00
O934   O     0.67692   0.45724   0.77302   0.00000  Uiso   1.00
O935   O     0.50000   0.25000   0.75000   0.00000  Uiso   1.00
O936   O     0.82307   0.04275   0.22698   0.00000  Uiso   1.00
O937   O     0.54275   0.17692   0.77302   0.00000  Uiso   1.00
O938   O     0.95724   0.32307   0.22698   0.00000  Uiso   1.00
O939   O     0.82307   0.04275   0.77302   0.00000  Uiso   1.00
O940   O     0.67692   0.45724   0.22698   0.00000  Uiso   1.00
O941   O     0.95724   0.17692   0.22698   0.00000  Uiso   1.00
O942   O     0.54275   0.32307   0.77302   0.00000  Uiso   1.00
O943   O     0.67692   0.04275   0.22698   0.00000  Uiso   1.00
O944   O     0.82307   0.45724   0.77302   0.00000  Uiso   1.00
O945   O     0.54275   0.32307   0.22698   0.00000  Uiso   1.00
O946   O     0.75000   0.46963   0.33755   0.00000  Uiso   1.00
O947   O     0.95724   0.17692   0.77302   0.00000  Uiso   1.00
O948   O     0.82307   0.45724   0.22698   0.00000  Uiso   1.00
O949   O     0.67692   0.04275   0.77302   0.00000  Uiso   1.00
O950   O     0.62213   0.42905   0.19324   0.00000  Uiso   1.00
O951   O     0.83783   0.10885   0.81880   0.00000  Uiso   1.00
O952   O     0.57097   0.12215   0.19323   0.00000  Uiso   1.00
O953   O     0.89118   0.33785   0.81881   0.00000  Uiso   1.00
O954   O     0.87787   0.07095   0.19324   0.00000  Uiso   1.00
O955   O     0.66217   0.39115   0.81880   0.00000  Uiso   1.00
O956   O     0.92905   0.37787   0.19324   0.00000  Uiso   1.00
O957   O     0.75000   0.03036   0.66245   0.00000  Uiso   1.00
O958   O     0.60882   0.16215   0.81881   0.00000  Uiso   1.00
O959   O     0.66158   0.10810   0.81904   0.00000  Uiso   1.00
O960   O     0.86454   0.41661   0.18332   0.00000  Uiso   1.00
O961   O     0.60812   0.33840   0.81904   0.00000  Uiso   1.00
O962   O     0.91661   0.13546   0.18332   0.00000  Uiso   1.00
O963   O     0.83842   0.39190   0.81904   0.00000  Uiso   1.00
O964   O     0.63547   0.08340   0.18331   0.00000  Uiso   1.00
O965   O     0.89188   0.16160   0.81904   0.00000  Uiso   1.00
O966   O     0.58339   0.36455   0.18332   0.00000  Uiso   1.00
O967   O     0.91160   0.14188   0.68096   0.00000  Uiso   1.00
O968   O     0.53036   0.25000   0.33755   0.00000  Uiso   1.00
O969   O     0.61454   0.33339   0.31668   0.00000  Uiso   1.00
O970   O     0.85810   0.41158   0.68095   0.00000  Uiso   1.00
O971   O     0.66660   0.11453   0.31668   0.00000  Uiso   1.00
O972   O     0.58840   0.35812   0.68096   0.00000  Uiso   1.00
O973   O     0.88546   0.16661   0.31668   0.00000  Uiso   1.00
O974   O     0.64190   0.08842   0.68095   0.00000  Uiso   1.00
O975   O     0.83339   0.38546   0.31668   0.00000  Uiso   1.00
O976   O     0.87214   0.32095   0.30676   0.00000  Uiso   1.00
O977   O     0.58785   0.14118   0.68119   0.00000  Uiso   1.00
O978   O     0.82095   0.12787   0.30676   0.00000  Uiso   1.00
O979   O     0.96963   0.25000   0.66245   0.00000  Uiso   1.00
O980   O     0.64115   0.41217   0.68120   0.00000  Uiso   1.00
O981   O     0.62785   0.17903   0.30677   0.00000  Uiso   1.00
O982   O     0.91214   0.35882   0.68119   0.00000  Uiso   1.00
O983   O     0.67905   0.37213   0.30675   0.00000  Uiso   1.00
O984   O     0.85885   0.08783   0.68120   0.00000  Uiso   1.00
O985   O     0.97228   0.30958   0.39749   0.00000  Uiso   1.00
O986   O     0.52275   0.18839   0.60286   0.00000  Uiso   1.00
O987   O     0.69040   0.47232   0.39749   0.00000  Uiso   1.00
O988   O     0.81162   0.02272   0.60286   0.00000  Uiso   1.00
O989   O     0.52772   0.19042   0.39749   0.00000  Uiso   1.00
O990   O     0.75000   0.03036   0.33755   0.00000  Uiso   1.00
O991   O     0.97725   0.31161   0.60286   0.00000  Uiso   1.00
O992   O     0.80960   0.02768   0.39749   0.00000  Uiso   1.00
O993   O     0.68838   0.47728   0.60286   0.00000  Uiso   1.00
O994   O     0.77272   0.06162   0.89714   0.00000  Uiso   1.00
O995   O     0.72232   0.44040   0.10251   0.00000  Uiso   1.00
O996   O     0.93839   0.27275   0.89714   0.00000  Uiso   1.00
O997   O     0.55958   0.22228   0.10251   0.00000  Uiso   1.00
O998   O     0.72728   0.43838   0.89714   0.00000  Uiso   1.00
O999   O     0.77768   0.05960   0.10251   0.00000  Uiso   1.00
O1000  O     0.56161   0.22725   0.89714   0.00000  Uiso   1.00
Zn1001 Zn    0.70659  -0.00000   0.21735   0.00000  Uiso   1.00
Zn1002 Zn    0.54340   0.25000   0.28265   0.00000  Uiso   1.00
Zn1003 Zn    0.75000   0.45659   0.71735   0.00000  Uiso   1.00
Zn1004 Zn    0.75000   0.04340   0.28265   0.00000  Uiso   1.00
Zn1005 Zn    0.54340   0.25000   0.71735   0.00000  Uiso   1.00
Zn1006 Zn    0.95659   0.25000   0.28265   0.00000  Uiso   1.00
Zn1007 Zn    0.75000   0.04340   0.71735   0.00000  Uiso   1.00
Zn1008 Zn    0.75000   0.45659   0.28265   0.00000  Uiso   1.00
Zn1009 Zn    0.79340  -0.00000   0.78265   0.00000  Uiso   1.00
Zn1010 Zn    0.50000   0.20659   0.21735   0.00000  Uiso   1.00
Zn1011 Zn    0.50000   0.29340   0.78265   0.00000  Uiso   1.00
Zn1012 Zn    0.79340  -0.00000   0.21735   0.00000  Uiso   1.00
Zn1013 Zn    0.70659  -0.00000   0.78265   0.00000  Uiso   1.00
Zn1014 Zn    0.50000   0.29340   0.21735   0.00000  Uiso   1.00
Zn1015 Zn    0.50000   0.20659   0.78265   0.00000  Uiso   1.00
Zn1016 Zn    0.95659   0.25000   0.71735   0.00000  Uiso   1.00
C1017  C     0.48502   0.77980   0.41824   0.00000  Uiso   1.00
C1018  C     0.23504   0.97019   0.08176   0.00000  Uiso   1.00
C1019  C     0.21878   0.98807   0.54126   0.00000  Uiso   1.00
C1020  C     0.48682   0.78069   0.45917   0.00000  Uiso   1.00
C1021  C     0.01195   0.71878   0.54126   0.00000  Uiso   1.00
C1022  C     0.21930   0.98684   0.45917   0.00000  Uiso   1.00
C1023  C     0.28122   0.51193   0.54126   0.00000  Uiso   1.00
C1024  C     0.23807   0.96878   0.95874   0.00000  Uiso   1.00
C1025  C     0.26316   0.53070   0.04083   0.00000  Uiso   1.00
C1026  C     0.03121   0.73805   0.95874   0.00000  Uiso   1.00
C1027  C     0.46931   0.76318   0.04083   0.00000  Uiso   1.00
C1028  C     0.26193   0.53122   0.95874   0.00000  Uiso   1.00
C1029  C     0.46860   0.76114   0.91787   0.00000  Uiso   1.00
C1030  C     0.23684   0.96930   0.04083   0.00000  Uiso   1.00
C1031  C     0.46878   0.76195   0.95874   0.00000  Uiso   1.00
C1032  C     0.03069   0.73682   0.04083   0.00000  Uiso   1.00
C1033  C     0.09799   0.84799   0.25000   0.00000  Uiso   1.00
C1034  C     0.40191   0.65191   0.75000   0.00000  Uiso   1.00
C1035  C     0.15201   0.59799   0.25000   0.00000  Uiso   1.00
C1036  C     0.34809   0.90191   0.75000   0.00000  Uiso   1.00
C1037  C     0.40201   0.65201   0.25000   0.00000  Uiso   1.00
C1038  C     0.09809   0.84809   0.75000   0.00000  Uiso   1.00
C1039  C     0.34799   0.90201   0.25000   0.00000  Uiso   1.00
C1040  C     0.02980   0.73501   0.08176   0.00000  Uiso   1.00
C1041  C     0.15191   0.59809   0.75000   0.00000  Uiso   1.00
C1042  C     0.09812   0.65188   0.75000   0.00000  Uiso   1.00
C1043  C     0.40170   0.84830   0.25000   0.00000  Uiso   1.00
C1044  C     0.15188   0.90188   0.75000   0.00000  Uiso   1.00
C1045  C     0.34830   0.59830   0.25000   0.00000  Uiso   1.00
C1046  C     0.40188   0.84812   0.75000   0.00000  Uiso   1.00
C1047  C     0.09830   0.65170   0.25000   0.00000  Uiso   1.00
C1048  C     0.34812   0.59812   0.75000   0.00000  Uiso   1.00
C1049  C     0.15170   0.90170   0.25000   0.00000  Uiso   1.00
C1050  C     0.00000   0.75000   0.47966   0.00000  Uiso   1.00
C1051  C     0.23888   0.96859   0.91787   0.00000  Uiso   1.00
C1052  C     0.00000   0.75000   0.52076   0.00000  Uiso   1.00
C1053  C     0.25000   0.50000   0.47966   0.00000  Uiso   1.00
C1054  C     0.25000   0.50000   0.52076   0.00000  Uiso   1.00
C1055  C     0.25000   0.50000   0.97924   0.00000  Uiso   1.00
C1056  C     0.25000   0.50000   0.02034   0.00000  Uiso   1.00
C1057  C    -0.00000   0.75000   0.97924   0.00000  Uiso   1.00
C1058  C    -0.00000   0.75000   0.02034   0.00000  Uiso   1.00
C1059  C     0.09900   0.95694   0.20732   0.00000  Uiso   1.00
C1060  C     0.35410   0.58085   0.84113   0.00000  Uiso   1.00
C1061  C     0.04308   0.59901   0.20728   0.00000  Uiso   1.00
C1062  C     0.26496   0.52981   0.08176   0.00000  Uiso   1.00
C1063  C     0.41918   0.85413   0.84112   0.00000  Uiso   1.00
C1064  C     0.40100   0.54307   0.20732   0.00000  Uiso   1.00
C1065  C     0.14590   0.91915   0.84113   0.00000  Uiso   1.00
C1066  C     0.45693   0.90100   0.20731   0.00000  Uiso   1.00
C1067  C     0.08082   0.64587   0.84112   0.00000  Uiso   1.00
C1068  C     0.14341   0.58174   0.84201   0.00000  Uiso   1.00
C1069  C     0.38635   0.94783   0.17797   0.00000  Uiso   1.00
C1070  C     0.08177   0.85656   0.84202   0.00000  Uiso   1.00
C1071  C     0.44783   0.61365   0.17797   0.00000  Uiso   1.00
C1072  C     0.35659   0.91826   0.84201   0.00000  Uiso   1.00
C1073  C     0.03140   0.73886   0.91787   0.00000  Uiso   1.00
C1074  C     0.11366   0.55218   0.17796   0.00000  Uiso   1.00
C1075  C     0.41822   0.64345   0.84202   0.00000  Uiso   1.00
C1076  C     0.05217   0.88636   0.17797   0.00000  Uiso   1.00
C1077  C     0.39345   0.66822   0.65798   0.00000  Uiso   1.00
C1078  C     0.13635   0.80217   0.32203   0.00000  Uiso   1.00
C1079  C     0.33174   0.89341   0.65799   0.00000  Uiso   1.00
C1080  C     0.19782   0.63634   0.32204   0.00000  Uiso   1.00
C1081  C     0.10656   0.83177   0.65798   0.00000  Uiso   1.00
C1082  C     0.36365   0.69783   0.32203   0.00000  Uiso   1.00
C1083  C     0.16826   0.60659   0.65799   0.00000  Uiso   1.00
C1084  C     0.47020   0.76498   0.08176   0.00000  Uiso   1.00
C1085  C     0.30217   0.86365   0.32203   0.00000  Uiso   1.00
C1086  C     0.34900   0.79307   0.29269   0.00000  Uiso   1.00
C1087  C     0.10413   0.66918   0.65888   0.00000  Uiso   1.00
C1088  C     0.29306   0.65100   0.29268   0.00000  Uiso   1.00
C1089  C     0.16915   0.89590   0.65887   0.00000  Uiso   1.00
C1090  C     0.15100   0.70692   0.29271   0.00000  Uiso   1.00
C1091  C     0.39587   0.83082   0.65888   0.00000  Uiso   1.00
C1092  C     0.20693   0.84899   0.29268   0.00000  Uiso   1.00
C1093  C     0.33085   0.60410   0.65887   0.00000  Uiso   1.00
C1094  C     0.43380   0.80848   0.39615   0.00000  Uiso   1.00
C1095  C     0.00000   0.75000   0.39815   0.00000  Uiso   1.00
C1096  C     0.41982   0.84465   0.38065   0.00000  Uiso   1.00
C1097  C     0.49238   0.66598   0.61077   0.00000  Uiso   1.00
C1098  C     0.00338   0.63676   0.63986   0.00000  Uiso   1.00
C1099  C     0.19148   0.93385   0.39614   0.00000  Uiso   1.00
C1100  C     0.15531   0.91988   0.38059   0.00000  Uiso   1.00
C1101  C     0.33402   0.99234   0.61077   0.00000  Uiso   1.00
C1102  C     0.36324   0.50333   0.63987   0.00000  Uiso   1.00
C1103  C     0.06620   0.69152   0.39615   0.00000  Uiso   1.00
C1104  C     0.08019   0.65534   0.38067   0.00000  Uiso   1.00
C1105  C     0.00762   0.83402   0.61077   0.00000  Uiso   1.00
C1106  C     0.00000   0.75000   0.60212   0.00000  Uiso   1.00
C1107  C     0.49662   0.86324   0.63987   0.00000  Uiso   1.00
C1108  C     0.30852   0.56615   0.39614   0.00000  Uiso   1.00
C1109  C     0.34468   0.58011   0.38059   0.00000  Uiso   1.00
C1110  C     0.16598   0.50766   0.61077   0.00000  Uiso   1.00
C1111  C     0.13675   0.99666   0.63986   0.00000  Uiso   1.00
C1112  C     0.24234   0.58402   0.88923   0.00000  Uiso   1.00
C1113  C     0.25333   0.61325   0.86014   0.00000  Uiso   1.00
C1114  C     0.18385   0.94147   0.10386   0.00000  Uiso   1.00
C1115  C     0.16989   0.90531   0.11942   0.00000  Uiso   1.00
C1116  C     0.41598   0.74238   0.88923   0.00000  Uiso   1.00
C1117  C     0.25000   0.50000   0.39815   0.00000  Uiso   1.00
C1118  C     0.38676   0.75338   0.86013   0.00000  Uiso   1.00
C1119  C     0.05848   0.68380   0.10385   0.00000  Uiso   1.00
C1120  C     0.09466   0.66981   0.11932   0.00000  Uiso   1.00
C1121  C     0.25766   0.91598   0.88922   0.00000  Uiso   1.00
C1122  C     0.24667   0.88676   0.86013   0.00000  Uiso   1.00
C1123  C     0.31615   0.55853   0.10386   0.00000  Uiso   1.00
C1124  C     0.33011   0.59469   0.11942   0.00000  Uiso   1.00
C1125  C     0.08402   0.75762   0.88923   0.00000  Uiso   1.00
C1126  C     0.11324   0.74662   0.86014   0.00000  Uiso   1.00
C1127  C     0.44152   0.81619   0.10385   0.00000  Uiso   1.00
C1128  C     0.01114   0.71860   0.58213   0.00000  Uiso   1.00
C1129  C     0.25000   0.50000   0.60212   0.00000  Uiso   1.00
C1130  C     0.40535   0.83018   0.11936   0.00000  Uiso   1.00
C1131  C     0.25000   0.50000   0.89788   0.00000  Uiso   1.00
C1132  C     0.25000   0.50000   0.10185   0.00000  Uiso   1.00
C1133  C    -0.00000   0.75000   0.89788   0.00000  Uiso   1.00
C1134  C    -0.00000   0.75000   0.10185   0.00000  Uiso   1.00
C1135  C     0.02445   0.68838   0.48000   0.00000  Uiso   1.00
C1136  C     0.47595   0.81179   0.52051   0.00000  Uiso   1.00
C1137  C     0.31163   0.52441   0.48000   0.00000  Uiso   1.00
C1138  C     0.18819   0.97599   0.52051   0.00000  Uiso   1.00
C1139  C     0.47555   0.81162   0.48000   0.00000  Uiso   1.00
C1140  C     0.22019   0.98504   0.41824   0.00000  Uiso   1.00
C1141  C     0.02405   0.68821   0.52051   0.00000  Uiso   1.00
C1142  C     0.18837   0.97559   0.48000   0.00000  Uiso   1.00
C1143  C     0.31181   0.52401   0.52051   0.00000  Uiso   1.00
C1144  C     0.22599   0.93819   0.97949   0.00000  Uiso   1.00
C1145  C     0.27441   0.56163   0.02000   0.00000  Uiso   1.00
C1146  C     0.06179   0.72595   0.97949   0.00000  Uiso   1.00
C1147  C     0.43838   0.77445   0.02000   0.00000  Uiso   1.00
C1148  C     0.27401   0.56181   0.97949   0.00000  Uiso   1.00
C1149  C     0.22559   0.93836   0.02000   0.00000  Uiso   1.00
C1150  C     0.43821   0.77405   0.97949   0.00000  Uiso   1.00
C1151  C     0.28140   0.51112   0.58213   0.00000  Uiso   1.00
C1152  C     0.06162   0.72555   0.02000   0.00000  Uiso   1.00
C1153  C     0.25000   0.50000   0.35580   0.00000  Uiso   1.00
C1154  C     0.25000   0.50000   0.64431   0.00000  Uiso   1.00
C1155  C    -0.00000   0.75000   0.35580   0.00000  Uiso   1.00
C1156  C    -0.00000   0.75000   0.64431   0.00000  Uiso   1.00
C1157  C    -0.00000   0.75000   0.85569   0.00000  Uiso   1.00
C1158  C     0.00000   0.75000   0.14420   0.00000  Uiso   1.00
C1159  C     0.25000   0.50000   0.85569   0.00000  Uiso   1.00
C1160  C     0.25000   0.50000   0.14420   0.00000  Uiso   1.00
C1161  C     0.18000   0.57000   0.25000   0.00000  Uiso   1.00
C1162  C     0.01498   0.72020   0.41824   0.00000  Uiso   1.00
C1163  C     0.32003   0.92997   0.75000   0.00000  Uiso   1.00
C1164  C     0.43000   0.68000   0.25000   0.00000  Uiso   1.00
C1165  C     0.07003   0.82003   0.75000   0.00000  Uiso   1.00
C1166  C     0.32000   0.93000   0.25000   0.00000  Uiso   1.00
C1167  C     0.17997   0.57003   0.75000   0.00000  Uiso   1.00
C1168  C     0.07000   0.82000   0.25000   0.00000  Uiso   1.00
C1169  C     0.42997   0.67997   0.75000   0.00000  Uiso   1.00
C1170  C     0.17996   0.92996   0.75000   0.00000  Uiso   1.00
C1171  C     0.32011   0.57011   0.25000   0.00000  Uiso   1.00
C1172  C     0.42996   0.82004   0.75000   0.00000  Uiso   1.00
C1173  C     0.48886   0.78140   0.58213   0.00000  Uiso   1.00
C1174  C     0.07011   0.67989   0.25000   0.00000  Uiso   1.00
C1175  C     0.32004   0.57004   0.75000   0.00000  Uiso   1.00
C1176  C     0.17989   0.92989   0.25000   0.00000  Uiso   1.00
C1177  C     0.07004   0.67996   0.75000   0.00000  Uiso   1.00
C1178  C     0.42989   0.82011   0.25000   0.00000  Uiso   1.00
C1179  C     0.12419   0.90191   0.22109   0.00000  Uiso   1.00
C1180  C     0.35784   0.61520   0.78526   0.00000  Uiso   1.00
C1181  C     0.09810   0.62419   0.22108   0.00000  Uiso   1.00
C1182  C     0.38481   0.85786   0.78526   0.00000  Uiso   1.00
C1183  C     0.37581   0.59809   0.22109   0.00000  Uiso   1.00
C1184  C     0.27981   0.51496   0.41824   0.00000  Uiso   1.00
C1185  C     0.14215   0.88480   0.78526   0.00000  Uiso   1.00
C1186  C     0.40191   0.87581   0.22109   0.00000  Uiso   1.00
C1187  C     0.11519   0.64214   0.78526   0.00000  Uiso   1.00
C1188  C     0.14205   0.61501   0.78530   0.00000  Uiso   1.00
C1189  C     0.37249   0.89970   0.21853   0.00000  Uiso   1.00
C1190  C     0.11502   0.85794   0.78529   0.00000  Uiso   1.00
C1191  C     0.39970   0.62751   0.21853   0.00000  Uiso   1.00
C1192  C     0.35795   0.88499   0.78530   0.00000  Uiso   1.00
C1193  C     0.12752   0.60031   0.21853   0.00000  Uiso   1.00
C1194  C     0.38498   0.64206   0.78529   0.00000  Uiso   1.00
C1195  C     0.21859   0.98888   0.58213   0.00000  Uiso   1.00
C1196  C     0.10030   0.87249   0.21853   0.00000  Uiso   1.00
C1197  C     0.39206   0.63498   0.71471   0.00000  Uiso   1.00
C1198  C     0.12249   0.85030   0.28147   0.00000  Uiso   1.00
C1199  C     0.36501   0.89205   0.71470   0.00000  Uiso   1.00
C1200  C     0.14969   0.62248   0.28147   0.00000  Uiso   1.00
C1201  C     0.10794   0.86502   0.71471   0.00000  Uiso   1.00
C1202  C     0.37751   0.64970   0.28147   0.00000  Uiso   1.00
C1203  C     0.13499   0.60795   0.71470   0.00000  Uiso   1.00
C1204  C     0.35030   0.87751   0.28147   0.00000  Uiso   1.00
C1205  C     0.37419   0.84809   0.27891   0.00000  Uiso   1.00
C1206  C     0.26112   0.53140   0.91787   0.00000  Uiso   1.00
C1207  C     0.10786   0.63481   0.71474   0.00000  Uiso   1.00
C1208  C     0.34809   0.62581   0.27891   0.00000  Uiso   1.00
C1209  C     0.13480   0.89215   0.71474   0.00000  Uiso   1.00
C1210  C     0.12581   0.65190   0.27891   0.00000  Uiso   1.00
C1211  C     0.39214   0.86519   0.71474   0.00000  Uiso   1.00
C1212  C     0.15191   0.87419   0.27891   0.00000  Uiso   1.00
C1213  C     0.36520   0.60784   0.71474   0.00000  Uiso   1.00
C1214  C     0.01318   0.71931   0.45917   0.00000  Uiso   1.00
C1215  C     0.48805   0.78122   0.54126   0.00000  Uiso   1.00
C1216  C     0.28070   0.51316   0.45917   0.00000  Uiso   1.00
H1217  H     0.03371   0.66410   0.46511   0.00000  Uiso   1.00
H1218  H     0.28364   0.58592   0.03489   0.00000  Uiso   1.00
H1219  H     0.18955   0.91704   0.65145   0.00000  Uiso   1.00
H1220  H     0.13725   0.72373   0.27023   0.00000  Uiso   1.00
H1221  H     0.17686   0.69644   0.28017   0.00000  Uiso   1.00
H1222  H     0.15828   0.72489   0.31747   0.00000  Uiso   1.00
H1223  H     0.38581   0.84234   0.63102   0.00000  Uiso   1.00
H1224  H     0.37308   0.81611   0.67358   0.00000  Uiso   1.00
H1225  H     0.41701   0.81042   0.65145   0.00000  Uiso   1.00
H1226  H     0.22373   0.86275   0.27020   0.00000  Uiso   1.00
H1227  H     0.19644   0.82313   0.28014   0.00000  Uiso   1.00
H1228  H     0.22491   0.84171   0.31743   0.00000  Uiso   1.00
H1229  H     0.08602   0.71664   0.96452   0.00000  Uiso   1.00
H1230  H     0.34238   0.61414   0.63102   0.00000  Uiso   1.00
H1231  H     0.31613   0.62689   0.67356   0.00000  Uiso   1.00
H1232  H     0.31046   0.58295   0.65145   0.00000  Uiso   1.00
H1233  H     0.42144   0.80401   0.42542   0.00000  Uiso   1.00
H1234  H     0.42436   0.78646   0.37639   0.00000  Uiso   1.00
H1235  H     0.43046   0.84945   0.35077   0.00000  Uiso   1.00
H1236  H     0.38960   0.84439   0.37977   0.00000  Uiso   1.00
H1237  H     0.42886   0.86716   0.39997   0.00000  Uiso   1.00
H1238  H     0.48281   0.65250   0.58358   0.00000  Uiso   1.00
H1239  H     0.46939   0.68162   0.62371   0.00000  Uiso   1.00
H1240  H     0.41410   0.78370   0.03489   0.00000  Uiso   1.00
H1241  H     0.01182   0.64960   0.66776   0.00000  Uiso   1.00
H1242  H     0.47998   0.61837   0.64554   0.00000  Uiso   1.00
H1243  H     0.02636   0.62049   0.62807   0.00000  Uiso   1.00
H1244  H     0.19591   0.92148   0.42542   0.00000  Uiso   1.00
H1245  H     0.21352   0.92439   0.37641   0.00000  Uiso   1.00
H1246  H     0.15056   0.93053   0.35070   0.00000  Uiso   1.00
H1247  H     0.15555   0.88967   0.37971   0.00000  Uiso   1.00
H1248  H     0.13279   0.92894   0.39988   0.00000  Uiso   1.00
H1249  H     0.34749   0.98277   0.58359   0.00000  Uiso   1.00
H1250  H     0.31836   0.96936   0.62372   0.00000  Uiso   1.00
H1251  H     0.28330   0.58604   0.96452   0.00000  Uiso   1.00
H1252  H     0.35040   0.51179   0.66777   0.00000  Uiso   1.00
H1253  H     0.38162   0.97993   0.64555   0.00000  Uiso   1.00
H1254  H     0.37952   0.52631   0.62807   0.00000  Uiso   1.00
H1255  H     0.07856   0.69601   0.42542   0.00000  Uiso   1.00
H1256  H     0.07564   0.71353   0.37637   0.00000  Uiso   1.00
H1257  H     0.06954   0.65052   0.35080   0.00000  Uiso   1.00
H1258  H     0.11040   0.65560   0.37979   0.00000  Uiso   1.00
H1259  H     0.07115   0.63284   0.40001   0.00000  Uiso   1.00
H1260  H     0.01718   0.84750   0.58358   0.00000  Uiso   1.00
H1261  H     0.03061   0.81838   0.62371   0.00000  Uiso   1.00
H1262  H     0.21636   0.91407   0.03489   0.00000  Uiso   1.00
H1263  H     0.48818   0.85039   0.66777   0.00000  Uiso   1.00
H1264  H     0.02002   0.88162   0.64555   0.00000  Uiso   1.00
H1265  H     0.47364   0.87950   0.62808   0.00000  Uiso   1.00
H1266  H     0.30409   0.57852   0.42542   0.00000  Uiso   1.00
H1267  H     0.28648   0.57561   0.37641   0.00000  Uiso   1.00
H1268  H     0.34944   0.56947   0.35070   0.00000  Uiso   1.00
H1269  H     0.34445   0.61033   0.37971   0.00000  Uiso   1.00
H1270  H     0.36721   0.57105   0.39988   0.00000  Uiso   1.00
H1271  H     0.15251   0.51724   0.58359   0.00000  Uiso   1.00
H1272  H     0.18164   0.53064   0.62372   0.00000  Uiso   1.00
H1273  H     0.41398   0.78335   0.96452   0.00000  Uiso   1.00
H1274  H     0.14959   0.98821   0.66776   0.00000  Uiso   1.00
H1275  H     0.11838   0.52007   0.64554   0.00000  Uiso   1.00
H1276  H     0.12048   0.97369   0.62806   0.00000  Uiso   1.00
H1277  H     0.23276   0.59749   0.91641   0.00000  Uiso   1.00
H1278  H     0.21936   0.56836   0.87627   0.00000  Uiso   1.00
H1279  H     0.26179   0.60042   0.83224   0.00000  Uiso   1.00
H1280  H     0.22993   0.63162   0.85446   0.00000  Uiso   1.00
H1281  H     0.27631   0.62952   0.87195   0.00000  Uiso   1.00
H1282  H     0.17148   0.94590   0.07458   0.00000  Uiso   1.00
H1283  H     0.17440   0.96352   0.12359   0.00000  Uiso   1.00
H1284  H     0.08590   0.71629   0.03489   0.00000  Uiso   1.00
H1285  H     0.18053   0.90056   0.14930   0.00000  Uiso   1.00
H1286  H     0.13967   0.90555   0.12029   0.00000  Uiso   1.00
H1287  H     0.17895   0.88278   0.10013   0.00000  Uiso   1.00
H1288  H     0.40250   0.73281   0.91642   0.00000  Uiso   1.00
H1289  H     0.43162   0.71939   0.87629   0.00000  Uiso   1.00
H1290  H     0.39961   0.76182   0.83223   0.00000  Uiso   1.00
H1291  H     0.36838   0.72998   0.85445   0.00000  Uiso   1.00
H1292  H     0.37050   0.77636   0.87193   0.00000  Uiso   1.00
H1293  H     0.05398   0.67144   0.07458   0.00000  Uiso   1.00
H1294  H     0.03647   0.67436   0.12363   0.00000  Uiso   1.00
H1295  H     0.11275   0.97373   0.22980   0.00000  Uiso   1.00
H1296  H     0.09949   0.68045   0.14919   0.00000  Uiso   1.00
H1297  H     0.09440   0.63960   0.12020   0.00000  Uiso   1.00
H1298  H     0.11716   0.67885   0.09997   0.00000  Uiso   1.00
H1299  H     0.26724   0.90251   0.91641   0.00000  Uiso   1.00
H1300  H     0.28064   0.93164   0.87628   0.00000  Uiso   1.00
H1301  H     0.23821   0.89960   0.83223   0.00000  Uiso   1.00
H1302  H     0.27007   0.86838   0.85445   0.00000  Uiso   1.00
H1303  H     0.22369   0.87048   0.87193   0.00000  Uiso   1.00
H1304  H     0.32852   0.55410   0.07458   0.00000  Uiso   1.00
H1305  H     0.32560   0.53648   0.12359   0.00000  Uiso   1.00
H1306  H     0.07313   0.94645   0.21986   0.00000  Uiso   1.00
H1307  H     0.31947   0.59944   0.14930   0.00000  Uiso   1.00
H1308  H     0.36033   0.59445   0.12029   0.00000  Uiso   1.00
H1309  H     0.32105   0.61722   0.10013   0.00000  Uiso   1.00
H1310  H     0.09750   0.76719   0.91642   0.00000  Uiso   1.00
H1311  H     0.06838   0.78061   0.87629   0.00000  Uiso   1.00
H1312  H     0.10040   0.73818   0.83224   0.00000  Uiso   1.00
H1313  H     0.13162   0.77002   0.85446   0.00000  Uiso   1.00
H1314  H     0.12950   0.72364   0.87193   0.00000  Uiso   1.00
H1315  H     0.44598   0.82856   0.07458   0.00000  Uiso   1.00
H1316  H     0.46355   0.82563   0.12360   0.00000  Uiso   1.00
H1317  H     0.09171   0.97491   0.18257   0.00000  Uiso   1.00
H1318  H     0.40056   0.81954   0.14924   0.00000  Uiso   1.00
H1319  H     0.40560   0.86039   0.12024   0.00000  Uiso   1.00
H1320  H     0.38283   0.82113   0.10005   0.00000  Uiso   1.00
H1321  H     0.46664   0.83602   0.53548   0.00000  Uiso   1.00
H1322  H     0.36415   0.59238   0.86898   0.00000  Uiso   1.00
H1323  H     0.37688   0.56613   0.82643   0.00000  Uiso   1.00
H1324  H     0.33295   0.56046   0.84856   0.00000  Uiso   1.00
H1325  H     0.02627   0.61275   0.22977   0.00000  Uiso   1.00
H1326  H     0.05356   0.57314   0.21982   0.00000  Uiso   1.00
H1327  H     0.02511   0.59172   0.18252   0.00000  Uiso   1.00
H1328  H     0.40766   0.86419   0.86898   0.00000  Uiso   1.00
H1329  H     0.43389   0.87692   0.82641   0.00000  Uiso   1.00
H1330  H     0.43958   0.83299   0.84855   0.00000  Uiso   1.00
H1331  H     0.38725   0.52627   0.22980   0.00000  Uiso   1.00
H1332  H     0.33592   0.53364   0.46511   0.00000  Uiso   1.00
H1333  H     0.42687   0.55355   0.21986   0.00000  Uiso   1.00
H1334  H     0.40829   0.52509   0.18256   0.00000  Uiso   1.00
H1335  H     0.13585   0.90762   0.86898   0.00000  Uiso   1.00
H1336  H     0.12311   0.93387   0.82643   0.00000  Uiso   1.00
H1337  H     0.16704   0.93955   0.84855   0.00000  Uiso   1.00
H1338  H     0.47373   0.88725   0.22980   0.00000  Uiso   1.00
H1339  H     0.44644   0.92687   0.21986   0.00000  Uiso   1.00
H1340  H     0.47491   0.90829   0.18256   0.00000  Uiso   1.00
H1341  H     0.09234   0.63581   0.86898   0.00000  Uiso   1.00
H1342  H     0.06611   0.62308   0.82641   0.00000  Uiso   1.00
H1343  H     0.16396   0.96670   0.53548   0.00000  Uiso   1.00
H1344  H     0.06042   0.66701   0.84855   0.00000  Uiso   1.00
H1345  H     0.16004   0.55659   0.84324   0.00000  Uiso   1.00
H1346  H     0.11554   0.57427   0.83181   0.00000  Uiso   1.00
H1347  H     0.14124   0.59212   0.87229   0.00000  Uiso   1.00
H1348  H     0.41084   0.94089   0.16060   0.00000  Uiso   1.00
H1349  H     0.39415   0.96139   0.20581   0.00000  Uiso   1.00
H1350  H     0.37056   0.96794   0.16075   0.00000  Uiso   1.00
H1351  H     0.05662   0.83993   0.84325   0.00000  Uiso   1.00
H1352  H     0.07430   0.88443   0.83183   0.00000  Uiso   1.00
H1353  H     0.09216   0.85871   0.87230   0.00000  Uiso   1.00
H1354  H     0.46630   0.83590   0.46511   0.00000  Uiso   1.00
H1355  H     0.44089   0.58916   0.16060   0.00000  Uiso   1.00
H1356  H     0.46139   0.60585   0.20581   0.00000  Uiso   1.00
H1357  H     0.46794   0.62944   0.16075   0.00000  Uiso   1.00
H1358  H     0.33996   0.94340   0.84324   0.00000  Uiso   1.00
H1359  H     0.38446   0.92573   0.83181   0.00000  Uiso   1.00
H1360  H     0.35876   0.90788   0.87229   0.00000  Uiso   1.00
H1361  H     0.08917   0.55912   0.16057   0.00000  Uiso   1.00
H1362  H     0.10586   0.53861   0.20579   0.00000  Uiso   1.00
H1363  H     0.12946   0.53208   0.16074   0.00000  Uiso   1.00
H1364  H     0.42569   0.61557   0.83184   0.00000  Uiso   1.00
H1365  H     0.03336   0.66398   0.53548   0.00000  Uiso   1.00
H1366  H     0.40784   0.64130   0.87230   0.00000  Uiso   1.00
H1367  H     0.44338   0.66007   0.84324   0.00000  Uiso   1.00
H1368  H     0.05910   0.91085   0.16060   0.00000  Uiso   1.00
H1369  H     0.03861   0.89415   0.20581   0.00000  Uiso   1.00
H1370  H     0.03206   0.87056   0.16075   0.00000  Uiso   1.00
H1371  H     0.41008   0.69337   0.65675   0.00000  Uiso   1.00
H1372  H     0.36557   0.67570   0.66816   0.00000  Uiso   1.00
H1373  H     0.39129   0.65784   0.62770   0.00000  Uiso   1.00
H1374  H     0.16084   0.80910   0.33940   0.00000  Uiso   1.00
H1375  H     0.14415   0.78861   0.29419   0.00000  Uiso   1.00
H1376  H     0.16408   0.96636   0.46511   0.00000  Uiso   1.00
H1377  H     0.12056   0.78206   0.33925   0.00000  Uiso   1.00
H1378  H     0.30660   0.91004   0.65676   0.00000  Uiso   1.00
H1379  H     0.32427   0.86554   0.66819   0.00000  Uiso   1.00
H1380  H     0.34212   0.89124   0.62771   0.00000  Uiso   1.00
H1381  H     0.19088   0.66083   0.33942   0.00000  Uiso   1.00
H1382  H     0.21138   0.64414   0.29421   0.00000  Uiso   1.00
H1383  H     0.21792   0.62054   0.33926   0.00000  Uiso   1.00
H1384  H     0.13443   0.82429   0.66817   0.00000  Uiso   1.00
H1385  H     0.10872   0.84215   0.62770   0.00000  Uiso   1.00
H1386  H     0.08992   0.80662   0.65675   0.00000  Uiso   1.00
H1387  H     0.33604   0.53330   0.53548   0.00000  Uiso   1.00
H1388  H     0.33915   0.69089   0.33940   0.00000  Uiso   1.00
H1389  H     0.35585   0.71139   0.29419   0.00000  Uiso   1.00
H1390  H     0.37944   0.71794   0.33925   0.00000  Uiso   1.00
H1391  H     0.19340   0.58996   0.65676   0.00000  Uiso   1.00
H1392  H     0.17573   0.63446   0.66819   0.00000  Uiso   1.00
H1393  H     0.15788   0.60876   0.62771   0.00000  Uiso   1.00
H1394  H     0.30911   0.83916   0.33941   0.00000  Uiso   1.00
H1395  H     0.28861   0.85585   0.29419   0.00000  Uiso   1.00
H1396  H     0.28206   0.87944   0.33925   0.00000  Uiso   1.00
H1397  H     0.36275   0.77627   0.27020   0.00000  Uiso   1.00
H1398  H     0.21670   0.91396   0.96452   0.00000  Uiso   1.00
H1399  H     0.32313   0.80356   0.28015   0.00000  Uiso   1.00
H1400  H     0.34171   0.77509   0.31744   0.00000  Uiso   1.00
H1401  H     0.11418   0.65766   0.63102   0.00000  Uiso   1.00
H1402  H     0.12692   0.68389   0.67358   0.00000  Uiso   1.00
H1403  H     0.08299   0.68958   0.65145   0.00000  Uiso   1.00
H1404  H     0.27627   0.63725   0.27019   0.00000  Uiso   1.00
H1405  H     0.30355   0.67687   0.28014   0.00000  Uiso   1.00
H1406  H     0.27509   0.65829   0.31743   0.00000  Uiso   1.00
H1407  H     0.15762   0.88585   0.63102   0.00000  Uiso   1.00
H1408  H     0.18387   0.87311   0.67356   0.00000  Uiso   1.00
O1409  O     0.25000   0.50000   0.25000   0.00000  Uiso   1.00
O1410  O     0.25000   0.96963   0.66245   0.00000  Uiso   1.00
O1411  O     0.44042   0.77772   0.10251   0.00000  Uiso   1.00
O1412  O     0.46963   0.75000   0.33755   0.00000  Uiso   1.00
O1413  O     0.03036   0.75000   0.66245   0.00000  Uiso   1.00
O1414  O     0.00000   0.71963   0.83755   0.00000  Uiso   1.00
O1415  O    -0.00000   0.78036   0.16245   0.00000  Uiso   1.00
O1416  O     0.28036   0.50000   0.83755   0.00000  Uiso   1.00
O1417  O     0.21963   0.50000   0.16245   0.00000  Uiso   1.00
O1418  O     0.00000   0.78036   0.83755   0.00000  Uiso   1.00
O1419  O    -0.00000   0.71963   0.16245   0.00000  Uiso   1.00
O1420  O     0.21963   0.50000   0.83755   0.00000  Uiso   1.00
O1421  O     0.25000   0.50000   0.75000   0.00000  Uiso   1.00
O1422  O     0.28036   0.50000   0.16245   0.00000  Uiso   1.00
O1423  O     0.20724   0.57307   0.27302   0.00000  Uiso   1.00
O1424  O     0.29275   0.92692   0.72698   0.00000  Uiso   1.00
O1425  O     0.42692   0.70724   0.27302   0.00000  Uiso   1.00
O1426  O     0.07307   0.79275   0.72698   0.00000  Uiso   1.00
O1427  O     0.29275   0.92692   0.27302   0.00000  Uiso   1.00
O1428  O     0.20724   0.57307   0.72698   0.00000  Uiso   1.00
O1429  O     0.07307   0.79275   0.27302   0.00000  Uiso   1.00
O1430  O     0.42692   0.70724   0.72698   0.00000  Uiso   1.00
O1431  O     0.20724   0.92692   0.72698   0.00000  Uiso   1.00
O1432  O    -0.00000   0.75000   0.25000   0.00000  Uiso   1.00
O1433  O     0.29275   0.57307   0.27302   0.00000  Uiso   1.00
O1434  O     0.42692   0.79275   0.72698   0.00000  Uiso   1.00
O1435  O     0.07307   0.70724   0.27302   0.00000  Uiso   1.00
O1436  O     0.29275   0.57307   0.72698   0.00000  Uiso   1.00
O1437  O     0.20724   0.92692   0.27302   0.00000  Uiso   1.00
O1438  O     0.07307   0.70724   0.72698   0.00000  Uiso   1.00
O1439  O     0.42692   0.79275   0.27302   0.00000  Uiso   1.00
O1440  O     0.45724   0.82307   0.77302   0.00000  Uiso   1.00
O1441  O     0.04275   0.67692   0.22698   0.00000  Uiso   1.00
O1442  O     0.17692   0.95724   0.77302   0.00000  Uiso   1.00
O1443  O    -0.00000   0.75000   0.75000   0.00000  Uiso   1.00
O1444  O     0.32307   0.54275   0.22698   0.00000  Uiso   1.00
O1445  O     0.04275   0.67692   0.77302   0.00000  Uiso   1.00
O1446  O     0.45724   0.82307   0.22698   0.00000  Uiso   1.00
O1447  O     0.32307   0.54275   0.77302   0.00000  Uiso   1.00
O1448  O     0.17692   0.95724   0.22698   0.00000  Uiso   1.00
O1449  O     0.45724   0.67692   0.22698   0.00000  Uiso   1.00
O1450  O     0.04275   0.82307   0.77302   0.00000  Uiso   1.00
O1451  O     0.17692   0.54275   0.22698   0.00000  Uiso   1.00
O1452  O     0.32307   0.95724   0.77302   0.00000  Uiso   1.00
O1453  O     0.04275   0.82307   0.22698   0.00000  Uiso   1.00
O1454  O     0.25000   0.96963   0.33755   0.00000  Uiso   1.00
O1455  O     0.45724   0.67692   0.77302   0.00000  Uiso   1.00
O1456  O     0.32307   0.95724   0.22698   0.00000  Uiso   1.00
O1457  O     0.17692   0.54275   0.77302   0.00000  Uiso   1.00
O1458  O     0.12213   0.92905   0.19324   0.00000  Uiso   1.00
O1459  O     0.33783   0.60885   0.81880   0.00000  Uiso   1.00
O1460  O     0.07097   0.62215   0.19323   0.00000  Uiso   1.00
O1461  O     0.39118   0.83785   0.81881   0.00000  Uiso   1.00
O1462  O     0.37787   0.57095   0.19324   0.00000  Uiso   1.00
O1463  O     0.16217   0.89115   0.81880   0.00000  Uiso   1.00
O1464  O     0.42905   0.87787   0.19324   0.00000  Uiso   1.00
O1465  O     0.25000   0.53036   0.66245   0.00000  Uiso   1.00
O1466  O     0.10882   0.66215   0.81881   0.00000  Uiso   1.00
O1467  O     0.16158   0.60810   0.81904   0.00000  Uiso   1.00
O1468  O     0.36454   0.91661   0.18332   0.00000  Uiso   1.00
O1469  O     0.10812   0.83840   0.81904   0.00000  Uiso   1.00
O1470  O     0.41661   0.63546   0.18332   0.00000  Uiso   1.00
O1471  O     0.33842   0.89190   0.81904   0.00000  Uiso   1.00
O1472  O     0.13547   0.58340   0.18331   0.00000  Uiso   1.00
O1473  O     0.39188   0.66160   0.81904   0.00000  Uiso   1.00
O1474  O     0.08339   0.86455   0.18332   0.00000  Uiso   1.00
O1475  O     0.41160   0.64188   0.68096   0.00000  Uiso   1.00
O1476  O     0.03036   0.75000   0.33755   0.00000  Uiso   1.00
O1477  O     0.11454   0.83339   0.31668   0.00000  Uiso   1.00
O1478  O     0.35810   0.91158   0.68095   0.00000  Uiso   1.00
O1479  O     0.16660   0.61453   0.31668   0.00000  Uiso   1.00
O1480  O     0.08840   0.85812   0.68096   0.00000  Uiso   1.00
O1481  O     0.38546   0.66661   0.31668   0.00000  Uiso   1.00
O1482  O     0.14190   0.58842   0.68095   0.00000  Uiso   1.00
O1483  O     0.33339   0.88546   0.31668   0.00000  Uiso   1.00
O1484  O     0.37214   0.82095   0.30676   0.00000  Uiso   1.00
O1485  O     0.08785   0.64118   0.68119   0.00000  Uiso   1.00
O1486  O     0.32095   0.62787   0.30676   0.00000  Uiso   1.00
O1487  O     0.46963   0.75000   0.66245   0.00000  Uiso   1.00
O1488  O     0.14115   0.91217   0.68120   0.00000  Uiso   1.00
O1489  O     0.12785   0.67903   0.30677   0.00000  Uiso   1.00
O1490  O     0.41214   0.85882   0.68119   0.00000  Uiso   1.00
O1491  O     0.17905   0.87213   0.30675   0.00000  Uiso   1.00
O1492  O     0.35885   0.58783   0.68120   0.00000  Uiso   1.00
O1493  O     0.47228   0.80958   0.39749   0.00000  Uiso   1.00
O1494  O     0.02275   0.68839   0.60286   0.00000  Uiso   1.00
O1495  O     0.19040   0.97232   0.39749   0.00000  Uiso   1.00
O1496  O     0.31162   0.52272   0.60286   0.00000  Uiso   1.00
O1497  O     0.02772   0.69042   0.39749   0.00000  Uiso   1.00
O1498  O     0.25000   0.53036   0.33755   0.00000  Uiso   1.00
O1499  O     0.47725   0.81161   0.60286   0.00000  Uiso   1.00
O1500  O     0.30960   0.52768   0.39749   0.00000  Uiso   1.00
O1501  O     0.18838   0.97728   0.60286   0.00000  Uiso   1.00
O1502  O     0.27272   0.56162   0.89714   0.00000  Uiso   1.00
O1503  O     0.22232   0.94040   0.10251   0.00000  Uiso   1.00
O1504  O     0.43839   0.77275   0.89714   0.00000  Uiso   1.00
O1505  O     0.05958   0.72228   0.10251   0.00000  Uiso   1.00
O1506  O     0.22728   0.93838   0.89714   0.00000  Uiso   1.00
O1507  O     0.27768   0.55960   0.10251   0.00000  Uiso   1.00
O1508  O     0.06161   0.72725   0.89714   0.00000  Uiso   1.00
Zn1509 Zn    0.20659   0.50000   0.21735   0.00000  Uiso   1.00
Zn1510 Zn    0.04340   0.75000   0.28265   0.00000  Uiso   1.00
Zn1511 Zn    0.25000   0.95659   0.71735   0.00000  Uiso   1.00
Zn1512 Zn    0.25000   0.54340   0.28265   0.00000  Uiso   1.00
Zn1513 Zn    0.04340   0.75000   0.71735   0.00000  Uiso   1.00
Zn1514 Zn    0.45659   0.75000   0.28265   0.00000  Uiso   1.00
Zn1515 Zn    0.25000   0.54340   0.71735   0.00000  Uiso   1.00
Zn1516 Zn    0.25000   0.95659   0.28265   0.00000  Uiso   1.00
Zn1517 Zn    0.29340   0.50000   0.78265   0.00000  Uiso   1.00
Zn1518 Zn    0.00000   0.70659   0.21735   0.00000  Uiso   1.00
Zn1519 Zn   -0.00000   0.79340   0.78265   0.00000  Uiso   1.00
Zn1520 Zn    0.29340   0.50000   0.21735   0.00000  Uiso   1.00
Zn1521 Zn    0.20659   0.50000   0.78265   0.00000  Uiso   1.00
Zn1522 Zn    0.00000   0.79340   0.21735   0.00000  Uiso   1.00
Zn1523 Zn   -0.00000   0.70659   0.78265   0.00000  Uiso   1.00
Zn1524 Zn    0.45659   0.75000   0.71735   0.00000  Uiso   1.00
C1525  C     0.98502   0.77980   0.41824   0.00000  Uiso   1.00
C1526  C     0.73504   0.97019   0.08176   0.00000  Uiso   1.00
C1527  C     0.71878   0.98807   0.54126   0.00000  Uiso   1.00
C1528  C     0.98682   0.78069   0.45917   0.00000  Uiso   1.00
C1529  C     0.51195   0.71878   0.54126   0.00000  Uiso   1.00
C1530  C     0.71930   0.98684   0.45917   0.00000  Uiso   1.00
C1531  C     0.78122   0.51193   0.54126   0.00000  Uiso   1.00
C1532  C     0.73807   0.96878   0.95874   0.00000  Uiso   1.00
C1533  C     0.76316   0.53070   0.04083   0.00000  Uiso   1.00
C1534  C     0.53121   0.73805   0.95874   0.00000  Uiso   1.00
C1535  C     0.96931   0.76318   0.04083   0.00000  Uiso   1.00
C1536  C     0.76193   0.53122   0.95874   0.00000  Uiso   1.00
C1537  C     0.96860   0.76114   0.91787   0.00000  Uiso   1.00
C1538  C     0.73684   0.96930   0.04083   0.00000  Uiso   1.00
C1539  C     0.96878   0.76195   0.95874   0.00000  Uiso   1.00
C1540  C     0.53069   0.73682   0.04083   0.00000  Uiso   1.00
C1541  C     0.59799   0.84799   0.25000   0.00000  Uiso   1.00
C1542  C     0.90191   0.65191   0.75000   0.00000  Uiso   1.00
C1543  C     0.65201   0.59799   0.25000   0.00000  Uiso   1.00
C1544  C     0.84809   0.90191   0.75000   0.00000  Uiso   1.00
C1545  C     0.90201   0.65201   0.25000   0.00000  Uiso   1.00
C1546  C     0.59809   0.84809   0.75000   0.00000  Uiso   1.00
C1547  C     0.84799   0.90201   0.25000   0.00000  Uiso   1.00
C1548  C     0.52980   0.73501   0.08176   0.00000  Uiso   1.00
C1549  C     0.65191   0.59809   0.75000   0.00000  Uiso   1.00
C1550  C     0.59812   0.65188   0.75000   0.00000  Uiso   1.00
C1551  C     0.90170   0.84830   0.25000   0.00000  Uiso   1.00
C1552  C     0.65188   0.90188   0.75000   0.00000  Uiso   1.00
C1553  C     0.84830   0.59830   0.25000   0.00000  Uiso   1.00
C1554  C     0.90188   0.84812   0.75000   0.00000  Uiso   1.00
C1555  C     0.59830   0.65170   0.25000   0.00000  Uiso   1.00
C1556  C     0.84812   0.59812   0.75000   0.00000  Uiso   1.00
C1557  C     0.65170   0.90170   0.25000   0.00000  Uiso   1.00
C1558  C     0.50000   0.75000   0.47966   0.00000  Uiso   1.00
C1559  C     0.73888   0.96859   0.91787   0.00000  Uiso   1.00
C1560  C     0.50000   0.75000   0.52076   0.00000  Uiso   1.00
C1561  C     0.75000   0.50000   0.47966   0.00000  Uiso   1.00
C1562  C     0.75000   0.50000   0.52076   0.00000  Uiso   1.00
C1563  C     0.75000   0.50000   0.97924   0.00000  Uiso   1.00
C1564  C     0.75000   0.50000   0.02034   0.00000  Uiso   1.00
C1565  C     0.50000   0.75000   0.97924   0.00000  Uiso   1.00
C1566  C     0.50000   0.75000   0.02034   0.00000  Uiso   1.00
C1567  C     0.59900   0.95694   0.20732   0.00000  Uiso   1.00
C1568  C     0.85410   0.58085   0.84113   0.00000  Uiso   1.00
C1569  C     0.54308   0.59901   0.20728   0.00000  Uiso   1.00
C1570  C     0.76496   0.52981   0.08176   0.00000  Uiso   1.00
C1571  C     0.91918   0.85413   0.84112   0.00000  Uiso   1.00
C1572  C     0.90100   0.54307   0.20732   0.00000  Uiso   1.00
C1573  C     0.64590   0.91915   0.84113   0.00000  Uiso   1.00
C1574  C     0.95693   0.90100   0.20731   0.00000  Uiso   1.00
C1575  C     0.58082   0.64587   0.84112   0.00000  Uiso   1.00
C1576  C     0.64341   0.58174   0.84201   0.00000  Uiso   1.00
C1577  C     0.88635   0.94783   0.17797   0.00000  Uiso   1.00
C1578  C     0.58177   0.85656   0.84202   0.00000  Uiso   1.00
C1579  C     0.94783   0.61365   0.17797   0.00000  Uiso   1.00
C1580  C     0.85659   0.91826   0.84201   0.00000  Uiso   1.00
C1581  C     0.53140   0.73886   0.91787   0.00000  Uiso   1.00
C1582  C     0.61366   0.55218   0.17796   0.00000  Uiso   1.00
C1583  C     0.91822   0.64345   0.84202   0.00000  Uiso   1.00
C1584  C     0.55217   0.88636   0.17797   0.00000  Uiso   1.00
C1585  C     0.89345   0.66822   0.65798   0.00000  Uiso   1.00
C1586  C     0.63635   0.80217   0.32203   0.00000  Uiso   1.00
C1587  C     0.83174   0.89341   0.65799   0.00000  Uiso   1.00
C1588  C     0.69782   0.63634   0.32204   0.00000  Uiso   1.00
C1589  C     0.60656   0.83177   0.65798   0.00000  Uiso   1.00
C1590  C     0.86365   0.69783   0.32203   0.00000  Uiso   1.00
C1591  C     0.66826   0.60659   0.65799   0.00000  Uiso   1.00
C1592  C     0.97020   0.76498   0.08176   0.00000  Uiso   1.00
C1593  C     0.80217   0.86365   0.32203   0.00000  Uiso   1.00
C1594  C     0.84900   0.79307   0.29269   0.00000  Uiso   1.00
C1595  C     0.60413   0.66918   0.65888   0.00000  Uiso   1.00
C1596  C     0.79306   0.65100   0.29268   0.00000  Uiso   1.00
C1597  C     0.66915   0.89590   0.65887   0.00000  Uiso   1.00
C1598  C     0.65100   0.70692   0.29271   0.00000  Uiso   1.00
C1599  C     0.89587   0.83082   0.65888   0.00000  Uiso   1.00
C1600  C     0.70693   0.84899   0.29268   0.00000  Uiso   1.00
C1601  C     0.83085   0.60410   0.65887   0.00000  Uiso   1.00
C1602  C     0.93380   0.80848   0.39615   0.00000  Uiso   1.00
C1603  C     0.50000   0.75000   0.39815   0.00000  Uiso   1.00
C1604  C     0.91982   0.84465   0.38065   0.00000  Uiso   1.00
C1605  C     0.99238   0.66598   0.61077   0.00000  Uiso   1.00
C1606  C     0.50338   0.63676   0.63986   0.00000  Uiso   1.00
C1607  C     0.69148   0.93385   0.39614   0.00000  Uiso   1.00
C1608  C     0.65531   0.91988   0.38059   0.00000  Uiso   1.00
C1609  C     0.83402   0.99234   0.61077   0.00000  Uiso   1.00
C1610  C     0.86324   0.50333   0.63987   0.00000  Uiso   1.00
C1611  C     0.56620   0.69152   0.39615   0.00000  Uiso   1.00
C1612  C     0.58019   0.65534   0.38067   0.00000  Uiso   1.00
C1613  C     0.50762   0.83402   0.61077   0.00000  Uiso   1.00
C1614  C     0.50000   0.75000   0.60212   0.00000  Uiso   1.00
C1615  C     0.99662   0.86324   0.63987   0.00000  Uiso   1.00
C1616  C     0.80852   0.56615   0.39614   0.00000  Uiso   1.00
C1617  C     0.84468   0.58011   0.38059   0.00000  Uiso   1.00
C1618  C     0.66598   0.50766   0.61077   0.00000  Uiso   1.00
C1619  C     0.63675   0.99666   0.63986   0.00000  Uiso   1.00
C1620  C     0.74234   0.58402   0.88923   0.00000  Uiso   1.00
C1621  C     0.75333   0.61325   0.86014   0.00000  Uiso   1.00
C1622  C     0.68385   0.94147   0.10386   0.00000  Uiso   1.00
C1623  C     0.66989   0.90531   0.11942   0.00000  Uiso   1.00
C1624  C     0.91598   0.74238   0.88923   0.00000  Uiso   1.00
C1625  C     0.75000   0.50000   0.39815   0.00000  Uiso   1.00
C1626  C     0.88676   0.75338   0.86013   0.00000  Uiso   1.00
C1627  C     0.55848   0.68380   0.10385   0.00000  Uiso   1.00
C1628  C     0.59466   0.66981   0.11932   0.00000  Uiso   1.00
C1629  C     0.75766   0.91598   0.88922   0.00000  Uiso   1.00
C1630  C     0.74667   0.88676   0.86013   0.00000  Uiso   1.00
C1631  C     0.81615   0.55853   0.10386   0.00000  Uiso   1.00
C1632  C     0.83011   0.59469   0.11942   0.00000  Uiso   1.00
C1633  C     0.58402   0.75762   0.88923   0.00000  Uiso   1.00
C1634  C     0.61324   0.74662   0.86014   0.00000  Uiso   1.00
C1635  C     0.94152   0.81619   0.10385   0.00000  Uiso   1.00
C1636  C     0.51114   0.71860   0.58213   0.00000  Uiso   1.00
C1637  C     0.75000   0.50000   0.60212   0.00000  Uiso   1.00
C1638  C     0.90535   0.83018   0.11936   0.00000  Uiso   1.00
C1639  C     0.75000   0.50000   0.89788   0.00000  Uiso   1.00
C1640  C     0.75000   0.50000   0.10185   0.00000  Uiso   1.00
C1641  C     0.50000   0.75000   0.89788   0.00000  Uiso   1.00
C1642  C     0.50000   0.75000   0.10185   0.00000  Uiso   1.00
C1643  C     0.52445   0.68838   0.48000   0.00000  Uiso   1.00
C1644  C     0.97595   0.81179   0.52051   0.00000  Uiso   1.00
C1645  C     0.81163   0.52441   0.48000   0.00000  Uiso   1.00
C1646  C     0.68819   0.97599   0.52051   0.00000  Uiso   1.00
C1647  C     0.97555   0.81162   0.48000   0.00000  Uiso   1.00
C1648  C     0.72019   0.98504   0.41824   0.00000  Uiso   1.00
C1649  C     0.52405   0.68821   0.52051   0.00000  Uiso   1.00
C1650  C     0.68837   0.97559   0.48000   0.00000  Uiso   1.00
C1651  C     0.81181   0.52401   0.52051   0.00000  Uiso   1.00
C1652  C     0.72599   0.93819   0.97949   0.00000  Uiso   1.00
C1653  C     0.77441   0.56163   0.02000   0.00000  Uiso   1.00
C1654  C     0.56179   0.72595   0.97949   0.00000  Uiso   1.00
C1655  C     0.93838   0.77445   0.02000   0.00000  Uiso   1.00
C1656  C     0.77401   0.56181   0.97949   0.00000  Uiso   1.00
C1657  C     0.72559   0.93836   0.02000   0.00000  Uiso   1.00
C1658  C     0.93821   0.77405   0.97949   0.00000  Uiso   1.00
C1659  C     0.78140   0.51112   0.58213   0.00000  Uiso   1.00
C1660  C     0.56162   0.72555   0.02000   0.00000  Uiso   1.00
C1661  C     0.75000   0.50000   0.35580   0.00000  Uiso   1.00
C1662  C     0.75000   0.50000   0.64431   0.00000  Uiso   1.00
C1663  C     0.50000   0.75000   0.35580   0.00000  Uiso   1.00
C1664  C     0.50000   0.75000   0.64431   0.00000  Uiso   1.00
C1665  C     0.50000   0.75000   0.85569   0.00000  Uiso   1.00
C1666  C     0.50000   0.75000   0.14420   0.00000  Uiso   1.00
C1667  C     0.75000   0.50000   0.85569   0.00000  Uiso   1.00
C1668  C     0.75000   0.50000   0.14420   0.00000  Uiso   1.00
C1669  C     0.68000   0.57000   0.25000   0.00000  Uiso   1.00
C1670  C     0.51498   0.72020   0.41824   0.00000  Uiso   1.00
C1671  C     0.82003   0.92997   0.75000   0.00000  Uiso   1.00
C1672  C     0.93000   0.68000   0.25000   0.00000  Uiso   1.00
C1673  C     0.57003   0.82003   0.75000   0.00000  Uiso   1.00
C1674  C     0.82000   0.93000   0.25000   0.00000  Uiso   1.00
C1675  C     0.67997   0.57003   0.75000   0.00000  Uiso   1.00
C1676  C     0.57000   0.82000   0.25000   0.00000  Uiso   1.00
C1677  C     0.92997   0.67997   0.75000   0.00000  Uiso   1.00
C1678  C     0.67996   0.92996   0.75000   0.00000  Uiso   1.00
C1679  C     0.82011   0.57011   0.25000   0.00000  Uiso   1.00
C1680  C     0.92996   0.82004   0.75000   0.00000  Uiso   1.00
C1681  C     0.98886   0.78140   0.58213   0.00000  Uiso   1.00
C1682  C     0.57011   0.67989   0.25000   0.00000  Uiso   1.00
C1683  C     0.82004   0.57004   0.75000   0.00000  Uiso   1.00
C1684  C     0.67989   0.92989   0.25000   0.00000  Uiso   1.00
C1685  C     0.57004   0.67996   0.75000   0.00000  Uiso   1.00
C1686  C     0.92989   0.82011   0.25000   0.00000  Uiso   1.00
C1687  C     0.62419   0.90191   0.22109   0.00000  Uiso   1.00
C1688  C     0.85784   0.61520   0.78526   0.00000  Uiso   1.00
C1689  C     0.59810   0.62419   0.22108   0.00000  Uiso   1.00
C1690  C     0.88481   0.85786   0.78526   0.00000  Uiso   1.00
C1691  C     0.87581   0.59809   0.22109   0.00000  Uiso   1.00
C1692  C     0.77981   0.51496   0.41824   0.00000  Uiso   1.00
C1693  C     0.64215   0.88480   0.78526   0.00000  Uiso   1.00
C1694  C     0.90191   0.87581   0.22109   0.00000  Uiso   1.00
C1695  C     0.61519   0.64214   0.78526   0.00000  Uiso   1.00
C1696  C     0.64205   0.61501   0.78530   0.00000  Uiso   1.00
C1697  C     0.87249   0.89970   0.21853   0.00000  Uiso   1.00
C1698  C     0.61502   0.85794   0.78529   0.00000  Uiso   1.00
C1699  C     0.89970   0.62751   0.21853   0.00000  Uiso   1.00
C1700  C     0.85795   0.88499   0.78530   0.00000  Uiso   1.00
C1701  C     0.62752   0.60031   0.21853   0.00000  Uiso   1.00
C1702  C     0.88498   0.64206   0.78529   0.00000  Uiso   1.00
C1703  C     0.71859   0.98888   0.58213   0.00000  Uiso   1.00
C1704  C     0.60030   0.87249   0.21853   0.00000  Uiso   1.00
C1705  C     0.89206   0.63498   0.71471   0.00000  Uiso   1.00
C1706  C     0.62249   0.85030   0.28147   0.00000  Uiso   1.00
C1707  C     0.86501   0.89205   0.71470   0.00000  Uiso   1.00
C1708  C     0.64969   0.62248   0.28147   0.00000  Uiso   1.00
C1709  C     0.60794   0.86502   0.71471   0.00000  Uiso   1.00
C1710  C     0.87751   0.64970   0.28147   0.00000  Uiso   1.00
C1711  C     0.63499   0.60795   0.71470   0.00000  Uiso   1.00
C1712  C     0.85030   0.87751   0.28147   0.00000  Uiso   1.00
C1713  C     0.87419   0.84809   0.27891   0.00000  Uiso   1.00
C1714  C     0.76112   0.53140   0.91787   0.00000  Uiso   1.00
C1715  C     0.60786   0.63481   0.71474   0.00000  Uiso   1.00
C1716  C     0.84809   0.62581   0.27891   0.00000  Uiso   1.00
C1717  C     0.63480   0.89215   0.71474   0.00000  Uiso   1.00
C1718  C     0.62581   0.65190   0.27891   0.00000  Uiso   1.00
C1719  C     0.89214   0.86519   0.71474   0.00000  Uiso   1.00
C1720  C     0.65191   0.87419   0.27891   0.00000  Uiso   1.00
C1721  C     0.86520   0.60784   0.71474   0.00000  Uiso   1.00
C1722  C     0.51318   0.71931   0.45917   0.00000  Uiso   1.00
C1723  C     0.98805   0.78122   0.54126   0.00000  Uiso   1.00
C1724  C     0.78070   0.51316   0.45917   0.00000  Uiso   1.00
H1725  H     0.53371   0.66410   0.46511   0.00000  Uiso   1.00
H1726  H     0.78364   0.58592   0.03489   0.00000  Uiso   1.00
H1727  H     0.68955   0.91704   0.65145   0.00000  Uiso   1.00
H1728  H     0.63725   0.72373   0.27023   0.00000  Uiso   1.00
H1729  H     0.67686   0.69644   0.28017   0.00000  Uiso   1.00
H1730  H     0.65828   0.72489   0.31747   0.00000  Uiso   1.00
H1731  H     0.88581   0.84234   0.63102   0.00000  Uiso   1.00
H1732  H     0.87308   0.81611   0.67358   0.00000  Uiso   1.00
H1733  H     0.91701   0.81042   0.65145   0.00000  Uiso   1.00
H1734  H     0.72373   0.86275   0.27020   0.00000  Uiso   1.00
H1735  H     0.69644   0.82313   0.28014   0.00000  Uiso   1.00
H1736  H     0.72491   0.84171   0.31743   0.00000  Uiso   1.00
H1737  H     0.58602   0.71664   0.96452   0.00000  Uiso   1.00
H1738  H     0.84238   0.61414   0.63102   0.00000  Uiso   1.00
H1739  H     0.81613   0.62689   0.67356   0.00000  Uiso   1.00
H1740  H     0.81046   0.58295   0.65145   0.00000  Uiso   1.00
H1741  H     0.92144   0.80401   0.42542   0.00000  Uiso   1.00
H1742  H     0.92436   0.78646   0.37639   0.00000  Uiso   1.00
H1743  H     0.93046   0.84945   0.35077   0.00000  Uiso   1.00
H1744  H     0.88960   0.84439   0.37977   0.00000  Uiso   1.00
H1745  H     0.92886   0.86716   0.39997   0.00000  Uiso   1.00
H1746  H     0.98281   0.65250   0.58358   0.00000  Uiso   1.00
H1747  H     0.96939   0.68162   0.62371   0.00000  Uiso   1.00
H1748  H     0.91410   0.78370   0.03489   0.00000  Uiso   1.00
H1749  H     0.51182   0.64960   0.66776   0.00000  Uiso   1.00
H1750  H     0.97998   0.61837   0.64554   0.00000  Uiso   1.00
H1751  H     0.52636   0.62049   0.62807   0.00000  Uiso   1.00
H1752  H     0.69591   0.92148   0.42542   0.00000  Uiso   1.00
H1753  H     0.71352   0.92439   0.37641   0.00000  Uiso   1.00
H1754  H     0.65056   0.93053   0.35070   0.00000  Uiso   1.00
H1755  H     0.65555   0.88967   0.37971   0.00000  Uiso   1.00
H1756  H     0.63279   0.92894   0.39988   0.00000  Uiso   1.00
H1757  H     0.84749   0.98277   0.58359   0.00000  Uiso   1.00
H1758  H     0.81836   0.96936   0.62372   0.00000  Uiso   1.00
H1759  H     0.78330   0.58604   0.96452   0.00000  Uiso   1.00
H1760  H     0.85040   0.51179   0.66777   0.00000  Uiso   1.00
H1761  H     0.88162   0.97993   0.64555   0.00000  Uiso   1.00
H1762  H     0.87952   0.52631   0.62807   0.00000  Uiso   1.00
H1763  H     0.57856   0.69601   0.42542   0.00000  Uiso   1.00
H1764  H     0.57564   0.71353   0.37637   0.00000  Uiso   1.00
H1765  H     0.56954   0.65052   0.35080   0.00000  Uiso   1.00
H1766  H     0.61040   0.65560   0.37979   0.00000  Uiso   1.00
H1767  H     0.57115   0.63284   0.40001   0.00000  Uiso   1.00
H1768  H     0.51718   0.84750   0.58358   0.00000  Uiso   1.00
H1769  H     0.53061   0.81838   0.62371   0.00000  Uiso   1.00
H1770  H     0.71636   0.91407   0.03489   0.00000  Uiso   1.00
H1771  H     0.98818   0.85039   0.66777   0.00000  Uiso   1.00
H1772  H     0.52002   0.88162   0.64555   0.00000  Uiso   1.00
H1773  H     0.97364   0.87950   0.62808   0.00000  Uiso   1.00
H1774  H     0.80409   0.57852   0.42542   0.00000  Uiso   1.00
H1775  H     0.78648   0.57561   0.37641   0.00000  Uiso   1.00
H1776  H     0.84944   0.56947   0.35070   0.00000  Uiso   1.00
H1777  H     0.84445   0.61033   0.37971   0.00000  Uiso   1.00
H1778  H     0.86721   0.57105   0.39988   0.00000  Uiso   1.00
H1779  H     0.65251   0.51724   0.58359   0.00000  Uiso   1.00
H1780  H     0.68164   0.53064   0.62372   0.00000  Uiso   1.00
H1781  H     0.91398   0.78335   0.96452   0.00000  Uiso   1.00
H1782  H     0.64959   0.98821   0.66776   0.00000  Uiso   1.00
H1783  H     0.61838   0.52007   0.64554   0.00000  Uiso   1.00
H1784  H     0.62048   0.97369   0.62806   0.00000  Uiso   1.00
H1785  H     0.73276   0.59749   0.91641   0.00000  Uiso   1.00
H1786  H     0.71936   0.56836   0.87627   0.00000  Uiso   1.00
H1787  H     0.76179   0.60042   0.83224   0.00000  Uiso   1.00
H1788  H     0.72993   0.63162   0.85446   0.00000  Uiso   1.00
H1789  H     0.77631   0.62952   0.87195   0.00000  Uiso   1.00
H1790  H     0.67148   0.94590   0.07458   0.00000  Uiso   1.00
H1791  H     0.67440   0.96352   0.12359   0.00000  Uiso   1.00
H1792  H     0.58590   0.71629   0.03489   0.00000  Uiso   1.00
H1793  H     0.68053   0.90056   0.14930   0.00000  Uiso   1.00
H1794  H     0.63967   0.90555   0.12029   0.00000  Uiso   1.00
H1795  H     0.67895   0.88278   0.10013   0.00000  Uiso   1.00
H1796  H     0.90250   0.73281   0.91642   0.00000  Uiso   1.00
H1797  H     0.93162   0.71939   0.87629   0.00000  Uiso   1.00
H1798  H     0.89961   0.76182   0.83223   0.00000  Uiso   1.00
H1799  H     0.86838   0.72998   0.85445   0.00000  Uiso   1.00
H1800  H     0.87050   0.77636   0.87193   0.00000  Uiso   1.00
H1801  H     0.55398   0.67144   0.07458   0.00000  Uiso   1.00
H1802  H     0.53647   0.67436   0.12363   0.00000  Uiso   1.00
H1803  H     0.61275   0.97373   0.22980   0.00000  Uiso   1.00
H1804  H     0.59949   0.68045   0.14919   0.00000  Uiso   1.00
H1805  H     0.59440   0.63960   0.12020   0.00000  Uiso   1.00
H1806  H     0.61716   0.67885   0.09997   0.00000  Uiso   1.00
H1807  H     0.76724   0.90251   0.91641   0.00000  Uiso   1.00
H1808  H     0.78064   0.93164   0.87628   0.00000  Uiso   1.00
H1809  H     0.73821   0.89960   0.83223   0.00000  Uiso   1.00
H1810  H     0.77007   0.86838   0.85445   0.00000  Uiso   1.00
H1811  H     0.72369   0.87048   0.87193   0.00000  Uiso   1.00
H1812  H     0.82852   0.55410   0.07458   0.00000  Uiso   1.00
H1813  H     0.82560   0.53648   0.12359   0.00000  Uiso   1.00
H1814  H     0.57313   0.94645   0.21986   0.00000  Uiso   1.00
H1815  H     0.81947   0.59944   0.14930   0.00000  Uiso   1.00
H1816  H     0.86033   0.59445   0.12029   0.00000  Uiso   1.00
H1817  H     0.82105   0.61722   0.10013   0.00000  Uiso   1.00
H1818  H     0.59750   0.76719   0.91642   0.00000  Uiso   1.00
H1819  H     0.56838   0.78061   0.87629   0.00000  Uiso   1.00
H1820  H     0.60040   0.73818   0.83224   0.00000  Uiso   1.00
H1821  H     0.63162   0.77002   0.85446   0.00000  Uiso   1.00
H1822  H     0.62950   0.72364   0.87193   0.00000  Uiso   1.00
H1823  H     0.94598   0.82856   0.07458   0.00000  Uiso   1.00
H1824  H     0.96355   0.82563   0.12360   0.00000  Uiso   1.00
H1825  H     0.59171   0.97491   0.18257   0.00000  Uiso   1.00
H1826  H     0.90056   0.81954   0.14924   0.00000  Uiso   1.00
H1827  H     0.90560   0.86039   0.12024   0.00000  Uiso   1.00
H1828  H     0.88283   0.82113   0.10005   0.00000  Uiso   1.00
H1829  H     0.96664   0.83602   0.53548   0.00000  Uiso   1.00
H1830  H     0.86415   0.59238   0.86898   0.00000  Uiso   1.00
H1831  H     0.87688   0.56613   0.82643   0.00000  Uiso   1.00
H1832  H     0.83295   0.56046   0.84856   0.00000  Uiso   1.00
H1833  H     0.52627   0.61275   0.22977   0.00000  Uiso   1.00
H1834  H     0.55356   0.57314   0.21982   0.00000  Uiso   1.00
H1835  H     0.52511   0.59172   0.18252   0.00000  Uiso   1.00
H1836  H     0.90766   0.86419   0.86898   0.00000  Uiso   1.00
H1837  H     0.93389   0.87692   0.82641   0.00000  Uiso   1.00
H1838  H     0.93958   0.83299   0.84855   0.00000  Uiso   1.00
H1839  H     0.88725   0.52627   0.22980   0.00000  Uiso   1.00
H1840  H     0.83592   0.53364   0.46511   0.00000  Uiso   1.00
H1841  H     0.92687   0.55355   0.21986   0.00000  Uiso   1.00
H1842  H     0.90829   0.52509   0.18256   0.00000  Uiso   1.00
H1843  H     0.63585   0.90762   0.86898   0.00000  Uiso   1.00
H1844  H     0.62311   0.93387   0.82643   0.00000  Uiso   1.00
H1845  H     0.66704   0.93955   0.84855   0.00000  Uiso   1.00
H1846  H     0.97373   0.88725   0.22980   0.00000  Uiso   1.00
H1847  H     0.94644   0.92687   0.21986   0.00000  Uiso   1.00
H1848  H     0.97491   0.90829   0.18256   0.00000  Uiso   1.00
H1849  H     0.59234   0.63581   0.86898   0.00000  Uiso   1.00
H1850  H     0.56611   0.62308   0.82641   0.00000  Uiso   1.00
H1851  H     0.66396   0.96670   0.53548   0.00000  Uiso   1.00
H1852  H     0.56042   0.66701   0.84855   0.00000  Uiso   1.00
H1853  H     0.66004   0.55659   0.84324   0.00000  Uiso   1.00
H1854  H     0.61554   0.57427   0.83181   0.00000  Uiso   1.00
H1855  H     0.64124   0.59212   0.87229   0.00000  Uiso   1.00
H1856  H     0.91084   0.94089   0.16060   0.00000  Uiso   1.00
H1857  H     0.89415   0.96139   0.20581   0.00000  Uiso   1.00
H1858  H     0.87056   0.96794   0.16075   0.00000  Uiso   1.00
H1859  H     0.55662   0.83993   0.84325   0.00000  Uiso   1.00
H1860  H     0.57430   0.88443   0.83183   0.00000  Uiso   1.00
H1861  H     0.59216   0.85871   0.87230   0.00000  Uiso   1.00
H1862  H     0.96630   0.83590   0.46511   0.00000  Uiso   1.00
H1863  H     0.94089   0.58916   0.16060   0.00000  Uiso   1.00
H1864  H     0.96139   0.60585   0.20581   0.00000  Uiso   1.00
H1865  H     0.96794   0.62944   0.16075   0.00000  Uiso   1.00
H1866  H     0.83996   0.94340   0.84324   0.00000  Uiso   1.00
H1867  H     0.88446   0.92573   0.83181   0.00000  Uiso   1.00
H1868  H     0.85876   0.90788   0.87229   0.00000  Uiso   1.00
H1869  H     0.58917   0.55912   0.16057   0.00000  Uiso   1.00
H1870  H     0.60586   0.53861   0.20579   0.00000  Uiso   1.00
H1871  H     0.62946   0.53208   0.16074   0.00000  Uiso   1.00
H1872  H     0.92569   0.61557   0.83184   0.00000  Uiso   1.00
H1873  H     0.53336   0.66398   0.53548   0.00000  Uiso   1.00
H1874  H     0.90784   0.64130   0.87230   0.00000  Uiso   1.00
H1875  H     0.94338   0.66007   0.84324   0.00000  Uiso   1.00
H1876  H     0.55910   0.91085   0.16060   0.00000  Uiso   1.00
H1877  H     0.53861   0.89415   0.20581   0.00000  Uiso   1.00
H1878  H     0.53206   0.87056   0.16075   0.00000  Uiso   1.00
H1879  H     0.91008   0.69337   0.65675   0.00000  Uiso   1.00
H1880  H     0.86557   0.67570   0.66816   0.00000  Uiso   1.00
H1881  H     0.89129   0.65784   0.62770   0.00000  Uiso   1.00
H1882  H     0.66084   0.80910   0.33940   0.00000  Uiso   1.00
H1883  H     0.64415   0.78861   0.29419   0.00000  Uiso   1.00
H1884  H     0.66408   0.96636   0.46511   0.00000  Uiso   1.00
H1885  H     0.62056   0.78206   0.33925   0.00000  Uiso   1.00
H1886  H     0.80660   0.91004   0.65676   0.00000  Uiso   1.00
H1887  H     0.82427   0.86554   0.66819   0.00000  Uiso   1.00
H1888  H     0.84212   0.89124   0.62771   0.00000  Uiso   1.00
H1889  H     0.69088   0.66083   0.33942   0.00000  Uiso   1.00
H1890  H     0.71138   0.64414   0.29421   0.00000  Uiso   1.00
H1891  H     0.71792   0.62054   0.33926   0.00000  Uiso   1.00
H1892  H     0.63443   0.82429   0.66817   0.00000  Uiso   1.00
H1893  H     0.60872   0.84215   0.62770   0.00000  Uiso   1.00
H1894  H     0.58992   0.80662   0.65675   0.00000  Uiso   1.00
H1895  H     0.83604   0.53330   0.53548   0.00000  Uiso   1.00
H1896  H     0.83915   0.69089   0.33940   0.00000  Uiso   1.00
H1897  H     0.85585   0.71139   0.29419   0.00000  Uiso   1.00
H1898  H     0.87944   0.71794   0.33925   0.00000  Uiso   1.00
H1899  H     0.69340   0.58996   0.65676   0.00000  Uiso   1.00
H1900  H     0.67573   0.63446   0.66819   0.00000  Uiso   1.00
H1901  H     0.65788   0.60876   0.62771   0.00000  Uiso   1.00
H1902  H     0.80911   0.83916   0.33941   0.00000  Uiso   1.00
H1903  H     0.78861   0.85585   0.29419   0.00000  Uiso   1.00
H1904  H     0.78206   0.87944   0.33925   0.00000  Uiso   1.00
H1905  H     0.86275   0.77627   0.27020   0.00000  Uiso   1.00
H1906  H     0.71670   0.91396   0.96452   0.00000  Uiso   1.00
H1907  H     0.82313   0.80356   0.28015   0.00000  Uiso   1.00
H1908  H     0.84171   0.77509   0.31744   0.00000  Uiso   1.00
H1909  H     0.61418   0.65766   0.63102   0.00000  Uiso   1.00
H1910  H     0.62692   0.68389   0.67358   0.00000  Uiso   1.00
H1911  H     0.58299   0.68958   0.65145   0.00000  Uiso   1.00
H1912  H     0.77627   0.63725   0.27019   0.00000  Uiso   1.00
H1913  H     0.80355   0.67687   0.28014   0.00000  Uiso   1.00
H1914  H     0.77509   0.65829   0.31743   0.00000  Uiso   1.00
H1915  H     0.65762   0.88585   0.63102   0.00000  Uiso   1.00
H1916  H     0.68387   0.87311   0.67356   0.00000  Uiso   1.00
O1917  O     0.75000   0.50000   0.25000   0.00000  Uiso   1.00
O1918  O     0.75000   0.96963   0.66245   0.00000  Uiso   1.00
O1919  O     0.94042   0.77772   0.10251   0.00000  Uiso   1.00
O1920  O     0.96963   0.75000   0.33755   0.00000  Uiso   1.00
O1921  O     0.53036   0.75000   0.66245   0.00000  Uiso   1.00
O1922  O     0.50000   0.71963   0.83755   0.00000  Uiso   1.00
O1923  O     0.50000   0.78036   0.16245   0.00000  Uiso   1.00
O1924  O     0.78036   0.50000   0.83755   0.00000  Uiso   1.00
O1925  O     0.71963   0.50000   0.16245   0.00000  Uiso   1.00
O1926  O     0.50000   0.78036   0.83755   0.00000  Uiso   1.00
O1927  O     0.50000   0.71963   0.16245   0.00000  Uiso   1.00
O1928  O     0.71963   0.50000   0.83755   0.00000  Uiso   1.00
O1929  O     0.75000   0.50000   0.75000   0.00000  Uiso   1.00
O1930  O     0.78036   0.50000   0.16245   0.00000  Uiso   1.00
O1931  O     0.70724   0.57307   0.27302   0.00000  Uiso   1.00
O1932  O     0.79275   0.92692   0.72698   0.00000  Uiso   1.00
O1933  O     0.92692   0.70724   0.27302   0.00000  Uiso   1.00
O1934  O     0.57307   0.79275   0.72698   0.00000  Uiso   1.00
O1935  O     0.79275   0.92692   0.27302   0.00000  Uiso   1.00
O1936  O     0.70724   0.57307   0.72698   0.00000  Uiso   1.00
O1937  O     0.57307   0.79275   0.27302   0.00000  Uiso   1.00
O1938  O     0.92692   0.70724   0.72698   0.00000  Uiso   1.00
O1939  O     0.70724   0.92692   0.72698   0.00000  Uiso   1.00
O1940  O     0.50000   0.75000   0.25000   0.00000  Uiso   1.00
O1941  O     0.79275   0.57307   0.27302   0.00000  Uiso   1.00
O1942  O     0.92692   0.79275   0.72698   0.00000  Uiso   1.00
O1943  O     0.57307   0.70724   0.27302   0.00000  Uiso   1.00
O1944  O     0.79275   0.57307   0.72698   0.00000  Uiso   1.00
O1945  O     0.70724   0.92692   0.27302   0.00000  Uiso   1.00
O1946  O     0.57307   0.70724   0.72698   0.00000  Uiso   1.00
O1947  O     0.92692   0.79275   0.27302   0.00000  Uiso   1.00
O1948  O     0.95724   0.82307   0.77302   0.00000  Uiso   1.00
O1949  O     0.54275   0.67692   0.22698   0.00000  Uiso   1.00
O1950  O     0.67692   0.95724   0.77302   0.00000  Uiso   1.00
O1951  O     0.50000   0.75000   0.75000   0.00000  Uiso   1.00
O1952  O     0.82307   0.54275   0.22698   0.00000  Uiso   1.00
O1953  O     0.54275   0.67692   0.77302   0.00000  Uiso   1.00
O1954  O     0.95724   0.82307   0.22698   0.00000  Uiso   1.00
O1955  O     0.82307   0.54275   0.77302   0.00000  Uiso   1.00
O1956  O     0.67692   0.95724   0.22698   0.00000  Uiso   1.00
O1957  O     0.95724   0.67692   0.22698   0.00000  Uiso   1.00
O1958  O     0.54275   0.82307   0.77302   0.00000  Uiso   1.00
O1959  O     0.67692   0.54275   0.22698   0.00000  Uiso   1.00
O1960  O     0.82307   0.95724   0.77302   0.00000  Uiso   1.00
O1961  O     0.54275   0.82307   0.22698   0.00000  Uiso   1.00
O1962  O     0.75000   0.96963   0.33755   0.00000  Uiso   1.00
O1963  O     0.95724   0.67692   0.77302   0.00000  Uiso   1.00
O1964  O     0.82307   0.95724   0.22698   0.00000  Uiso   1.00
O1965  O     0.67692   0.54275   0.77302   0.00000  Uiso   1.00
O1966  O     0.62213   0.92905   0.19324   0.00000  Uiso   1.00
O1967  O     0.83783   0.60885   0.81880   0.00000  Uiso   1.00
O1968  O     0.57097   0.62215   0.19323   0.00000  Uiso   1.00
O1969  O     0.89118   0.83785   0.81881   0.00000  Uiso   1.00
O1970  O     0.87787   0.57095   0.19324   0.00000  Uiso   1.00
O1971  O     0.66217   0.89115   0.81880   0.00000  Uiso   1.00
O1972  O     0.92905   0.87787   0.19324   0.00000  Uiso   1.00
O1973  O     0.75000   0.53036   0.66245   0.00000  Uiso   1.00
O1974  O     0.60882   0.66215   0.81881   0.00000  Uiso   1.00
O1975  O     0.66158   0.60810   0.81904   0.00000  Uiso   1.00
O1976  O     0.86454   0.91661   0.18332   0.00000  Uiso   1.00
O1977  O     0.60812   0.83840   0.81904   0.00000  Uiso   1.00
O1978  O     0.91661   0.63546   0.18332   0.00000  Uiso   1.00
O1979  O     0.83842   0.89190   0.81904   0.00000  Uiso   1.00
O1980  O     0.63547   0.58340   0.18331   0.00000  Uiso   1.00
O1981  O     0.89188   0.66160   0.81904   0.00000  Uiso   1.00
O1982  O     0.58339   0.86455   0.18332   0.00000  Uiso   1.00
O1983  O     0.91160   0.64188   0.68096   0.00000  Uiso   1.00
O1984  O     0.53036   0.75000   0.33755   0.00000  Uiso   1.00
O1985  O     0.61454   0.83339   0.31668   0.00000  Uiso   1.00
O1986  O     0.85810   0.91158   0.68095   0.00000  Uiso   1.00
O1987  O     0.66660   0.61453   0.31668   0.00000  Uiso   1.00
O1988  O     0.58840   0.85812   0.68096   0.00000  Uiso   1.00
O1989  O     0.88546   0.66661   0.31668   0.00000  Uiso   1.00
O1990  O     0.64190   0.58842   0.68095   0.00000  Uiso   1.00
O1991  O     0.83339   0.88546   0.31668   0.00000  Uiso   1.00
O1992  O     0.87214   0.82095   0.30676   0.00000  Uiso   1.00
O1993  O     0.58785   0.64118   0.68119   0.00000  Uiso   1.00
O1994  O     0.82095   0.62787   0.30676   0.00000  Uiso   1.00
O1995  O     0.96963   0.75000   0.66245   0.00000  Uiso   1.00
O1996  O     0.64115   0.91217   0.68120   0.00000  Uiso   1.00
O1997  O     0.62785   0.67903   0.30677   0.00000  Uiso   1.00
O1998  O     0.91214   0.85882   0.68119   0.00000  Uiso   1.00
O1999  O     0.67905   0.87213   0.30675   0.00000  Uiso   1.00
O2000  O     0.85885   0.58783   0.68120   0.00000  Uiso   1.00
O2001  O     0.97228   0.80958   0.39749   0.00000  Uiso   1.00
O2002  O     0.52275   0.68839   0.60286   0.00000  Uiso   1.00
O2003  O     0.69040   0.97232   0.39749   0.00000  Uiso   1.00
O2004  O     0.81162   0.52272   0.60286   0.00000  Uiso   1.00
O2005  O     0.52772   0.69042   0.39749   0.00000  Uiso   1.00
O2006  O     0.75000   0.53036   0.33755   0.00000  Uiso   1.00
O2007  O     0.97725   0.81161   0.60286   0.00000  Uiso   1.00
O2008  O     0.80960   0.52768   0.39749   0.00000  Uiso   1.00
O2009  O     0.68838   0.97728   0.60286   0.00000  Uiso   1.00
O2010  O     0.77272   0.56162   0.89714   0.00000  Uiso   1.00
O2011  O     0.72232   0.94040   0.10251   0.00000  Uiso   1.00
O2012  O     0.93839   0.77275   0.89714   0.00000  Uiso   1.00
O2013  O     0.55958   0.72228   0.10251   0.00000  Uiso   1.00
O2014  O     0.72728   0.93838   0.89714   0.00000  Uiso   1.00
O2015  O     0.77768   0.55960   0.10251   0.00000  Uiso   1.00
O2016  O     0.56161   0.72725   0.89714   0.00000  Uiso   1.00
Zn2017 Zn    0.70659   0.50000   0.21735   0.00000  Uiso   1.00
Zn2018 Zn    0.54340   0.75000   0.28265   0.00000  Uiso   1.00
Zn2019 Zn    0.75000   0.95659   0.71735   0.00000  Uiso   1.00
Zn2020 Zn    0.75000   0.54340   0.28265   0.00000  Uiso   1.00
Zn2021 Zn    0.54340   0.75000   0.71735   0.00000  Uiso   1.00
Zn2022 Zn    0.95659   0.75000   0.28265   0.00000  Uiso   1.00
Zn2023 Zn    0.75000   0.54340   0.71735   0.00000  Uiso   1.00
Zn2024 Zn    0.75000   0.95659   0.28265   0.00000  Uiso   1.00
Zn2025 Zn    0.79340   0.50000   0.78265   0.00000  Uiso   1.00
Zn2026 Zn    0.50000   0.70659   0.21735   0.00000  Uiso   1.00
Zn2027 Zn    0.50000   0.79340   0.78265   0.00000  Uiso   1.00
Zn2028 Zn    0.79340   0.50000   0.21735   0.00000  Uiso   1.00
Zn2029 Zn    0.70659   0.50000   0.78265   0.00000  Uiso   1.00
Zn2030 Zn    0.50000   0.79340   0.21735   0.00000  Uiso   1.00
Zn2031 Zn    0.50000   0.70659   0.78265   0.00000  Uiso   1.00
Zn2032 Zn    0.95659   0.75000   0.71735   0.00000  Uiso   1.00
loop_
_geom_bond_atom_site_label_1
_geom_bond_atom_site_label_2
_geom_bond_distance
_geom_bond_site_symmetry_2
_ccdc_geom_bond_type
C1     O477    1.386   .     S
C1     C4      1.406   .     A
C1     C587    1.406   .     S
C2     C1132   1.406   .     A
C2     C14     1.406   .     A
C2     O487    1.386   .     S
C3     C179    1.402   .     A
C3     C1054   1.415   .     A
C3     C122    1.402   .     A
C4     C123    1.404   .     A
C4     C542    1.414   .     S
C5     C36     1.415   .     A
C5     C112    1.402   .     A
C5     C125    1.402   .     A
C6     C126    1.404   .     A
C6     C124    1.406   .     A
C6     C1053   1.414   .     A
C7     C135    1.402   .     A
C7     C127    1.402   .     A
C7     C38     1.415   .     S
C8     C35     1.402   .     A
C8     C128    1.402   .     A
C8     C1055   1.415   .     S
C9     C46     1.406   .     A
C9     C129    1.404   .     A
C9     C40     1.414   .     S
C10    C130    1.402   .     A
C10    C57     1.402   .     A
C10    C41     1.415   .     S
C11    C550    1.414   .     A
C11    C68     1.406   .     A
C11    C131    1.404   .     A
C12    C132    1.402   .     A
C12    C190    1.402   .     A
C12    C39     1.415   .     A
C13    O488    1.385   .     S
C13    C625    1.403   .     A
C13    C15     1.402   .     A
C14    C133    1.404   .     A
C14    C1056   1.414   .     A
C15    C134    1.402   .     A
C15    C549    1.415   .     A
C16    C136    1.404   .     A
C16    C24     1.406   .     A
C16    C42     1.414   .     S
C17    C182    1.408   .     A
C17    C152    1.454   .     S
C17    C180    1.408   .     A
C18    C181    1.408   .     A
C18    C153    1.458   .     S
C18    C178    1.408   .     A
C19    C177    1.408   .     A
C19    C184    1.408   .     A
C19    C145    1.454   .     S
C20    C147    1.458   .     S
C20    C176    1.408   .     A
C20    C183    1.408   .     A
C21    C148    1.454   .     S
C21    C186    1.408   .     A
C21    C175    1.408   .     A
C22    C149    1.458   .     S
C22    C174    1.408   .     A
C22    C185    1.408   .     A
C23    C188    1.408   .     A
C23    C150    1.454   .     S
C23    C173    1.408   .     A
C24    O489    1.386   .     S
C24    C118    1.406   .     S
C25    C187    1.408   .     A
C25    C151    1.458   .     S
C25    C172    1.408   .     A
C26    C191    1.409   .     A
C26    C171    1.409   .     A
C26    C161    1.459   .     S
C27    C162    1.465   .     S
C27    C170    1.416   .     A
C27    C189    1.416   .     A
C28    C169    1.409   .     A
C28    C154    1.459   .     S
C28    C193    1.409   .     A
C29    C155    1.465   .     S
C29    C167    1.416   .     A
C29    C192    1.416   .     A
C30    C156    1.459   .     S
C30    C195    1.409   .     A
C30    C166    1.409   .     A
C31    C158    1.465   .     S
C31    C165    1.416   .     A
C31    C194    1.416   .     A
C32    C159    1.459   .     S
C32    C164    1.409   .     A
C32    C197    1.409   .     A
C33    C163    1.416   .     A
C33    C196    1.416   .     A
C33    C160    1.465   .     S
C34    C198    1.414   .     A
C34    C36     1.410   .     A
C34    C512    1.414   1_455 S
C35    O490    1.385   .     S
C35    C1131   1.403   .     S
C36    C707    1.415   1_455 S
C37    C38     1.410   .     A
C37    C1022   1.414   1_545 A
C37    C200    1.414   .     S
C38    C1019   1.415   1_545 A
C39    C1024   1.415   1_545 S
C39    C40     1.410   1_556 S
C40    C1030   1.414   1_545 A
C40    C39     1.410   1_554 S
C41    C523    1.415   1_455 A
C41    C42     1.410   1_556 S
C42    C519    1.414   1_455 A
C42    C41     1.410   1_554 S
C43    H279    1.109   .     S
C43    H290    1.112   .     S
C43    O442    1.416   .     S
C43    H301    1.108   .     S
C44    H307    1.117   .     S
C44    H306    1.108   .     S
C44    H308    1.109   .     S
C44    O443    1.415   .     S
C45    H310    1.112   .     S
C45    H309    1.109   .     S
C45    H311    1.108   .     S
C45    O444    1.416   .     S
C46    O491    1.386   .     S
C46    C116    1.406   .     S
C47    H313    1.117   .     S
C47    H312    1.108   .     S
C47    O445    1.415   .     S
C47    H314    1.109   .     S
C48    H318    1.108   .     S
C48    H315    1.109   .     S
C48    O446    1.416   .     S
C48    H317    1.112   .     S
C49    H319    1.108   .     S
C49    H321    1.109   .     S
C49    O447    1.415   .     S
C49    H320    1.117   .     S
C50    H324    1.108   .     S
C50    H322    1.109   .     S
C50    H323    1.112   .     S
C50    O448    1.416   .     S
C51    H328    1.109   .     S
C51    H326    1.117   .     S
C51    O450    1.415   .     S
C51    H325    1.108   .     S
C52    H331    1.109   .     S
C52    H329    1.108   .     S
C52    H330    1.116   .     S
C52    O451    1.415   .     S
C53    H332    1.109   .     S
C53    H333    1.114   .     S
C53    H334    1.110   .     S
C53    O452    1.411   .     S
C54    O453    1.415   .     S
C54    H336    1.116   .     S
C54    H335    1.108   .     S
C54    H337    1.109   .     S
C55    H341    1.110   .     S
C55    H340    1.114   .     S
C55    O454    1.411   .     S
C55    H339    1.109   .     S
C56    O455    1.415   .     S
C56    H343    1.116   .     S
C56    H342    1.108   .     S
C56    H344    1.109   .     S
C57    O492    1.385   .     S
C57    C117    1.403   .     S
C58    H346    1.114   .     S
C58    H347    1.110   .     S
C58    H345    1.109   .     S
C58    O456    1.411   .     S
C59    H348    1.116   .     S
C59    H351    1.108   .     S
C59    O457    1.415   .     S
C59    H350    1.109   .     S
C60    H352    1.109   .     S
C60    H354    1.110   .     S
C60    O458    1.411   .     S
C60    H353    1.114   .     S
C61    H355    1.108   .     S
C61    O459    1.415   .     S
C61    H357    1.109   .     S
C61    H356    1.116   .     S
C62    H358    1.109   .     S
C62    H359    1.114   .     S
C62    H361    1.110   .     S
C62    O461    1.411   .     S
C63    H364    1.109   .     S
C63    H362    1.108   .     S
C63    H363    1.116   .     S
C63    O462    1.415   .     S
C64    H365    1.109   .     S
C64    H367    1.110   .     S
C64    H366    1.114   .     S
C64    O463    1.411   .     S
C65    H368    1.116   .     S
C65    H370    1.108   .     S
C65    O464    1.415   .     S
C65    H369    1.109   .     S
C66    H372    1.109   .     S
C66    H373    1.114   .     S
C66    O465    1.411   .     S
C66    H374    1.110   .     S
C67    O466    1.415   .     S
C67    H377    1.109   .     S
C67    H375    1.108   .     S
C67    H376    1.116   .     S
C68    O395    1.386   .     S
C68    C626    1.406   .     A
C69    H379    1.114   .     S
C69    O467    1.411   .     S
C69    H378    1.109   .     S
C69    H380    1.110   .     S
C70    H381    1.109   .     S
C70    H384    1.108   .     S
C70    O468    1.416   .     S
C70    H383    1.112   .     S
C71    H387    1.109   .     S
C71    O469    1.415   .     S
C71    H385    1.108   .     S
C71    H386    1.117   .     S
C72    O470    1.416   .     S
C72    H390    1.108   .     S
C72    H388    1.109   .     S
C72    H389    1.112   .     S
C73    H392    1.117   .     S
C73    H203    1.109   .     S
C73    H391    1.108   .     S
C73    O472    1.415   .     S
C74    H204    1.110   .     S
C74    H205    1.112   .     S
C74    O473    1.416   .     S
C74    H206    1.108   .     S
C75    O474    1.415   .     S
C75    H207    1.108   .     S
C75    H208    1.117   .     S
C75    H209    1.109   .     S
C76    H210    1.109   .     S
C76    H212    1.108   .     S
C76    H211    1.112   .     S
C76    O475    1.416   .     S
C77    H215    1.117   .     S
C77    H214    1.108   .     S
C77    H216    1.109   .     S
C77    O476    1.415   .     S
C78    H217    1.114   .     S
C78    C80     1.521   .     S
C78    O477    1.415   .     S
C78    H218    1.111   .     S
C79    C146    1.406   .     A
C79    C509    1.406   1_455 S
C79    C139    1.452   .     S
C80    H221    1.111   .     S
C80    H219    1.111   .     S
C80    H220    1.110   .     S
C81    H222    1.113   .     S
C81    H223    1.114   .     S
C81    C590    1.520   .     S
C81    O986    1.413   .     S
C82    H227    1.111   .     S
C82    H225    1.111   .     S
C82    C589    1.520   1_455 S
C82    H734    1.110   1_455 S
C83    H228    1.114   .     S
C83    C84     1.521   .     S
C83    H229    1.111   .     S
C83    O479    1.415   .     S
C84    H230    1.111   .     S
C84    H232    1.111   .     S
C84    H231    1.110   .     S
C85    H233    1.113   .     S
C85    H234    1.114   .     S
C85    C1102   1.520   .     S
C85    O1496   1.413   .     S
C86    H238    1.111   .     S
C86    H236    1.111   .     S
C86    C1101   1.520   1_545 S
C86    H1253   1.110   1_545 S
C87    H239    1.114   .     S
C87    O481    1.415   .     S
C87    C88     1.521   .     S
C87    H240    1.111   .     S
C88    H241    1.111   .     S
C88    H243    1.111   .     S
C88    H242    1.110   .     S
C89    H245    1.114   .     S
C89    H244    1.113   .     S
C89    C599    1.520   1_455 S
C89    O991    1.413   1_455 S
C90    C112    1.403   .     A
C90    C140    1.447   .     S
C90    C665    1.403   1_455 S
C91    H249    1.111   .     S
C91    H247    1.111   .     S
C91    C597    1.520   .     S
C91    H756    1.110   .     S
C92    O484    1.415   .     S
C92    H250    1.114   .     S
C92    C93     1.521   .     S
C92    H251    1.111   .     S
C93    H254    1.111   .     S
C93    H253    1.110   .     S
C93    H252    1.111   .     S
C94    H255    1.113   .     S
C94    H256    1.114   .     S
C94    C1111   1.520   1_545 S
C94    O1501   1.413   1_545 S
C95    H260    1.111   .     S
C95    H258    1.111   .     S
C95    C1110   1.520   .     S
C95    H1275   1.110   .     S
C96    H262    1.114   .     S
C96    O486    1.413   .     S
C96    H261    1.113   .     S
C96    C97     1.520   .     S
C97    H265    1.111   .     S
C97    H263    1.111   .     S
C97    H264    1.110   .     S
C98    C99     1.521   .     S
C98    O487    1.415   .     S
C98    H266    1.114   .     S
C98    H267    1.111   .     S
C99    H270    1.110   .     S
C99    H271    1.111   .     S
C99    H269    1.111   .     S
C100   O488    1.413   .     S
C100   H272    1.113   .     S
C100   C102    1.520   .     S
C100   H273    1.114   .     S
C101   C137    1.452   .     S
C101   C1140   1.406   1_545 A
C101   C168    1.406   .     S
C102   H274    1.111   .     S
C102   H275    1.110   .     S
C102   H276    1.111   .     S
C103   H278    1.111   .     S
C103   O489    1.415   .     S
C103   C104    1.521   .     S
C103   H277    1.114   .     S
C104   H280    1.111   .     S
C104   H281    1.110   .     S
C104   H282    1.111   .     S
C105   O490    1.413   .     S
C105   H283    1.113   .     S
C105   C106    1.520   .     S
C105   H284    1.114   .     S
C106   H287    1.111   .     S
C106   H285    1.111   .     S
C106   H286    1.110   .     S
C107   O491    1.415   .     S
C107   C108    1.521   .     S
C107   H288    1.114   .     S
C107   H289    1.111   .     S
C108   H291    1.111   .     S
C108   H293    1.111   .     S
C108   H292    1.110   .     S
C109   O492    1.413   .     S
C109   H295    1.114   .     S
C109   C110    1.520   .     S
C109   H294    1.113   .     S
C110   H298    1.111   .     S
C110   H296    1.111   .     S
C110   H297    1.110   .     S
C111   O395    1.415   .     S
C111   H300    1.111   .     S
C111   H299    1.114   .     S
C111   C114    1.521   .     S
C112   O478    1.385   .     S
C113   C135    1.403   .     A
C113   C138    1.447   .     S
C113   C1195   1.403   1_545 S
C114   H302    1.111   .     S
C114   H304    1.111   .     S
C114   H303    1.110   .     S
C115   C190    1.403   .     A
C115   C1051   1.403   1_545 S
C115   C143    1.447   .     S
C116   C1018   1.406   1_545 A
C116   C144    1.452   .     S
C117   C141    1.447   .     S
C117   C521    1.403   1_455 A
C118   C576    1.406   1_455 A
C118   C142    1.452   .     S
C119   C198    1.404   .     A
C119   C125    1.389   .     A
C119   H201    1.083   .     S
C120   C199    1.402   .     A
C120   H305    1.083   .     S
C120   C123    1.389   .     A
C121   H316    1.083   .     S
C121   C127    1.389   .     A
C121   C200    1.404   .     A
C122   H327    1.083   .     S
C122   C126    1.389   .     A
C123   H338    1.083   .     S
C124   C1117   1.406   .     A
C124   O479    1.386   .     S
C125   H349    1.083   .     S
C126   H360    1.083   .     S
C127   H371    1.083   .     S
C128   H382    1.083   .     S
C128   C133    1.389   1_556 S
C129   H202    1.083   .     S
C129   C132    1.389   1_554 S
C130   H213    1.083   .     S
C130   C136    1.389   1_556 S
C131   H224    1.083   .     S
C131   C134    1.389   1_554 S
C132   H235    1.083   .     S
C132   C129    1.389   1_556 S
C133   H246    1.083   .     S
C133   C128    1.389   1_554 S
C134   H257    1.083   .     S
C134   C131    1.389   1_556 S
C135   O480    1.385   .     S
C136   H268    1.083   .     S
C136   C130    1.389   1_554 S
C137   O1454   1.279   1_545 A
C137   O482    1.279   .     S
C138   O1410   1.277   1_545 A
C138   O449    1.277   .     S
C139   O904    1.279   1_455 A
C139   O460    1.279   .     S
C140   O979    1.277   1_455 A
C140   O397    1.277   .     S
C141   O398    1.277   .     S
C141   O402    1.277   .     S
C142   O399    1.279   .     S
C142   O403    1.279   .     S
C143   O400    1.277   .     A
C143   O404    1.277   .     A
C144   O401    1.279   .     S
C144   O406    1.279   .     S
C145   O407    1.280   .     A
C145   O435    1.280   .     A
C146   C198    1.406   .     A
C146   O481    1.386   .     S
C147   O436    1.281   .     A
C147   O408    1.281   .     A
C148   O433    1.280   .     A
C148   O409    1.280   .     A
C149   O410    1.281   .     A
C149   O434    1.281   .     A
C150   O411    1.280   .     A
C150   O440    1.280   .     A
C151   O412    1.281   .     A
C151   O441    1.281   .     A
C152   O413    1.280   .     A
C152   O437    1.280   .     A
C153   O439    1.281   .     A
C153   O414    1.281   .     A
C154   O426    1.281   .     A
C154   O415    1.281   .     A
C155   O417    1.283   .     A
C155   O428    1.283   .     A
C156   O418    1.281   .     A
C156   O424    1.281   .     A
C157   O483    1.385   .     S
C157   C199    1.402   .     A
C157   C598    1.403   .     S
C158   O425    1.283   .     A
C158   O419    1.283   .     A
C159   O420    1.281   .     A
C159   O431    1.281   .     A
C160   O421    1.283   .     A
C160   O432    1.283   .     A
C161   O422    1.281   .     A
C161   O429    1.281   .     A
C162   O430    1.283   .     A
C162   O423    1.283   .     A
C163   O442    1.383   .     S
C163   C180    1.395   .     A
C164   O443    1.385   .     S
C164   C178    1.403   .     A
C165   C177    1.395   .     A
C165   O444    1.383   .     S
C166   C176    1.403   .     A
C166   O445    1.385   .     S
C167   C175    1.395   .     A
C167   O446    1.383   .     S
C168   O484    1.386   .     S
C168   C200    1.406   .     A
C169   O447    1.385   .     S
C169   C174    1.403   .     A
C170   O448    1.383   .     S
C170   C173    1.395   .     A
C171   O450    1.385   .     S
C171   C172    1.403   .     A
C172   O451    1.385   .     S
C173   O452    1.389   .     S
C174   O453    1.385   .     S
C175   O454    1.389   .     S
C176   O455    1.385   .     S
C177   O456    1.389   .     S
C178   O457    1.385   .     S
C179   O485    1.385   .     S
C179   C1129   1.403   .     S
C180   O458    1.389   .     S
C181   C197    1.403   .     A
C181   O459    1.385   .     S
C182   O461    1.389   .     S
C182   C196    1.395   .     A
C183   O462    1.385   .     S
C183   C195    1.403   .     A
C184   C194    1.395   .     A
C184   O463    1.389   .     S
C185   O464    1.385   .     S
C185   C193    1.403   .     A
C186   O465    1.389   .     S
C186   C192    1.395   .     A
C187   O466    1.385   .     S
C187   C191    1.403   .     A
C188   O467    1.389   .     S
C188   C189    1.395   .     A
C189   O468    1.383   .     S
C190   O486    1.385   .     S
C191   O469    1.385   .     S
C192   O470    1.383   .     S
C193   O472    1.385   .     S
C194   O473    1.383   .     S
C195   O474    1.385   .     S
C196   O475    1.383   .     S
C197   O476    1.385   .     S
C199   C544    1.415   .     S
H226   C590    1.110   .     S
H237   C1102   1.110   .     S
H248   C599    1.110   1_455 S
H259   C1111   1.110   1_545 S
O393   Zn1516  1.948   1_545 S
O393   Zn504   1.948   .     S
O393   Zn493   1.948   .     S
O393   Zn496   1.948   .     S
O394   C1154   1.277   .     A
O394   Zn495   1.943   .     S
O396   Zn498   1.943   .     S
O396   C647    1.279   .     A
O397   Zn497   1.943   .     S
O398   Zn507   1.943   .     S
O399   Zn506   1.943   .     S
O400   Zn501   1.943   .     S
O401   Zn493   1.943   .     S
O402   Zn503   1.943   .     S
O403   Zn502   1.943   .     S
O404   Zn505   1.943   .     S
O405   Zn501   1.948   .     S
O405   Zn505   1.948   .     S
O405   Zn1511  1.948   1_545 S
O405   Zn499   1.948   .     S
O406   Zn504   1.943   .     S
O407   Zn496   1.940   .     S
O408   Zn495   1.940   .     S
O409   Zn498   1.940   .     S
O410   Zn497   1.940   .     S
O411   Zn500   1.940   .     S
O412   Zn499   1.940   .     S
O413   Zn494   1.940   .     S
O414   Zn508   1.940   .     S
O415   Zn495   1.940   .     S
O416   Zn1006  1.948   1_455 S
O416   Zn494   1.949   .     S
O416   Zn502   1.948   .     S
O416   Zn506   1.948   .     S
O417   Zn496   1.940   .     S
O418   Zn508   1.940   .     S
O419   Zn494   1.940   .     S
O420   Zn499   1.940   .     S
O421   Zn500   1.940   .     S
O422   Zn497   1.940   .     S
O423   Zn498   1.940   .     S
O424   Zn1011  1.940   .     S
O425   Zn502   1.940   .     S
O426   Zn1521  1.940   .     S
O427   Zn507   1.948   .     S
O427   Zn503   1.948   .     S
O427   Zn1016  1.948   1_455 S
O427   Zn497   1.948   .     S
O428   Zn504   1.940   .     S
O429   Zn507   1.940   .     S
O430   Zn1014  1.940   .     S
O431   Zn501   1.940   .     S
O432   Zn1509  1.940   .     S
O433   Zn1010  1.940   .     S
O434   Zn503   1.940   .     S
O435   Zn493   1.940   .     S
O436   Zn1517  1.940   .     S
O437   Zn506   1.940   .     S
O438   Zn500   1.943   .     S
O438   C1153   1.279   .     A
O439   Zn1015  1.940   .     S
O440   Zn1520  1.940   .     S
O441   Zn505   1.940   .     S
O449   Zn499   1.943   .     S
O460   Zn494   1.943   .     S
O471   Zn508   1.943   .     S
O471   C648    1.277   .     A
O478   C589    1.413   1_455 S
O480   C1101   1.413   1_545 S
O482   Zn496   1.943   .     S
O483   C597    1.413   .     S
O485   C1110   1.413   .     S
Zn493  O1448   1.940   1_545 S
Zn495  O1421   1.948   .     S
Zn498  O924    1.948   .     S
Zn500  O1409   1.948   .     S
Zn501  O1452   1.940   1_545 S
Zn502  O941    1.940   1_455 S
Zn503  O932    1.940   1_455 S
Zn504  O1456   1.940   1_545 S
Zn505  O1442   1.940   1_545 S
Zn506  O938    1.940   1_455 S
Zn507  O947    1.940   1_455 S
Zn508  O935    1.948   .     S
C509   O985    1.386   .     S
C509   C512    1.406   .     A
C509   C79     1.406   1_655 S
C510   C1640   1.406   .     A
C510   C522    1.406   .     A
C510   O995    1.386   .     S
C511   C687    1.402   .     A
C511   C1562   1.415   .     A
C511   C630    1.402   .     A
C512   C631    1.404   .     A
C512   C34     1.414   1_655 S
C513   C544    1.415   .     A
C513   C620    1.402   .     A
C513   C633    1.402   .     A
C514   C634    1.404   .     A
C514   C632    1.406   .     A
C514   C1561   1.414   .     A
C515   C643    1.402   .     A
C515   C635    1.402   .     A
C515   C546    1.415   .     S
C516   C543    1.402   .     A
C516   C636    1.402   .     A
C516   C1563   1.415   .     S
C517   C554    1.406   .     A
C517   C637    1.404   .     A
C517   C548    1.414   .     S
C518   C638    1.402   .     A
C518   C565    1.402   .     A
C518   C549    1.415   .     S
C519   C42     1.414   1_655 A
C519   C576    1.406   .     A
C519   C639    1.404   .     A
C520   C640    1.402   .     A
C520   C698    1.402   .     A
C520   C547    1.415   .     A
C521   O996    1.385   .     S
C521   C117    1.403   1_655 A
C521   C523    1.402   .     A
C522   C641    1.404   .     A
C522   C1564   1.414   .     A
C523   C642    1.402   .     A
C523   C41     1.415   1_655 A
C524   C644    1.404   .     A
C524   C532    1.406   .     A
C524   C550    1.414   .     S
C525   C690    1.408   .     A
C525   C660    1.454   .     S
C525   C688    1.408   .     A
C526   C689    1.408   .     A
C526   C661    1.458   .     S
C526   C686    1.408   .     A
C527   C685    1.408   .     A
C527   C692    1.408   .     A
C527   C653    1.454   .     S
C528   C655    1.458   .     S
C528   C684    1.408   .     A
C528   C691    1.408   .     A
C529   C656    1.454   .     S
C529   C694    1.408   .     A
C529   C683    1.408   .     A
C530   C657    1.458   .     S
C530   C682    1.408   .     A
C530   C693    1.408   .     A
C531   C696    1.408   .     A
C531   C658    1.454   .     S
C531   C681    1.408   .     A
C532   O997    1.386   .     S
C532   C626    1.406   .     S
C533   C695    1.408   .     A
C533   C659    1.458   .     S
C533   C680    1.408   .     A
C534   C699    1.409   .     A
C534   C679    1.409   .     A
C534   C669    1.459   .     S
C535   C670    1.465   .     S
C535   C678    1.416   .     A
C535   C697    1.416   .     A
C536   C677    1.409   .     A
C536   C662    1.459   .     S
C536   C701    1.409   .     A
C537   C663    1.465   .     S
C537   C675    1.416   .     A
C537   C700    1.416   .     A
C538   C664    1.459   .     S
C538   C703    1.409   .     A
C538   C674    1.409   .     A
C539   C666    1.465   .     S
C539   C673    1.416   .     A
C539   C702    1.416   .     A
C540   C667    1.459   .     S
C540   C672    1.409   .     A
C540   C705    1.409   .     A
C541   C671    1.416   .     A
C541   C704    1.416   .     A
C541   C668    1.465   .     S
C542   C706    1.414   .     A
C542   C544    1.410   .     A
C543   O998    1.385   .     S
C543   C1639   1.403   .     S
C545   C546    1.410   .     A
C545   C1530   1.414   1_545 A
C545   C708    1.414   .     S
C546   C1527   1.415   1_545 A
C547   C1532   1.415   1_545 S
C547   C548    1.410   1_556 S
C548   C1538   1.414   1_545 A
C548   C547    1.410   1_554 S
C549   C550    1.410   1_556 S
C550   C549    1.410   1_554 S
C551   H787    1.109   .     S
C551   H798    1.112   .     S
C551   O950    1.416   .     S
C551   H809    1.108   .     S
C552   H815    1.117   .     S
C552   H814    1.108   .     S
C552   H816    1.109   .     S
C552   O951    1.415   .     S
C553   H818    1.112   .     S
C553   H817    1.109   .     S
C553   H819    1.108   .     S
C553   O952    1.416   .     S
C554   O999    1.386   .     S
C554   C624    1.406   .     S
C555   H821    1.117   .     S
C555   H820    1.108   .     S
C555   O953    1.415   .     S
C555   H822    1.109   .     S
C556   H826    1.108   .     S
C556   H823    1.109   .     S
C556   O954    1.416   .     S
C556   H825    1.112   .     S
C557   H827    1.108   .     S
C557   H829    1.109   .     S
C557   O955    1.415   .     S
C557   H828    1.117   .     S
C558   H832    1.108   .     S
C558   H830    1.109   .     S
C558   H831    1.112   .     S
C558   O956    1.416   .     S
C559   H836    1.109   .     S
C559   H834    1.117   .     S
C559   O958    1.415   .     S
C559   H833    1.108   .     S
C560   H839    1.109   .     S
C560   H837    1.108   .     S
C560   H838    1.116   .     S
C560   O959    1.415   .     S
C561   H840    1.109   .     S
C561   H841    1.114   .     S
C561   H842    1.110   .     S
C561   O960    1.411   .     S
C562   O961    1.415   .     S
C562   H844    1.116   .     S
C562   H843    1.108   .     S
C562   H845    1.109   .     S
C563   H849    1.110   .     S
C563   H848    1.114   .     S
C563   O962    1.411   .     S
C563   H847    1.109   .     S
C564   O963    1.415   .     S
C564   H851    1.116   .     S
C564   H850    1.108   .     S
C564   H852    1.109   .     S
C565   O1000   1.385   .     S
C565   C625    1.403   .     S
C566   H854    1.114   .     S
C566   H855    1.110   .     S
C566   H853    1.109   .     S
C566   O964    1.411   .     S
C567   H856    1.116   .     S
C567   H859    1.108   .     S
C567   O965    1.415   .     S
C567   H858    1.109   .     S
C568   H860    1.109   .     S
C568   H862    1.110   .     S
C568   O966    1.411   .     S
C568   H861    1.114   .     S
C569   H863    1.108   .     S
C569   O967    1.415   .     S
C569   H865    1.109   .     S
C569   H864    1.116   .     S
C570   H866    1.109   .     S
C570   H867    1.114   .     S
C570   H869    1.110   .     S
C570   O969    1.411   .     S
C571   H872    1.109   .     S
C571   H870    1.108   .     S
C571   H871    1.116   .     S
C571   O970    1.415   .     S
C572   H873    1.109   .     S
C572   H875    1.110   .     S
C572   H874    1.114   .     S
C572   O971    1.411   .     S
C573   H876    1.116   .     S
C573   H878    1.108   .     S
C573   O972    1.415   .     S
C573   H877    1.109   .     S
C574   H880    1.109   .     S
C574   H881    1.114   .     S
C574   O973    1.411   .     S
C574   H882    1.110   .     S
C575   O974    1.415   .     S
C575   H885    1.109   .     S
C575   H883    1.108   .     S
C575   H884    1.116   .     S
C576   O903    1.386   .     S
C576   C118    1.406   1_655 A
C577   H887    1.114   .     S
C577   O975    1.411   .     S
C577   H886    1.109   .     S
C577   H888    1.110   .     S
C578   H889    1.109   .     S
C578   H892    1.108   .     S
C578   O976    1.416   .     S
C578   H891    1.112   .     S
C579   H895    1.109   .     S
C579   O977    1.415   .     S
C579   H893    1.108   .     S
C579   H894    1.117   .     S
C580   O978    1.416   .     S
C580   H898    1.108   .     S
C580   H896    1.109   .     S
C580   H897    1.112   .     S
C581   H900    1.117   .     S
C581   H711    1.109   .     S
C581   H899    1.108   .     S
C581   O980    1.415   .     S
C582   H712    1.110   .     S
C582   H713    1.112   .     S
C582   O981    1.416   .     S
C582   H714    1.108   .     S
C583   O982    1.415   .     S
C583   H715    1.108   .     S
C583   H716    1.117   .     S
C583   H717    1.109   .     S
C584   H718    1.109   .     S
C584   H720    1.108   .     S
C584   H719    1.112   .     S
C584   O983    1.416   .     S
C585   H723    1.117   .     S
C585   H722    1.108   .     S
C585   H724    1.109   .     S
C585   O984    1.415   .     S
C586   H725    1.114   .     S
C586   C588    1.521   .     S
C586   O985    1.415   .     S
C586   H726    1.111   .     S
C587   C654    1.406   .     A
C587   C647    1.452   .     S
C588   H729    1.111   .     S
C588   H727    1.111   .     S
C588   H728    1.110   .     S
C589   H730    1.113   .     S
C589   H731    1.114   .     S
C589   C82     1.520   1_655 S
C589   O478    1.413   1_655 S
C590   H735    1.111   .     S
C590   H733    1.111   .     S
C591   H736    1.114   .     S
C591   C592    1.521   .     S
C591   H737    1.111   .     S
C591   O987    1.415   .     S
C592   H738    1.111   .     S
C592   H740    1.111   .     S
C592   H739    1.110   .     S
C593   H741    1.113   .     S
C593   H742    1.114   .     S
C593   C1610   1.520   .     S
C593   O2004   1.413   .     S
C594   H746    1.111   .     S
C594   H744    1.111   .     S
C594   C1609   1.520   1_545 S
C594   H1761   1.110   1_545 S
C595   H747    1.114   .     S
C595   O989    1.415   .     S
C595   C596    1.521   .     S
C595   H748    1.111   .     S
C596   H749    1.111   .     S
C596   H751    1.111   .     S
C596   H750    1.110   .     S
C597   H753    1.114   .     S
C597   H752    1.113   .     S
C598   C620    1.403   .     A
C598   C648    1.447   .     S
C599   H757    1.111   .     S
C599   H755    1.111   .     S
C599   C89     1.520   1_655 S
C599   H248    1.110   1_655 S
C600   O992    1.415   .     S
C600   H758    1.114   .     S
C600   C601    1.521   .     S
C600   H759    1.111   .     S
C601   H762    1.111   .     S
C601   H761    1.110   .     S
C601   H760    1.111   .     S
C602   H763    1.113   .     S
C602   H764    1.114   .     S
C602   C1619   1.520   1_545 S
C602   O2009   1.413   1_545 S
C603   H768    1.111   .     S
C603   H766    1.111   .     S
C603   C1618   1.520   .     S
C603   H1783   1.110   .     S
C604   H770    1.114   .     S
C604   O994    1.413   .     S
C604   H769    1.113   .     S
C604   C605    1.520   .     S
C605   H773    1.111   .     S
C605   H771    1.111   .     S
C605   H772    1.110   .     S
C606   C607    1.521   .     S
C606   O995    1.415   .     S
C606   H774    1.114   .     S
C606   H775    1.111   .     S
C607   H778    1.110   .     S
C607   H779    1.111   .     S
C607   H777    1.111   .     S
C608   O996    1.413   .     S
C608   H780    1.113   .     S
C608   C610    1.520   .     S
C608   H781    1.114   .     S
C609   C645    1.452   .     S
C609   C1648   1.406   1_545 A
C609   C676    1.406   .     S
C610   H782    1.111   .     S
C610   H783    1.110   .     S
C610   H784    1.111   .     S
C611   H786    1.111   .     S
C611   O997    1.415   .     S
C611   C612    1.521   .     S
C611   H785    1.114   .     S
C612   H788    1.111   .     S
C612   H789    1.110   .     S
C612   H790    1.111   .     S
C613   O998    1.413   .     S
C613   H791    1.113   .     S
C613   C614    1.520   .     S
C613   H792    1.114   .     S
C614   H795    1.111   .     S
C614   H793    1.111   .     S
C614   H794    1.110   .     S
C615   O999    1.415   .     S
C615   C616    1.521   .     S
C615   H796    1.114   .     S
C615   H797    1.111   .     S
C616   H799    1.111   .     S
C616   H801    1.111   .     S
C616   H800    1.110   .     S
C617   O1000   1.413   .     S
C617   H803    1.114   .     S
C617   C618    1.520   .     S
C617   H802    1.113   .     S
C618   H806    1.111   .     S
C618   H804    1.111   .     S
C618   H805    1.110   .     S
C619   O903    1.415   .     S
C619   H808    1.111   .     S
C619   H807    1.114   .     S
C619   C622    1.521   .     S
C620   O986    1.385   .     S
C621   C643    1.403   .     A
C621   C646    1.447   .     S
C621   C1703   1.403   1_545 S
C622   H810    1.111   .     S
C622   H812    1.111   .     S
C622   H811    1.110   .     S
C623   C698    1.403   .     A
C623   C1559   1.403   1_545 S
C623   C651    1.447   .     S
C624   C1526   1.406   1_545 A
C624   C652    1.452   .     S
C625   C649    1.447   .     S
C626   C650    1.452   .     S
C627   C706    1.404   .     A
C627   C633    1.389   .     A
C627   H709    1.083   .     S
C628   C707    1.402   .     A
C628   H813    1.083   .     S
C628   C631    1.389   .     A
C629   H824    1.083   .     S
C629   C635    1.389   .     A
C629   C708    1.404   .     A
C630   H835    1.083   .     S
C630   C634    1.389   .     A
C631   H846    1.083   .     S
C632   C1625   1.406   .     A
C632   O987    1.386   .     S
C633   H857    1.083   .     S
C634   H868    1.083   .     S
C635   H879    1.083   .     S
C636   H890    1.083   .     S
C636   C641    1.389   1_556 S
C637   H710    1.083   .     S
C637   C640    1.389   1_554 S
C638   H721    1.083   .     S
C638   C644    1.389   1_556 S
C639   H732    1.083   .     S
C639   C642    1.389   1_554 S
C640   H743    1.083   .     S
C640   C637    1.389   1_556 S
C641   H754    1.083   .     S
C641   C636    1.389   1_554 S
C642   H765    1.083   .     S
C642   C639    1.389   1_556 S
C643   O988    1.385   .     S
C644   H776    1.083   .     S
C644   C638    1.389   1_554 S
C645   O1962   1.279   1_545 A
C645   O990    1.279   .     S
C646   O1918   1.277   1_545 A
C646   O957    1.277   .     S
C647   O968    1.279   .     S
C648   O905    1.277   .     S
C649   O906    1.277   .     S
C649   O910    1.277   .     S
C650   O907    1.279   .     S
C650   O911    1.279   .     S
C651   O908    1.277   .     A
C651   O912    1.277   .     A
C652   O909    1.279   .     S
C652   O914    1.279   .     S
C653   O915    1.280   .     A
C653   O943    1.280   .     A
C654   C706    1.406   .     A
C654   O989    1.386   .     S
C655   O944    1.281   .     A
C655   O916    1.281   .     A
C656   O941    1.280   .     A
C656   O917    1.280   .     A
C657   O918    1.281   .     A
C657   O942    1.281   .     A
C658   O919    1.280   .     A
C658   O948    1.280   .     A
C659   O920    1.281   .     A
C659   O949    1.281   .     A
C660   O921    1.280   .     A
C660   O945    1.280   .     A
C661   O947    1.281   .     A
C661   O922    1.281   .     A
C662   O934    1.281   .     A
C662   O923    1.281   .     A
C663   O925    1.283   .     A
C663   O936    1.283   .     A
C664   O926    1.281   .     A
C664   O932    1.281   .     A
C665   O991    1.385   .     S
C665   C707    1.402   .     A
C665   C90     1.403   1_655 S
C666   O933    1.283   .     A
C666   O927    1.283   .     A
C667   O928    1.281   .     A
C667   O939    1.281   .     A
C668   O929    1.283   .     A
C668   O940    1.283   .     A
C669   O930    1.281   .     A
C669   O937    1.281   .     A
C670   O938    1.283   .     A
C670   O931    1.283   .     A
C671   O950    1.383   .     S
C671   C688    1.395   .     A
C672   O951    1.385   .     S
C672   C686    1.403   .     A
C673   C685    1.395   .     A
C673   O952    1.383   .     S
C674   C684    1.403   .     A
C674   O953    1.385   .     S
C675   C683    1.395   .     A
C675   O954    1.383   .     S
C676   O992    1.386   .     S
C676   C708    1.406   .     A
C677   O955    1.385   .     S
C677   C682    1.403   .     A
C678   O956    1.383   .     S
C678   C681    1.395   .     A
C679   O958    1.385   .     S
C679   C680    1.403   .     A
C680   O959    1.385   .     S
C681   O960    1.389   .     S
C682   O961    1.385   .     S
C683   O962    1.389   .     S
C684   O963    1.385   .     S
C685   O964    1.389   .     S
C686   O965    1.385   .     S
C687   O993    1.385   .     S
C687   C1637   1.403   .     S
C688   O966    1.389   .     S
C689   C705    1.403   .     A
C689   O967    1.385   .     S
C690   O969    1.389   .     S
C690   C704    1.395   .     A
C691   O970    1.385   .     S
C691   C703    1.403   .     A
C692   C702    1.395   .     A
C692   O971    1.389   .     S
C693   O972    1.385   .     S
C693   C701    1.403   .     A
C694   O973    1.389   .     S
C694   C700    1.395   .     A
C695   O974    1.385   .     S
C695   C699    1.403   .     A
C696   O975    1.389   .     S
C696   C697    1.395   .     A
C697   O976    1.383   .     S
C698   O994    1.385   .     S
C699   O977    1.385   .     S
C700   O978    1.383   .     S
C701   O980    1.385   .     S
C702   O981    1.383   .     S
C703   O982    1.385   .     S
C704   O983    1.383   .     S
C705   O984    1.385   .     S
C707   C36     1.415   1_655 S
H734   C82     1.110   1_655 S
H745   C1610   1.110   .     S
H767   C1619   1.110   1_545 S
O901   Zn2024  1.948   1_545 S
O901   Zn1012  1.948   .     S
O901   Zn1001  1.948   .     S
O901   Zn1004  1.948   .     S
O902   C1662   1.277   .     A
O902   Zn1003  1.943   .     S
O904   Zn1006  1.943   .     S
O904   C139    1.279   1_655 A
O905   Zn1005  1.943   .     S
O906   Zn1015  1.943   .     S
O907   Zn1014  1.943   .     S
O908   Zn1009  1.943   .     S
O909   Zn1001  1.943   .     S
O910   Zn1011  1.943   .     S
O911   Zn1010  1.943   .     S
O912   Zn1013  1.943   .     S
O913   Zn1009  1.948   .     S
O913   Zn1013  1.948   .     S
O913   Zn2019  1.948   1_545 S
O913   Zn1007  1.948   .     S
O914   Zn1012  1.943   .     S
O915   Zn1004  1.940   .     S
O916   Zn1003  1.940   .     S
O917   Zn1006  1.940   .     S
O918   Zn1005  1.940   .     S
O919   Zn1008  1.940   .     S
O920   Zn1007  1.940   .     S
O921   Zn1002  1.940   .     S
O922   Zn1016  1.940   .     S
O923   Zn1003  1.940   .     S
O924   Zn1002  1.949   .     S
O924   Zn1010  1.948   .     S
O924   Zn1014  1.948   .     S
O925   Zn1004  1.940   .     S
O926   Zn1016  1.940   .     S
O927   Zn1002  1.940   .     S
O928   Zn1007  1.940   .     S
O929   Zn1008  1.940   .     S
O930   Zn1005  1.940   .     S
O931   Zn1006  1.940   .     S
O932   Zn503   1.940   1_655 S
O933   Zn1010  1.940   .     S
O934   Zn2029  1.940   .     S
O935   Zn1015  1.948   .     S
O935   Zn1011  1.948   .     S
O935   Zn1005  1.948   .     S
O936   Zn1012  1.940   .     S
O937   Zn1015  1.940   .     S
O938   Zn506   1.940   1_655 S
O939   Zn1009  1.940   .     S
O940   Zn2017  1.940   .     S
O941   Zn502   1.940   1_655 S
O942   Zn1011  1.940   .     S
O943   Zn1001  1.940   .     S
O944   Zn2025  1.940   .     S
O945   Zn1014  1.940   .     S
O946   Zn1008  1.943   .     S
O946   C1661   1.279   .     A
O947   Zn507   1.940   1_655 S
O948   Zn2028  1.940   .     S
O949   Zn1013  1.940   .     S
O957   Zn1007  1.943   .     S
O968   Zn1002  1.943   .     S
O979   Zn1016  1.943   .     S
O979   C140    1.277   1_655 A
O988   C1609   1.413   1_545 S
O990   Zn1004  1.943   .     S
O991   C89     1.413   1_655 S
O993   C1618   1.413   .     S
Zn1001 O1956   1.940   1_545 S
Zn1003 O1929   1.948   .     S
Zn1006 O416    1.948   1_655 S
Zn1008 O1917   1.948   .     S
Zn1009 O1960   1.940   1_545 S
Zn1012 O1964   1.940   1_545 S
Zn1013 O1950   1.940   1_545 S
Zn1016 O427    1.948   1_655 S
C1017  O1493   1.386   .     S
C1017  C1020   1.406   .     A
C1017  C1603   1.406   .     S
C1018  C116    1.406   1_565 A
C1018  C1030   1.406   .     A
C1018  O1503   1.386   .     S
C1019  C1195   1.402   .     A
C1019  C38     1.415   1_565 A
C1019  C1138   1.402   .     A
C1020  C1139   1.404   .     A
C1020  C1558   1.414   .     S
C1021  C1052   1.415   .     A
C1021  C1128   1.402   .     A
C1021  C1141   1.402   .     A
C1022  C1142   1.404   .     A
C1022  C1140   1.406   .     A
C1022  C37     1.414   1_565 A
C1023  C1151   1.402   .     A
C1023  C1143   1.402   .     A
C1023  C1054   1.415   .     S
C1024  C1051   1.402   .     A
C1024  C1144   1.402   .     A
C1024  C39     1.415   1_565 S
C1025  C1062   1.406   .     A
C1025  C1145   1.404   .     A
C1025  C1056   1.414   .     S
C1026  C1146   1.402   .     A
C1026  C1073   1.402   .     A
C1026  C1057   1.415   .     S
C1027  C1566   1.414   .     A
C1027  C1084   1.406   .     A
C1027  C1147   1.404   .     A
C1028  C1148   1.402   .     A
C1028  C1206   1.402   .     A
C1028  C1055   1.415   .     A
C1029  O1504   1.385   .     S
C1029  C1641   1.403   .     A
C1029  C1031   1.402   .     A
C1030  C1149   1.404   .     A
C1030  C40     1.414   1_565 A
C1031  C1150   1.402   .     A
C1031  C1565   1.415   .     A
C1032  C1152   1.404   .     A
C1032  C1040   1.406   .     A
C1032  C1058   1.414   .     S
C1033  C1198   1.408   .     A
C1033  C1168   1.454   .     S
C1033  C1196   1.408   .     A
C1034  C1197   1.408   .     A
C1034  C1169   1.458   .     S
C1034  C1194   1.408   .     A
C1035  C1193   1.408   .     A
C1035  C1200   1.408   .     A
C1035  C1161   1.454   .     S
C1036  C1163   1.458   .     S
C1036  C1192   1.408   .     A
C1036  C1199   1.408   .     A
C1037  C1164   1.454   .     S
C1037  C1202   1.408   .     A
C1037  C1191   1.408   .     A
C1038  C1165   1.458   .     S
C1038  C1190   1.408   .     A
C1038  C1201   1.408   .     A
C1039  C1204   1.408   .     A
C1039  C1166   1.454   .     S
C1039  C1189   1.408   .     A
C1040  O1505   1.386   .     S
C1040  C1134   1.406   .     S
C1041  C1203   1.408   .     A
C1041  C1167   1.458   .     S
C1041  C1188   1.408   .     A
C1042  C1207   1.409   .     A
C1042  C1187   1.409   .     A
C1042  C1177   1.459   .     S
C1043  C1178   1.465   .     S
C1043  C1186   1.416   .     A
C1043  C1205   1.416   .     A
C1044  C1185   1.409   .     A
C1044  C1170   1.459   .     S
C1044  C1209   1.409   .     A
C1045  C1171   1.465   .     S
C1045  C1183   1.416   .     A
C1045  C1208   1.416   .     A
C1046  C1172   1.459   .     S
C1046  C1211   1.409   .     A
C1046  C1182   1.409   .     A
C1047  C1174   1.465   .     S
C1047  C1181   1.416   .     A
C1047  C1210   1.416   .     A
C1048  C1175   1.459   .     S
C1048  C1180   1.409   .     A
C1048  C1213   1.409   .     A
C1049  C1179   1.416   .     A
C1049  C1212   1.416   .     A
C1049  C1176   1.465   .     S
C1050  C1214   1.414   .     A
C1050  C1052   1.410   .     A
C1050  C1528   1.414   1_455 S
C1051  O1506   1.385   .     S
C1051  C115    1.403   1_565 S
C1052  C1723   1.415   1_455 S
C1053  C1054   1.410   .     A
C1053  C1216   1.414   .     S
C1055  C1056   1.410   1_556 S
C1056  C1055   1.410   1_554 S
C1057  C1539   1.415   1_455 A
C1057  C1058   1.410   1_556 S
C1058  C1535   1.414   1_455 A
C1058  C1057   1.410   1_554 S
C1059  H1295   1.109   .     S
C1059  H1306   1.112   .     S
C1059  O1458   1.416   .     S
C1059  H1317   1.108   .     S
C1060  H1323   1.117   .     S
C1060  H1322   1.108   .     S
C1060  H1324   1.109   .     S
C1060  O1459   1.415   .     S
C1061  H1326   1.112   .     S
C1061  H1325   1.109   .     S
C1061  H1327   1.108   .     S
C1061  O1460   1.416   .     S
C1062  O1507   1.386   .     S
C1062  C1132   1.406   .     S
C1063  H1329   1.117   .     S
C1063  H1328   1.108   .     S
C1063  O1461   1.415   .     S
C1063  H1330   1.109   .     S
C1064  H1334   1.108   .     S
C1064  H1331   1.109   .     S
C1064  O1462   1.416   .     S
C1064  H1333   1.112   .     S
C1065  H1335   1.108   .     S
C1065  H1337   1.109   .     S
C1065  O1463   1.415   .     S
C1065  H1336   1.117   .     S
C1066  H1340   1.108   .     S
C1066  H1338   1.109   .     S
C1066  H1339   1.112   .     S
C1066  O1464   1.416   .     S
C1067  H1344   1.109   .     S
C1067  H1342   1.117   .     S
C1067  O1466   1.415   .     S
C1067  H1341   1.108   .     S
C1068  H1347   1.109   .     S
C1068  H1345   1.108   .     S
C1068  H1346   1.116   .     S
C1068  O1467   1.415   .     S
C1069  H1348   1.109   .     S
C1069  H1349   1.114   .     S
C1069  H1350   1.110   .     S
C1069  O1468   1.411   .     S
C1070  O1469   1.415   .     S
C1070  H1352   1.116   .     S
C1070  H1351   1.108   .     S
C1070  H1353   1.109   .     S
C1071  H1357   1.110   .     S
C1071  H1356   1.114   .     S
C1071  O1470   1.411   .     S
C1071  H1355   1.109   .     S
C1072  O1471   1.415   .     S
C1072  H1359   1.116   .     S
C1072  H1358   1.108   .     S
C1072  H1360   1.109   .     S
C1073  O1508   1.385   .     S
C1073  C1133   1.403   .     S
C1074  H1362   1.114   .     S
C1074  H1363   1.110   .     S
C1074  H1361   1.109   .     S
C1074  O1472   1.411   .     S
C1075  H1364   1.116   .     S
C1075  H1367   1.108   .     S
C1075  O1473   1.415   .     S
C1075  H1366   1.109   .     S
C1076  H1368   1.109   .     S
C1076  H1370   1.110   .     S
C1076  O1474   1.411   .     S
C1076  H1369   1.114   .     S
C1077  H1371   1.108   .     S
C1077  O1475   1.415   .     S
C1077  H1373   1.109   .     S
C1077  H1372   1.116   .     S
C1078  H1374   1.109   .     S
C1078  H1375   1.114   .     S
C1078  H1377   1.110   .     S
C1078  O1477   1.411   .     S
C1079  H1380   1.109   .     S
C1079  H1378   1.108   .     S
C1079  H1379   1.116   .     S
C1079  O1478   1.415   .     S
C1080  H1381   1.109   .     S
C1080  H1383   1.110   .     S
C1080  H1382   1.114   .     S
C1080  O1479   1.411   .     S
C1081  H1384   1.116   .     S
C1081  H1386   1.108   .     S
C1081  O1480   1.415   .     S
C1081  H1385   1.109   .     S
C1082  H1388   1.109   .     S
C1082  H1389   1.114   .     S
C1082  O1481   1.411   .     S
C1082  H1390   1.110   .     S
C1083  O1482   1.415   .     S
C1083  H1393   1.109   .     S
C1083  H1391   1.108   .     S
C1083  H1392   1.116   .     S
C1084  O1411   1.386   .     S
C1084  C1642   1.406   .     A
C1085  H1395   1.114   .     S
C1085  O1483   1.411   .     S
C1085  H1394   1.109   .     S
C1085  H1396   1.110   .     S
C1086  H1397   1.109   .     S
C1086  H1400   1.108   .     S
C1086  O1484   1.416   .     S
C1086  H1399   1.112   .     S
C1087  H1403   1.109   .     S
C1087  O1485   1.415   .     S
C1087  H1401   1.108   .     S
C1087  H1402   1.117   .     S
C1088  O1486   1.416   .     S
C1088  H1406   1.108   .     S
C1088  H1404   1.109   .     S
C1088  H1405   1.112   .     S
C1089  H1408   1.117   .     S
C1089  H1219   1.109   .     S
C1089  H1407   1.108   .     S
C1089  O1488   1.415   .     S
C1090  H1220   1.110   .     S
C1090  H1221   1.112   .     S
C1090  O1489   1.416   .     S
C1090  H1222   1.108   .     S
C1091  O1490   1.415   .     S
C1091  H1223   1.108   .     S
C1091  H1224   1.117   .     S
C1091  H1225   1.109   .     S
C1092  H1226   1.109   .     S
C1092  H1228   1.108   .     S
C1092  H1227   1.112   .     S
C1092  O1491   1.416   .     S
C1093  H1231   1.117   .     S
C1093  H1230   1.108   .     S
C1093  H1232   1.109   .     S
C1093  O1492   1.415   .     S
C1094  H1233   1.114   .     S
C1094  C1096   1.521   .     S
C1094  O1493   1.415   .     S
C1094  H1234   1.111   .     S
C1095  C1162   1.406   .     A
C1095  C1525   1.406   1_455 S
C1095  C1155   1.452   .     S
C1096  H1237   1.111   .     S
C1096  H1235   1.111   .     S
C1096  H1236   1.110   .     S
C1097  H1238   1.113   .     S
C1097  H1239   1.114   .     S
C1097  C1606   1.520   .     S
C1097  O2002   1.413   .     S
C1098  H1243   1.111   .     S
C1098  H1241   1.111   .     S
C1098  C1605   1.520   1_455 S
C1098  H1750   1.110   1_455 S
C1099  H1244   1.114   .     S
C1099  C1100   1.521   .     S
C1099  H1245   1.111   .     S
C1099  O1495   1.415   .     S
C1100  H1246   1.111   .     S
C1100  H1248   1.111   .     S
C1100  H1247   1.110   .     S
C1101  H1249   1.113   .     S
C1101  H1250   1.114   .     S
C1101  C86     1.520   1_565 S
C1101  O480    1.413   1_565 S
C1102  H1254   1.111   .     S
C1102  H1252   1.111   .     S
C1103  H1255   1.114   .     S
C1103  O1497   1.415   .     S
C1103  C1104   1.521   .     S
C1103  H1256   1.111   .     S
C1104  H1257   1.111   .     S
C1104  H1259   1.111   .     S
C1104  H1258   1.110   .     S
C1105  H1261   1.114   .     S
C1105  H1260   1.113   .     S
C1105  C1615   1.520   1_455 S
C1105  O2007   1.413   1_455 S
C1106  C1128   1.403   .     A
C1106  C1156   1.447   .     S
C1106  C1681   1.403   1_455 S
C1107  H1265   1.111   .     S
C1107  H1263   1.111   .     S
C1107  C1613   1.520   .     S
C1107  H1772   1.110   .     S
C1108  O1500   1.415   .     S
C1108  H1266   1.114   .     S
C1108  C1109   1.521   .     S
C1108  H1267   1.111   .     S
C1109  H1270   1.111   .     S
C1109  H1269   1.110   .     S
C1109  H1268   1.111   .     S
C1110  H1271   1.113   .     S
C1110  H1272   1.114   .     S
C1111  H1276   1.111   .     S
C1111  H1274   1.111   .     S
C1111  C94     1.520   1_565 S
C1111  H259    1.110   1_565 S
C1112  H1278   1.114   .     S
C1112  O1502   1.413   .     S
C1112  H1277   1.113   .     S
C1112  C1113   1.520   .     S
C1113  H1281   1.111   .     S
C1113  H1279   1.111   .     S
C1113  H1280   1.110   .     S
C1114  C1115   1.521   .     S
C1114  O1503   1.415   .     S
C1114  H1282   1.114   .     S
C1114  H1283   1.111   .     S
C1115  H1286   1.110   .     S
C1115  H1287   1.111   .     S
C1115  H1285   1.111   .     S
C1116  O1504   1.413   .     S
C1116  H1288   1.113   .     S
C1116  C1118   1.520   .     S
C1116  H1289   1.114   .     S
C1117  C1153   1.452   .     S
C1117  C1184   1.406   .     S
C1118  H1290   1.111   .     S
C1118  H1291   1.110   .     S
C1118  H1292   1.111   .     S
C1119  H1294   1.111   .     S
C1119  O1505   1.415   .     S
C1119  C1120   1.521   .     S
C1119  H1293   1.114   .     S
C1120  H1296   1.111   .     S
C1120  H1297   1.110   .     S
C1120  H1298   1.111   .     S
C1121  O1506   1.413   .     S
C1121  H1299   1.113   .     S
C1121  C1122   1.520   .     S
C1121  H1300   1.114   .     S
C1122  H1303   1.111   .     S
C1122  H1301   1.111   .     S
C1122  H1302   1.110   .     S
C1123  O1507   1.415   .     S
C1123  C1124   1.521   .     S
C1123  H1304   1.114   .     S
C1123  H1305   1.111   .     S
C1124  H1307   1.111   .     S
C1124  H1309   1.111   .     S
C1124  H1308   1.110   .     S
C1125  O1508   1.413   .     S
C1125  H1311   1.114   .     S
C1125  C1126   1.520   .     S
C1125  H1310   1.113   .     S
C1126  H1314   1.111   .     S
C1126  H1312   1.111   .     S
C1126  H1313   1.110   .     S
C1127  O1411   1.415   .     S
C1127  H1316   1.111   .     S
C1127  H1315   1.114   .     S
C1127  C1130   1.521   .     S
C1128  O1494   1.385   .     S
C1129  C1151   1.403   .     A
C1129  C1154   1.447   .     S
C1130  H1318   1.111   .     S
C1130  H1320   1.111   .     S
C1130  H1319   1.110   .     S
C1131  C1206   1.403   .     A
C1131  C1159   1.447   .     S
C1132  C1160   1.452   .     S
C1133  C1157   1.447   .     S
C1133  C1537   1.403   1_455 A
C1134  C1592   1.406   1_455 A
C1134  C1158   1.452   .     S
C1135  C1214   1.404   .     A
C1135  C1141   1.389   .     A
C1135  H1217   1.083   .     S
C1136  C1215   1.402   .     A
C1136  H1321   1.083   .     S
C1136  C1139   1.389   .     A
C1137  H1332   1.083   .     S
C1137  C1143   1.389   .     A
C1137  C1216   1.404   .     A
C1138  H1343   1.083   .     S
C1138  C1142   1.389   .     A
C1139  H1354   1.083   .     S
C1140  C101    1.406   1_565 A
C1140  O1495   1.386   .     S
C1141  H1365   1.083   .     S
C1142  H1376   1.083   .     S
C1143  H1387   1.083   .     S
C1144  H1398   1.083   .     S
C1144  C1149   1.389   1_556 S
C1145  H1218   1.083   .     S
C1145  C1148   1.389   1_554 S
C1146  H1229   1.083   .     S
C1146  C1152   1.389   1_556 S
C1147  H1240   1.083   .     S
C1147  C1150   1.389   1_554 S
C1148  H1251   1.083   .     S
C1148  C1145   1.389   1_556 S
C1149  H1262   1.083   .     S
C1149  C1144   1.389   1_554 S
C1150  H1273   1.083   .     S
C1150  C1147   1.389   1_556 S
C1151  O1496   1.385   .     S
C1152  H1284   1.083   .     S
C1152  C1146   1.389   1_554 S
C1153  O1498   1.279   .     S
C1154  O1465   1.277   .     S
C1155  O1920   1.279   1_455 A
C1155  O1476   1.279   .     S
C1156  O1995   1.277   1_455 A
C1156  O1413   1.277   .     S
C1157  O1414   1.277   .     S
C1157  O1418   1.277   .     S
C1158  O1415   1.279   .     S
C1158  O1419   1.279   .     S
C1159  O1416   1.277   .     A
C1159  O1420   1.277   .     A
C1160  O1417   1.279   .     S
C1160  O1422   1.279   .     S
C1161  O1423   1.280   .     A
C1161  O1451   1.280   .     A
C1162  C1214   1.406   .     A
C1162  O1497   1.386   .     S
C1163  O1452   1.281   .     A
C1163  O1424   1.281   .     A
C1164  O1449   1.280   .     A
C1164  O1425   1.280   .     A
C1165  O1426   1.281   .     A
C1165  O1450   1.281   .     A
C1166  O1427   1.280   .     A
C1166  O1456   1.280   .     A
C1167  O1428   1.281   .     A
C1167  O1457   1.281   .     A
C1168  O1429   1.280   .     A
C1168  O1453   1.280   .     A
C1169  O1455   1.281   .     A
C1169  O1430   1.281   .     A
C1170  O1442   1.281   .     A
C1170  O1431   1.281   .     A
C1171  O1433   1.283   .     A
C1171  O1444   1.283   .     A
C1172  O1434   1.281   .     A
C1172  O1440   1.281   .     A
C1173  O1499   1.385   .     S
C1173  C1215   1.402   .     A
C1173  C1614   1.403   .     S
C1174  O1441   1.283   .     A
C1174  O1435   1.283   .     A
C1175  O1436   1.281   .     A
C1175  O1447   1.281   .     A
C1176  O1437   1.283   .     A
C1176  O1448   1.283   .     A
C1177  O1438   1.281   .     A
C1177  O1445   1.281   .     A
C1178  O1446   1.283   .     A
C1178  O1439   1.283   .     A
C1179  O1458   1.383   .     S
C1179  C1196   1.395   .     A
C1180  O1459   1.385   .     S
C1180  C1194   1.403   .     A
C1181  C1193   1.395   .     A
C1181  O1460   1.383   .     S
C1182  C1192   1.403   .     A
C1182  O1461   1.385   .     S
C1183  C1191   1.395   .     A
C1183  O1462   1.383   .     S
C1184  O1500   1.386   .     S
C1184  C1216   1.406   .     A
C1185  O1463   1.385   .     S
C1185  C1190   1.403   .     A
C1186  O1464   1.383   .     S
C1186  C1189   1.395   .     A
C1187  O1466   1.385   .     S
C1187  C1188   1.403   .     A
C1188  O1467   1.385   .     S
C1189  O1468   1.389   .     S
C1190  O1469   1.385   .     S
C1191  O1470   1.389   .     S
C1192  O1471   1.385   .     S
C1193  O1472   1.389   .     S
C1194  O1473   1.385   .     S
C1195  O1501   1.385   .     S
C1195  C113    1.403   1_565 S
C1196  O1474   1.389   .     S
C1197  C1213   1.403   .     A
C1197  O1475   1.385   .     S
C1198  O1477   1.389   .     S
C1198  C1212   1.395   .     A
C1199  O1478   1.385   .     S
C1199  C1211   1.403   .     A
C1200  C1210   1.395   .     A
C1200  O1479   1.389   .     S
C1201  O1480   1.385   .     S
C1201  C1209   1.403   .     A
C1202  O1481   1.389   .     S
C1202  C1208   1.395   .     A
C1203  O1482   1.385   .     S
C1203  C1207   1.403   .     A
C1204  O1483   1.389   .     S
C1204  C1205   1.395   .     A
C1205  O1484   1.383   .     S
C1206  O1502   1.385   .     S
C1207  O1485   1.385   .     S
C1208  O1486   1.383   .     S
C1209  O1488   1.385   .     S
C1210  O1489   1.383   .     S
C1211  O1490   1.385   .     S
C1212  O1491   1.383   .     S
C1213  O1492   1.385   .     S
C1215  C1560   1.415   .     S
H1242  C1606   1.110   .     S
H1253  C86     1.110   1_565 S
H1264  C1615   1.110   1_455 S
O1409  Zn1520  1.948   .     S
O1409  Zn1509  1.948   .     S
O1409  Zn1512  1.948   .     S
O1410  C138    1.277   1_565 A
O1410  Zn1511  1.943   .     S
O1412  Zn1514  1.943   .     S
O1412  C1663   1.279   .     A
O1413  Zn1513  1.943   .     S
O1414  Zn1523  1.943   .     S
O1415  Zn1522  1.943   .     S
O1416  Zn1517  1.943   .     S
O1417  Zn1509  1.943   .     S
O1418  Zn1519  1.943   .     S
O1419  Zn1518  1.943   .     S
O1420  Zn1521  1.943   .     S
O1421  Zn1517  1.948   .     S
O1421  Zn1521  1.948   .     S
O1421  Zn1515  1.948   .     S
O1422  Zn1520  1.943   .     S
O1423  Zn1512  1.940   .     S
O1424  Zn1511  1.940   .     S
O1425  Zn1514  1.940   .     S
O1426  Zn1513  1.940   .     S
O1427  Zn1516  1.940   .     S
O1428  Zn1515  1.940   .     S
O1429  Zn1510  1.940   .     S
O1430  Zn1524  1.940   .     S
O1431  Zn1511  1.940   .     S
O1432  Zn2022  1.948   1_455 S
O1432  Zn1510  1.949   .     S
O1432  Zn1518  1.948   .     S
O1432  Zn1522  1.948   .     S
O1433  Zn1512  1.940   .     S
O1434  Zn1524  1.940   .     S
O1435  Zn1510  1.940   .     S
O1436  Zn1515  1.940   .     S
O1437  Zn1516  1.940   .     S
O1438  Zn1513  1.940   .     S
O1439  Zn1514  1.940   .     S
O1440  Zn2027  1.940   .     S
O1441  Zn1518  1.940   .     S
O1442  Zn505   1.940   1_565 S
O1443  Zn1523  1.948   .     S
O1443  Zn1519  1.948   .     S
O1443  Zn2032  1.948   1_455 S
O1443  Zn1513  1.948   .     S
O1444  Zn1520  1.940   .     S
O1445  Zn1523  1.940   .     S
O1446  Zn2030  1.940   .     S
O1447  Zn1517  1.940   .     S
O1448  Zn493   1.940   1_565 S
O1449  Zn2026  1.940   .     S
O1450  Zn1519  1.940   .     S
O1451  Zn1509  1.940   .     S
O1452  Zn501   1.940   1_565 S
O1453  Zn1522  1.940   .     S
O1454  Zn1516  1.943   .     S
O1454  C137    1.279   1_565 A
O1455  Zn2031  1.940   .     S
O1456  Zn504   1.940   1_565 S
O1457  Zn1521  1.940   .     S
O1465  Zn1515  1.943   .     S
O1476  Zn1510  1.943   .     S
O1487  Zn1524  1.943   .     S
O1487  C1664   1.277   .     A
O1494  C1605   1.413   1_455 S
O1498  Zn1512  1.943   .     S
O1499  C1613   1.413   .     S
O1501  C94     1.413   1_565 S
Zn1511 O405    1.948   1_565 S
Zn1514 O1940   1.948   .     S
Zn1516 O393    1.948   1_565 S
Zn1518 O1957   1.940   1_455 S
Zn1519 O1948   1.940   1_455 S
Zn1522 O1954   1.940   1_455 S
Zn1523 O1963   1.940   1_455 S
Zn1524 O1951   1.948   .     S
C1525  O2001   1.386   .     S
C1525  C1528   1.406   .     A
C1525  C1095   1.406   1_655 S
C1526  C624    1.406   1_565 A
C1526  C1538   1.406   .     A
C1526  O2011   1.386   .     S
C1527  C1703   1.402   .     A
C1527  C546    1.415   1_565 A
C1527  C1646   1.402   .     A
C1528  C1647   1.404   .     A
C1528  C1050   1.414   1_655 S
C1529  C1560   1.415   .     A
C1529  C1636   1.402   .     A
C1529  C1649   1.402   .     A
C1530  C1650   1.404   .     A
C1530  C1648   1.406   .     A
C1530  C545    1.414   1_565 A
C1531  C1659   1.402   .     A
C1531  C1651   1.402   .     A
C1531  C1562   1.415   .     S
C1532  C1559   1.402   .     A
C1532  C1652   1.402   .     A
C1532  C547    1.415   1_565 S
C1533  C1570   1.406   .     A
C1533  C1653   1.404   .     A
C1533  C1564   1.414   .     S
C1534  C1654   1.402   .     A
C1534  C1581   1.402   .     A
C1534  C1565   1.415   .     S
C1535  C1058   1.414   1_655 A
C1535  C1592   1.406   .     A
C1535  C1655   1.404   .     A
C1536  C1656   1.402   .     A
C1536  C1714   1.402   .     A
C1536  C1563   1.415   .     A
C1537  O2012   1.385   .     S
C1537  C1133   1.403   1_655 A
C1537  C1539   1.402   .     A
C1538  C1657   1.404   .     A
C1538  C548    1.414   1_565 A
C1539  C1658   1.402   .     A
C1539  C1057   1.415   1_655 A
C1540  C1660   1.404   .     A
C1540  C1548   1.406   .     A
C1540  C1566   1.414   .     S
C1541  C1706   1.408   .     A
C1541  C1676   1.454   .     S
C1541  C1704   1.408   .     A
C1542  C1705   1.408   .     A
C1542  C1677   1.458   .     S
C1542  C1702   1.408   .     A
C1543  C1701   1.408   .     A
C1543  C1708   1.408   .     A
C1543  C1669   1.454   .     S
C1544  C1671   1.458   .     S
C1544  C1700   1.408   .     A
C1544  C1707   1.408   .     A
C1545  C1672   1.454   .     S
C1545  C1710   1.408   .     A
C1545  C1699   1.408   .     A
C1546  C1673   1.458   .     S
C1546  C1698   1.408   .     A
C1546  C1709   1.408   .     A
C1547  C1712   1.408   .     A
C1547  C1674   1.454   .     S
C1547  C1697   1.408   .     A
C1548  O2013   1.386   .     S
C1548  C1642   1.406   .     S
C1549  C1711   1.408   .     A
C1549  C1675   1.458   .     S
C1549  C1696   1.408   .     A
C1550  C1715   1.409   .     A
C1550  C1695   1.409   .     A
C1550  C1685   1.459   .     S
C1551  C1686   1.465   .     S
C1551  C1694   1.416   .     A
C1551  C1713   1.416   .     A
C1552  C1693   1.409   .     A
C1552  C1678   1.459   .     S
C1552  C1717   1.409   .     A
C1553  C1679   1.465   .     S
C1553  C1691   1.416   .     A
C1553  C1716   1.416   .     A
C1554  C1680   1.459   .     S
C1554  C1719   1.409   .     A
C1554  C1690   1.409   .     A
C1555  C1682   1.465   .     S
C1555  C1689   1.416   .     A
C1555  C1718   1.416   .     A
C1556  C1683   1.459   .     S
C1556  C1688   1.409   .     A
C1556  C1721   1.409   .     A
C1557  C1687   1.416   .     A
C1557  C1720   1.416   .     A
C1557  C1684   1.465   .     S
C1558  C1722   1.414   .     A
C1558  C1560   1.410   .     A
C1559  O2014   1.385   .     S
C1559  C623    1.403   1_565 S
C1561  C1562   1.410   .     A
C1561  C1724   1.414   .     S
C1563  C1564   1.410   1_556 S
C1564  C1563   1.410   1_554 S
C1565  C1566   1.410   1_556 S
C1566  C1565   1.410   1_554 S
C1567  H1803   1.109   .     S
C1567  H1814   1.112   .     S
C1567  O1966   1.416   .     S
C1567  H1825   1.108   .     S
C1568  H1831   1.117   .     S
C1568  H1830   1.108   .     S
C1568  H1832   1.109   .     S
C1568  O1967   1.415   .     S
C1569  H1834   1.112   .     S
C1569  H1833   1.109   .     S
C1569  H1835   1.108   .     S
C1569  O1968   1.416   .     S
C1570  O2015   1.386   .     S
C1570  C1640   1.406   .     S
C1571  H1837   1.117   .     S
C1571  H1836   1.108   .     S
C1571  O1969   1.415   .     S
C1571  H1838   1.109   .     S
C1572  H1842   1.108   .     S
C1572  H1839   1.109   .     S
C1572  O1970   1.416   .     S
C1572  H1841   1.112   .     S
C1573  H1843   1.108   .     S
C1573  H1845   1.109   .     S
C1573  O1971   1.415   .     S
C1573  H1844   1.117   .     S
C1574  H1848   1.108   .     S
C1574  H1846   1.109   .     S
C1574  H1847   1.112   .     S
C1574  O1972   1.416   .     S
C1575  H1852   1.109   .     S
C1575  H1850   1.117   .     S
C1575  O1974   1.415   .     S
C1575  H1849   1.108   .     S
C1576  H1855   1.109   .     S
C1576  H1853   1.108   .     S
C1576  H1854   1.116   .     S
C1576  O1975   1.415   .     S
C1577  H1856   1.109   .     S
C1577  H1857   1.114   .     S
C1577  H1858   1.110   .     S
C1577  O1976   1.411   .     S
C1578  O1977   1.415   .     S
C1578  H1860   1.116   .     S
C1578  H1859   1.108   .     S
C1578  H1861   1.109   .     S
C1579  H1865   1.110   .     S
C1579  H1864   1.114   .     S
C1579  O1978   1.411   .     S
C1579  H1863   1.109   .     S
C1580  O1979   1.415   .     S
C1580  H1867   1.116   .     S
C1580  H1866   1.108   .     S
C1580  H1868   1.109   .     S
C1581  O2016   1.385   .     S
C1581  C1641   1.403   .     S
C1582  H1870   1.114   .     S
C1582  H1871   1.110   .     S
C1582  H1869   1.109   .     S
C1582  O1980   1.411   .     S
C1583  H1872   1.116   .     S
C1583  H1875   1.108   .     S
C1583  O1981   1.415   .     S
C1583  H1874   1.109   .     S
C1584  H1876   1.109   .     S
C1584  H1878   1.110   .     S
C1584  O1982   1.411   .     S
C1584  H1877   1.114   .     S
C1585  H1879   1.108   .     S
C1585  O1983   1.415   .     S
C1585  H1881   1.109   .     S
C1585  H1880   1.116   .     S
C1586  H1882   1.109   .     S
C1586  H1883   1.114   .     S
C1586  H1885   1.110   .     S
C1586  O1985   1.411   .     S
C1587  H1888   1.109   .     S
C1587  H1886   1.108   .     S
C1587  H1887   1.116   .     S
C1587  O1986   1.415   .     S
C1588  H1889   1.109   .     S
C1588  H1891   1.110   .     S
C1588  H1890   1.114   .     S
C1588  O1987   1.411   .     S
C1589  H1892   1.116   .     S
C1589  H1894   1.108   .     S
C1589  O1988   1.415   .     S
C1589  H1893   1.109   .     S
C1590  H1896   1.109   .     S
C1590  H1897   1.114   .     S
C1590  O1989   1.411   .     S
C1590  H1898   1.110   .     S
C1591  O1990   1.415   .     S
C1591  H1901   1.109   .     S
C1591  H1899   1.108   .     S
C1591  H1900   1.116   .     S
C1592  O1919   1.386   .     S
C1592  C1134   1.406   1_655 A
C1593  H1903   1.114   .     S
C1593  O1991   1.411   .     S
C1593  H1902   1.109   .     S
C1593  H1904   1.110   .     S
C1594  H1905   1.109   .     S
C1594  H1908   1.108   .     S
C1594  O1992   1.416   .     S
C1594  H1907   1.112   .     S
C1595  H1911   1.109   .     S
C1595  O1993   1.415   .     S
C1595  H1909   1.108   .     S
C1595  H1910   1.117   .     S
C1596  O1994   1.416   .     S
C1596  H1914   1.108   .     S
C1596  H1912   1.109   .     S
C1596  H1913   1.112   .     S
C1597  H1916   1.117   .     S
C1597  H1727   1.109   .     S
C1597  H1915   1.108   .     S
C1597  O1996   1.415   .     S
C1598  H1728   1.110   .     S
C1598  H1729   1.112   .     S
C1598  O1997   1.416   .     S
C1598  H1730   1.108   .     S
C1599  O1998   1.415   .     S
C1599  H1731   1.108   .     S
C1599  H1732   1.117   .     S
C1599  H1733   1.109   .     S
C1600  H1734   1.109   .     S
C1600  H1736   1.108   .     S
C1600  H1735   1.112   .     S
C1600  O1999   1.416   .     S
C1601  H1739   1.117   .     S
C1601  H1738   1.108   .     S
C1601  H1740   1.109   .     S
C1601  O2000   1.415   .     S
C1602  H1741   1.114   .     S
C1602  C1604   1.521   .     S
C1602  O2001   1.415   .     S
C1602  H1742   1.111   .     S
C1603  C1670   1.406   .     A
C1603  C1663   1.452   .     S
C1604  H1745   1.111   .     S
C1604  H1743   1.111   .     S
C1604  H1744   1.110   .     S
C1605  H1746   1.113   .     S
C1605  H1747   1.114   .     S
C1605  C1098   1.520   1_655 S
C1605  O1494   1.413   1_655 S
C1606  H1751   1.111   .     S
C1606  H1749   1.111   .     S
C1607  H1752   1.114   .     S
C1607  C1608   1.521   .     S
C1607  H1753   1.111   .     S
C1607  O2003   1.415   .     S
C1608  H1754   1.111   .     S
C1608  H1756   1.111   .     S
C1608  H1755   1.110   .     S
C1609  H1757   1.113   .     S
C1609  H1758   1.114   .     S
C1609  C594    1.520   1_565 S
C1609  O988    1.413   1_565 S
C1610  H1762   1.111   .     S
C1610  H1760   1.111   .     S
C1611  H1763   1.114   .     S
C1611  O2005   1.415   .     S
C1611  C1612   1.521   .     S
C1611  H1764   1.111   .     S
C1612  H1765   1.111   .     S
C1612  H1767   1.111   .     S
C1612  H1766   1.110   .     S
C1613  H1769   1.114   .     S
C1613  H1768   1.113   .     S
C1614  C1636   1.403   .     A
C1614  C1664   1.447   .     S
C1615  H1773   1.111   .     S
C1615  H1771   1.111   .     S
C1615  C1105   1.520   1_655 S
C1615  H1264   1.110   1_655 S
C1616  O2008   1.415   .     S
C1616  H1774   1.114   .     S
C1616  C1617   1.521   .     S
C1616  H1775   1.111   .     S
C1617  H1778   1.111   .     S
C1617  H1777   1.110   .     S
C1617  H1776   1.111   .     S
C1618  H1779   1.113   .     S
C1618  H1780   1.114   .     S
C1619  H1784   1.111   .     S
C1619  H1782   1.111   .     S
C1619  C602    1.520   1_565 S
C1619  H767    1.110   1_565 S
C1620  H1786   1.114   .     S
C1620  O2010   1.413   .     S
C1620  H1785   1.113   .     S
C1620  C1621   1.520   .     S
C1621  H1789   1.111   .     S
C1621  H1787   1.111   .     S
C1621  H1788   1.110   .     S
C1622  C1623   1.521   .     S
C1622  O2011   1.415   .     S
C1622  H1790   1.114   .     S
C1622  H1791   1.111   .     S
C1623  H1794   1.110   .     S
C1623  H1795   1.111   .     S
C1623  H1793   1.111   .     S
C1624  O2012   1.413   .     S
C1624  H1796   1.113   .     S
C1624  C1626   1.520   .     S
C1624  H1797   1.114   .     S
C1625  C1661   1.452   .     S
C1625  C1692   1.406   .     S
C1626  H1798   1.111   .     S
C1626  H1799   1.110   .     S
C1626  H1800   1.111   .     S
C1627  H1802   1.111   .     S
C1627  O2013   1.415   .     S
C1627  C1628   1.521   .     S
C1627  H1801   1.114   .     S
C1628  H1804   1.111   .     S
C1628  H1805   1.110   .     S
C1628  H1806   1.111   .     S
C1629  O2014   1.413   .     S
C1629  H1807   1.113   .     S
C1629  C1630   1.520   .     S
C1629  H1808   1.114   .     S
C1630  H1811   1.111   .     S
C1630  H1809   1.111   .     S
C1630  H1810   1.110   .     S
C1631  O2015   1.415   .     S
C1631  C1632   1.521   .     S
C1631  H1812   1.114   .     S
C1631  H1813   1.111   .     S
C1632  H1815   1.111   .     S
C1632  H1817   1.111   .     S
C1632  H1816   1.110   .     S
C1633  O2016   1.413   .     S
C1633  H1819   1.114   .     S
C1633  C1634   1.520   .     S
C1633  H1818   1.113   .     S
C1634  H1822   1.111   .     S
C1634  H1820   1.111   .     S
C1634  H1821   1.110   .     S
C1635  O1919   1.415   .     S
C1635  H1824   1.111   .     S
C1635  H1823   1.114   .     S
C1635  C1638   1.521   .     S
C1636  O2002   1.385   .     S
C1637  C1659   1.403   .     A
C1637  C1662   1.447   .     S
C1638  H1826   1.111   .     S
C1638  H1828   1.111   .     S
C1638  H1827   1.110   .     S
C1639  C1714   1.403   .     A
C1639  C1667   1.447   .     S
C1640  C1668   1.452   .     S
C1641  C1665   1.447   .     S
C1642  C1666   1.452   .     S
C1643  C1722   1.404   .     A
C1643  C1649   1.389   .     A
C1643  H1725   1.083   .     S
C1644  C1723   1.402   .     A
C1644  H1829   1.083   .     S
C1644  C1647   1.389   .     A
C1645  H1840   1.083   .     S
C1645  C1651   1.389   .     A
C1645  C1724   1.404   .     A
C1646  H1851   1.083   .     S
C1646  C1650   1.389   .     A
C1647  H1862   1.083   .     S
C1648  C609    1.406   1_565 A
C1648  O2003   1.386   .     S
C1649  H1873   1.083   .     S
C1650  H1884   1.083   .     S
C1651  H1895   1.083   .     S
C1652  H1906   1.083   .     S
C1652  C1657   1.389   1_556 S
C1653  H1726   1.083   .     S
C1653  C1656   1.389   1_554 S
C1654  H1737   1.083   .     S
C1654  C1660   1.389   1_556 S
C1655  H1748   1.083   .     S
C1655  C1658   1.389   1_554 S
C1656  H1759   1.083   .     S
C1656  C1653   1.389   1_556 S
C1657  H1770   1.083   .     S
C1657  C1652   1.389   1_554 S
C1658  H1781   1.083   .     S
C1658  C1655   1.389   1_556 S
C1659  O2004   1.385   .     S
C1660  H1792   1.083   .     S
C1660  C1654   1.389   1_554 S
C1661  O2006   1.279   .     S
C1662  O1973   1.277   .     S
C1663  O1984   1.279   .     S
C1664  O1921   1.277   .     S
C1665  O1922   1.277   .     S
C1665  O1926   1.277   .     S
C1666  O1923   1.279   .     S
C1666  O1927   1.279   .     S
C1667  O1924   1.277   .     A
C1667  O1928   1.277   .     A
C1668  O1925   1.279   .     S
C1668  O1930   1.279   .     S
C1669  O1931   1.280   .     A
C1669  O1959   1.280   .     A
C1670  C1722   1.406   .     A
C1670  O2005   1.386   .     S
C1671  O1960   1.281   .     A
C1671  O1932   1.281   .     A
C1672  O1957   1.280   .     A
C1672  O1933   1.280   .     A
C1673  O1934   1.281   .     A
C1673  O1958   1.281   .     A
C1674  O1935   1.280   .     A
C1674  O1964   1.280   .     A
C1675  O1936   1.281   .     A
C1675  O1965   1.281   .     A
C1676  O1937   1.280   .     A
C1676  O1961   1.280   .     A
C1677  O1963   1.281   .     A
C1677  O1938   1.281   .     A
C1678  O1950   1.281   .     A
C1678  O1939   1.281   .     A
C1679  O1941   1.283   .     A
C1679  O1952   1.283   .     A
C1680  O1942   1.281   .     A
C1680  O1948   1.281   .     A
C1681  O2007   1.385   .     S
C1681  C1723   1.402   .     A
C1681  C1106   1.403   1_655 S
C1682  O1949   1.283   .     A
C1682  O1943   1.283   .     A
C1683  O1944   1.281   .     A
C1683  O1955   1.281   .     A
C1684  O1945   1.283   .     A
C1684  O1956   1.283   .     A
C1685  O1946   1.281   .     A
C1685  O1953   1.281   .     A
C1686  O1954   1.283   .     A
C1686  O1947   1.283   .     A
C1687  O1966   1.383   .     S
C1687  C1704   1.395   .     A
C1688  O1967   1.385   .     S
C1688  C1702   1.403   .     A
C1689  C1701   1.395   .     A
C1689  O1968   1.383   .     S
C1690  C1700   1.403   .     A
C1690  O1969   1.385   .     S
C1691  C1699   1.395   .     A
C1691  O1970   1.383   .     S
C1692  O2008   1.386   .     S
C1692  C1724   1.406   .     A
C1693  O1971   1.385   .     S
C1693  C1698   1.403   .     A
C1694  O1972   1.383   .     S
C1694  C1697   1.395   .     A
C1695  O1974   1.385   .     S
C1695  C1696   1.403   .     A
C1696  O1975   1.385   .     S
C1697  O1976   1.389   .     S
C1698  O1977   1.385   .     S
C1699  O1978   1.389   .     S
C1700  O1979   1.385   .     S
C1701  O1980   1.389   .     S
C1702  O1981   1.385   .     S
C1703  O2009   1.385   .     S
C1703  C621    1.403   1_565 S
C1704  O1982   1.389   .     S
C1705  C1721   1.403   .     A
C1705  O1983   1.385   .     S
C1706  O1985   1.389   .     S
C1706  C1720   1.395   .     A
C1707  O1986   1.385   .     S
C1707  C1719   1.403   .     A
C1708  C1718   1.395   .     A
C1708  O1987   1.389   .     S
C1709  O1988   1.385   .     S
C1709  C1717   1.403   .     A
C1710  O1989   1.389   .     S
C1710  C1716   1.395   .     A
C1711  O1990   1.385   .     S
C1711  C1715   1.403   .     A
C1712  O1991   1.389   .     S
C1712  C1713   1.395   .     A
C1713  O1992   1.383   .     S
C1714  O2010   1.385   .     S
C1715  O1993   1.385   .     S
C1716  O1994   1.383   .     S
C1717  O1996   1.385   .     S
C1718  O1997   1.383   .     S
C1719  O1998   1.385   .     S
C1720  O1999   1.383   .     S
C1721  O2000   1.385   .     S
C1723  C1052   1.415   1_655 S
H1750  C1098   1.110   1_655 S
H1761  C594    1.110   1_565 S
O1917  Zn2028  1.948   .     S
O1917  Zn2017  1.948   .     S
O1917  Zn2020  1.948   .     S
O1918  C646    1.277   1_565 A
O1918  Zn2019  1.943   .     S
O1920  Zn2022  1.943   .     S
O1920  C1155   1.279   1_655 A
O1921  Zn2021  1.943   .     S
O1922  Zn2031  1.943   .     S
O1923  Zn2030  1.943   .     S
O1924  Zn2025  1.943   .     S
O1925  Zn2017  1.943   .     S
O1926  Zn2027  1.943   .     S
O1927  Zn2026  1.943   .     S
O1928  Zn2029  1.943   .     S
O1929  Zn2025  1.948   .     S
O1929  Zn2029  1.948   .     S
O1929  Zn2023  1.948   .     S
O1930  Zn2028  1.943   .     S
O1931  Zn2020  1.940   .     S
O1932  Zn2019  1.940   .     S
O1933  Zn2022  1.940   .     S
O1934  Zn2021  1.940   .     S
O1935  Zn2024  1.940   .     S
O1936  Zn2023  1.940   .     S
O1937  Zn2018  1.940   .     S
O1938  Zn2032  1.940   .     S
O1939  Zn2019  1.940   .     S
O1940  Zn2018  1.949   .     S
O1940  Zn2026  1.948   .     S
O1940  Zn2030  1.948   .     S
O1941  Zn2020  1.940   .     S
O1942  Zn2032  1.940   .     S
O1943  Zn2018  1.940   .     S
O1944  Zn2023  1.940   .     S
O1945  Zn2024  1.940   .     S
O1946  Zn2021  1.940   .     S
O1947  Zn2022  1.940   .     S
O1948  Zn1519  1.940   1_655 S
O1949  Zn2026  1.940   .     S
O1950  Zn1013  1.940   1_565 S
O1951  Zn2031  1.948   .     S
O1951  Zn2027  1.948   .     S
O1951  Zn2021  1.948   .     S
O1952  Zn2028  1.940   .     S
O1953  Zn2031  1.940   .     S
O1954  Zn1522  1.940   1_655 S
O1955  Zn2025  1.940   .     S
O1956  Zn1001  1.940   1_565 S
O1957  Zn1518  1.940   1_655 S
O1958  Zn2027  1.940   .     S
O1959  Zn2017  1.940   .     S
O1960  Zn1009  1.940   1_565 S
O1961  Zn2030  1.940   .     S
O1962  Zn2024  1.943   .     S
O1962  C645    1.279   1_565 A
O1963  Zn1523  1.940   1_655 S
O1964  Zn1012  1.940   1_565 S
O1965  Zn2029  1.940   .     S
O1973  Zn2023  1.943   .     S
O1984  Zn2018  1.943   .     S
O1995  Zn2032  1.943   .     S
O1995  C1156   1.277   1_655 A
O2006  Zn2020  1.943   .     S
O2007  C1105   1.413   1_655 S
O2009  C602    1.413   1_565 S
Zn2019 O913    1.948   1_565 S
Zn2022 O1432   1.948   1_655 S
Zn2024 O901    1.948   1_565 S
Zn2032 O1443   1.948   1_655 S
