data_str_m1_o5_o17_pcu_sym.24
_audit_creation_date              2020-01-03
_audit_creation_method            'Materials Studio'
_symmetry_space_group_name_H-M    'P1'
_symmetry_Int_Tables_number       1
_symmetry_cell_setting            triclinic
loop_
_symmetry_equiv_pos_as_xyz
  x,y,z
_cell_length_a                    31.7713
_cell_length_b                    31.7713
_cell_length_c                    34.5103
_cell_angle_alpha                 90.0000
_cell_angle_beta                  90.0000
_cell_angle_gamma                 90.0974
loop_
_atom_site_label
_atom_site_type_symbol
_atom_site_fract_x
_atom_site_fract_y
_atom_site_fract_z
_atom_site_U_iso_or_equiv
_atom_site_adp_type
_atom_site_occupancy
Br1    Br    0.04295   0.32906   0.38947   0.00000  Uiso   1.00
Br2    Br    0.20705   0.42094   0.11053   0.00000  Uiso   1.00
Br3    Br    0.42094   0.20705   0.88946   0.00000  Uiso   1.00
Br4    Br    0.07906   0.29295   0.11053   0.00000  Uiso   1.00
Br5    Br    0.20705   0.42094   0.88947   0.00000  Uiso   1.00
Br6    Br    0.29295   0.07906   0.11053   0.00000  Uiso   1.00
Br7    Br    0.07906   0.29295   0.88946   0.00000  Uiso   1.00
Br8    Br    0.42094   0.20705   0.11053   0.00000  Uiso   1.00
Br9    Br    0.45705   0.17094   0.61053   0.00000  Uiso   1.00
Br10   Br    0.17094   0.45705   0.38946   0.00000  Uiso   1.00
Br11   Br    0.32906   0.04295   0.61053   0.00000  Uiso   1.00
Br12   Br    0.45705   0.17094   0.38947   0.00000  Uiso   1.00
Br13   Br    0.04295   0.32906   0.61053   0.00000  Uiso   1.00
Br14   Br    0.32906   0.04295   0.38946   0.00000  Uiso   1.00
Br15   Br    0.17094   0.45705   0.61053   0.00000  Uiso   1.00
Br16   Br    0.29295   0.07906   0.88947   0.00000  Uiso   1.00
C17    C     0.25000  -0.00000   0.35591   0.00000  Uiso   1.00
C18    C     0.33002   0.41998   0.75000   0.00000  Uiso   1.00
C19    C     0.45171   0.18986   0.02024   0.00000  Uiso   1.00
C20    C     0.31014   0.04828   0.97976   0.00000  Uiso   1.00
C21    C     0.18986   0.45172   0.02023   0.00000  Uiso   1.00
C22    C     0.45171   0.18986   0.97976   0.00000  Uiso   1.00
C23    C     0.04829   0.31014   0.02023   0.00000  Uiso   1.00
C24    C     0.41999   0.16999   0.25000   0.00000  Uiso   1.00
C25    C     0.08001   0.33001   0.75000   0.00000  Uiso   1.00
C26    C     0.33002   0.41998   0.25000   0.00000  Uiso   1.00
C27    C     0.16998   0.08002   0.75000   0.00000  Uiso   1.00
C28    C     0.08001   0.33001   0.25000   0.00000  Uiso   1.00
C29    C     0.41999   0.16999   0.75000   0.00000  Uiso   1.00
C30    C     0.16999   0.41999   0.75000   0.00000  Uiso   1.00
C31    C     0.33001   0.08001   0.25000   0.00000  Uiso   1.00
C32    C     0.41998   0.33002   0.75000   0.00000  Uiso   1.00
C33    C     0.25000  -0.00000   0.64409   0.00000  Uiso   1.00
C34    C     0.08002   0.16998   0.25000   0.00000  Uiso   1.00
C35    C     0.33001   0.08001   0.75000   0.00000  Uiso   1.00
C36    C     0.16999   0.41999   0.25000   0.00000  Uiso   1.00
C37    C     0.08002   0.16998   0.75000   0.00000  Uiso   1.00
C38    C     0.41998   0.33002   0.25000   0.00000  Uiso   1.00
C39    C     0.13834   0.38834   0.25000   0.00000  Uiso   1.00
C40    C     0.36166   0.11166   0.75000   0.00000  Uiso   1.00
C41    C     0.11167   0.13833   0.25000   0.00000  Uiso   1.00
C42    C     0.38833   0.36167   0.75000   0.00000  Uiso   1.00
C43    C     0.36166   0.11166   0.25000   0.00000  Uiso   1.00
C44    C     0.00000   0.25000   0.35591   0.00000  Uiso   1.00
C45    C     0.13834   0.38834   0.75000   0.00000  Uiso   1.00
C46    C     0.38833   0.36167   0.25000   0.00000  Uiso   1.00
C47    C     0.11167   0.13833   0.75000   0.00000  Uiso   1.00
C48    C     0.13833   0.11167   0.75000   0.00000  Uiso   1.00
C49    C     0.36167   0.38833   0.25000   0.00000  Uiso   1.00
C50    C     0.11166   0.36166   0.75000   0.00000  Uiso   1.00
C51    C     0.38834   0.13834   0.25000   0.00000  Uiso   1.00
C52    C     0.36167   0.38833   0.75000   0.00000  Uiso   1.00
C53    C     0.13833   0.11167   0.25000   0.00000  Uiso   1.00
C54    C     0.38834   0.13834   0.75000   0.00000  Uiso   1.00
C55    C     0.00000   0.25000   0.64409   0.00000  Uiso   1.00
C56    C     0.11166   0.36166   0.25000   0.00000  Uiso   1.00
C57    C     0.02375   0.28020   0.41829   0.00000  Uiso   1.00
C58    C     0.47625   0.21980   0.58171   0.00000  Uiso   1.00
C59    C     0.21980   0.47625   0.41829   0.00000  Uiso   1.00
C60    C     0.28020   0.02375   0.58171   0.00000  Uiso   1.00
C61    C     0.47625   0.21980   0.41829   0.00000  Uiso   1.00
C62    C     0.02375   0.28020   0.58171   0.00000  Uiso   1.00
C63    C     0.28020   0.02375   0.41829   0.00000  Uiso   1.00
C64    C     0.21980   0.47625   0.58171   0.00000  Uiso   1.00
C65    C     0.27375   0.03020   0.91829   0.00000  Uiso   1.00
C66    C     0.00000   0.25000   0.85591   0.00000  Uiso   1.00
C67    C     0.22625   0.46980   0.08171   0.00000  Uiso   1.00
C68    C     0.46980   0.22625   0.91829   0.00000  Uiso   1.00
C69    C     0.03020   0.27375   0.08171   0.00000  Uiso   1.00
C70    C     0.22625   0.46980   0.91829   0.00000  Uiso   1.00
C71    C     0.27375   0.03020   0.08171   0.00000  Uiso   1.00
C72    C     0.03020   0.27375   0.91829   0.00000  Uiso   1.00
C73    C     0.46980   0.22625   0.08171   0.00000  Uiso   1.00
C74    C     0.00000   0.25000   0.39826   0.00000  Uiso   1.00
C75    C     0.00000   0.25000   0.60174   0.00000  Uiso   1.00
C76    C     0.25000  -0.00000   0.39826   0.00000  Uiso   1.00
C77    C     0.00000   0.25000   0.14409   0.00000  Uiso   1.00
C78    C     0.25000  -0.00000   0.60174   0.00000  Uiso   1.00
C79    C     0.25000  -0.00000   0.89826   0.00000  Uiso   1.00
C80    C     0.25000  -0.00000   0.10174   0.00000  Uiso   1.00
C81    C     0.00000   0.25000   0.89826   0.00000  Uiso   1.00
C82    C     0.00000   0.25000   0.10174   0.00000  Uiso   1.00
C83    C     0.47191   0.22313   0.45895   0.00000  Uiso   1.00
C84    C     0.02809   0.27687   0.54105   0.00000  Uiso   1.00
C85    C     0.27687   0.02809   0.45895   0.00000  Uiso   1.00
C86    C     0.22313   0.47191   0.54105   0.00000  Uiso   1.00
C87    C     0.02809   0.27687   0.45895   0.00000  Uiso   1.00
C88    C     0.25000  -0.00000   0.85591   0.00000  Uiso   1.00
C89    C     0.47191   0.22313   0.54105   0.00000  Uiso   1.00
C90    C     0.22313   0.47191   0.45895   0.00000  Uiso   1.00
C91    C     0.27687   0.02809   0.54105   0.00000  Uiso   1.00
C92    C     0.22190   0.47313   0.95895   0.00000  Uiso   1.00
C93    C     0.27809   0.02687   0.04105   0.00000  Uiso   1.00
C94    C     0.02687   0.27809   0.95895   0.00000  Uiso   1.00
C95    C     0.47313   0.22191   0.04105   0.00000  Uiso   1.00
C96    C     0.27809   0.02687   0.95895   0.00000  Uiso   1.00
C97    C     0.22190   0.47313   0.04105   0.00000  Uiso   1.00
C98    C     0.47313   0.22191   0.95895   0.00000  Uiso   1.00
C99    C     0.25000  -0.00000   0.14409   0.00000  Uiso   1.00
C100   C     0.02687   0.27809   0.04105   0.00000  Uiso   1.00
C101   C     0.00000   0.25000   0.47948   0.00000  Uiso   1.00
C102   C     0.00000   0.25000   0.52052   0.00000  Uiso   1.00
C103   C     0.25000  -0.00000   0.47948   0.00000  Uiso   1.00
C104   C     0.25000  -0.00000   0.52052   0.00000  Uiso   1.00
C105   C     0.25000   0.00000   0.97948   0.00000  Uiso   1.00
C106   C     0.25000   0.00000   0.02052   0.00000  Uiso   1.00
C107   C     0.00000   0.25000   0.97948   0.00000  Uiso   1.00
C108   C     0.00000   0.25000   0.02052   0.00000  Uiso   1.00
C109   C     0.43986   0.20171   0.47976   0.00000  Uiso   1.00
C110   C     0.16998   0.08002   0.25000   0.00000  Uiso   1.00
C111   C     0.06014   0.29829   0.52023   0.00000  Uiso   1.00
C112   C     0.29829   0.06014   0.47976   0.00000  Uiso   1.00
C113   C     0.20171   0.43986   0.52023   0.00000  Uiso   1.00
C114   C     0.06014   0.29829   0.47976   0.00000  Uiso   1.00
C115   C     0.43986   0.20171   0.52023   0.00000  Uiso   1.00
C116   C     0.20171   0.43986   0.47976   0.00000  Uiso   1.00
C117   C     0.29829   0.06014   0.52023   0.00000  Uiso   1.00
C118   C     0.18986   0.45172   0.97976   0.00000  Uiso   1.00
C119   C     0.31014   0.04828   0.02024   0.00000  Uiso   1.00
C120   C     0.04829   0.31014   0.97976   0.00000  Uiso   1.00
H121   H     0.40987   0.15346   0.45211   0.00000  Uiso   1.00
H122   H     0.10640   0.29671   0.43821   0.00000  Uiso   1.00
H123   H     0.40987   0.15346   0.54789   0.00000  Uiso   1.00
H124   H     0.39360   0.20329   0.56178   0.00000  Uiso   1.00
H125   H     0.15346   0.40987   0.45211   0.00000  Uiso   1.00
H126   H     0.20329   0.39360   0.43821   0.00000  Uiso   1.00
H127   H     0.34654   0.09013   0.54789   0.00000  Uiso   1.00
H128   H     0.29671   0.10640   0.56178   0.00000  Uiso   1.00
H129   H     0.15986   0.40347   0.95211   0.00000  Uiso   1.00
H130   H     0.14360   0.45330   0.93821   0.00000  Uiso   1.00
H131   H     0.34014   0.09653   0.04789   0.00000  Uiso   1.00
H132   H     0.39360   0.20329   0.43821   0.00000  Uiso   1.00
H133   H     0.35640   0.04670   0.06179   0.00000  Uiso   1.00
H134   H     0.09654   0.34013   0.95211   0.00000  Uiso   1.00
H135   H     0.04671   0.35640   0.93821   0.00000  Uiso   1.00
H136   H     0.40346   0.15987   0.04789   0.00000  Uiso   1.00
H137   H     0.45329   0.14360   0.06179   0.00000  Uiso   1.00
H138   H     0.34014   0.09653   0.95211   0.00000  Uiso   1.00
H139   H     0.35640   0.04670   0.93821   0.00000  Uiso   1.00
H140   H     0.15986   0.40347   0.04789   0.00000  Uiso   1.00
H141   H     0.14360   0.45330   0.06178   0.00000  Uiso   1.00
H142   H     0.40346   0.15987   0.95211   0.00000  Uiso   1.00
H143   H     0.09013   0.34654   0.54789   0.00000  Uiso   1.00
H144   H     0.45329   0.14360   0.93821   0.00000  Uiso   1.00
H145   H     0.09654   0.34013   0.04789   0.00000  Uiso   1.00
H146   H     0.04671   0.35640   0.06178   0.00000  Uiso   1.00
H147   H     0.10640   0.29670   0.56178   0.00000  Uiso   1.00
H148   H     0.34654   0.09013   0.45211   0.00000  Uiso   1.00
H149   H     0.29671   0.10640   0.43821   0.00000  Uiso   1.00
H150   H     0.15346   0.40987   0.54789   0.00000  Uiso   1.00
H151   H     0.20329   0.39360   0.56178   0.00000  Uiso   1.00
H152   H     0.09013   0.34654   0.45211   0.00000  Uiso   1.00
N153   N     0.40342   0.18415   0.46112   0.00000  Uiso   1.00
N154   N     0.34658   0.06585   0.03888   0.00000  Uiso   1.00
N155   N     0.06585   0.34658   0.96112   0.00000  Uiso   1.00
N156   N     0.43414   0.15342   0.03888   0.00000  Uiso   1.00
N157   N     0.34658   0.06585   0.96112   0.00000  Uiso   1.00
N158   N     0.15342   0.43415   0.03888   0.00000  Uiso   1.00
N159   N     0.43414   0.15342   0.96112   0.00000  Uiso   1.00
N160   N     0.06585   0.34658   0.03888   0.00000  Uiso   1.00
N161   N     0.09658   0.31585   0.53888   0.00000  Uiso   1.00
N162   N     0.31586   0.09658   0.46112   0.00000  Uiso   1.00
N163   N     0.18414   0.40342   0.53888   0.00000  Uiso   1.00
N164   N     0.09658   0.31585   0.46112   0.00000  Uiso   1.00
N165   N     0.40342   0.18415   0.53888   0.00000  Uiso   1.00
N166   N     0.18414   0.40342   0.46112   0.00000  Uiso   1.00
N167   N     0.31586   0.09658   0.53888   0.00000  Uiso   1.00
N168   N     0.15342   0.43415   0.96112   0.00000  Uiso   1.00
O169   O     0.25000  -0.00000   0.25000   0.00000  Uiso   1.00
O170   O     0.25000   0.46538   0.66251   0.00000  Uiso   1.00
O171   O     0.46538   0.25000   0.33749   0.00000  Uiso   1.00
O172   O     0.03461   0.25000   0.66251   0.00000  Uiso   1.00
O173   O     0.00000   0.21538   0.83749   0.00000  Uiso   1.00
O174   O     0.00000   0.28461   0.16251   0.00000  Uiso   1.00
O175   O     0.28461  -0.00000   0.83749   0.00000  Uiso   1.00
O176   O     0.21538  -0.00000   0.16251   0.00000  Uiso   1.00
O177   O    -0.00000   0.28461   0.83749   0.00000  Uiso   1.00
O178   O     0.00000   0.21538   0.16251   0.00000  Uiso   1.00
O179   O     0.21538  -0.00000   0.83749   0.00000  Uiso   1.00
O180   O     0.25000  -0.00000   0.75000   0.00000  Uiso   1.00
O181   O     0.28461  -0.00000   0.16251   0.00000  Uiso   1.00
O182   O     0.20126   0.08332   0.27298   0.00000  Uiso   1.00
O183   O     0.29873   0.41668   0.72702   0.00000  Uiso   1.00
O184   O     0.41668   0.20126   0.27298   0.00000  Uiso   1.00
O185   O     0.08332   0.29873   0.72702   0.00000  Uiso   1.00
O186   O     0.29873   0.41668   0.27298   0.00000  Uiso   1.00
O187   O     0.20126   0.08332   0.72702   0.00000  Uiso   1.00
O188   O     0.08332   0.29873   0.27298   0.00000  Uiso   1.00
O189   O     0.41668   0.20126   0.72702   0.00000  Uiso   1.00
O190   O     0.20126   0.41668   0.72702   0.00000  Uiso   1.00
O191   O     0.00000   0.25000   0.25000   0.00000  Uiso   1.00
O192   O     0.29873   0.08332   0.27298   0.00000  Uiso   1.00
O193   O     0.41668   0.29873   0.72702   0.00000  Uiso   1.00
O194   O     0.08332   0.20126   0.27298   0.00000  Uiso   1.00
O195   O     0.29873   0.08332   0.72702   0.00000  Uiso   1.00
O196   O     0.20126   0.41668   0.27298   0.00000  Uiso   1.00
O197   O     0.08332   0.20126   0.72702   0.00000  Uiso   1.00
O198   O     0.41668   0.29873   0.27298   0.00000  Uiso   1.00
O199   O     0.45126   0.33332   0.77298   0.00000  Uiso   1.00
O200   O     0.04873   0.16668   0.22702   0.00000  Uiso   1.00
O201   O     0.16668   0.45126   0.77298   0.00000  Uiso   1.00
O202   O     0.00000   0.25000   0.75000   0.00000  Uiso   1.00
O203   O     0.33332   0.04873   0.22702   0.00000  Uiso   1.00
O204   O     0.04873   0.16668   0.77298   0.00000  Uiso   1.00
O205   O     0.45126   0.33332   0.22702   0.00000  Uiso   1.00
O206   O     0.33332   0.04873   0.77298   0.00000  Uiso   1.00
O207   O     0.16668   0.45126   0.22702   0.00000  Uiso   1.00
O208   O     0.45126   0.16668   0.22702   0.00000  Uiso   1.00
O209   O     0.04873   0.33332   0.77298   0.00000  Uiso   1.00
O210   O     0.16668   0.04873   0.22702   0.00000  Uiso   1.00
O211   O     0.33332   0.45126   0.77298   0.00000  Uiso   1.00
O212   O     0.04873   0.33332   0.22702   0.00000  Uiso   1.00
O213   O     0.25000   0.46538   0.33749   0.00000  Uiso   1.00
O214   O     0.45126   0.16668   0.77298   0.00000  Uiso   1.00
O215   O     0.33332   0.45126   0.22702   0.00000  Uiso   1.00
O216   O     0.16668   0.04873   0.77298   0.00000  Uiso   1.00
O217   O     0.25000   0.03461   0.66251   0.00000  Uiso   1.00
O218   O     0.03461   0.25000   0.33749   0.00000  Uiso   1.00
O219   O     0.46538   0.25000   0.66251   0.00000  Uiso   1.00
O220   O     0.25000   0.03461   0.33749   0.00000  Uiso   1.00
Zn221  Zn    0.20052  -0.00000   0.21730   0.00000  Uiso   1.00
Zn222  Zn    0.04947   0.25000   0.28270   0.00000  Uiso   1.00
Zn223  Zn    0.25000   0.45052   0.71730   0.00000  Uiso   1.00
Zn224  Zn    0.25000   0.04947   0.28270   0.00000  Uiso   1.00
Zn225  Zn    0.04947   0.25000   0.71730   0.00000  Uiso   1.00
Zn226  Zn    0.45052   0.25000   0.28270   0.00000  Uiso   1.00
Zn227  Zn    0.25000   0.04947   0.71730   0.00000  Uiso   1.00
Zn228  Zn    0.25000   0.45052   0.28270   0.00000  Uiso   1.00
Zn229  Zn    0.29947  -0.00000   0.78270   0.00000  Uiso   1.00
Zn230  Zn    0.00000   0.20052   0.21730   0.00000  Uiso   1.00
Zn231  Zn    0.00000   0.29947   0.78270   0.00000  Uiso   1.00
Zn232  Zn    0.29947  -0.00000   0.21730   0.00000  Uiso   1.00
Zn233  Zn    0.20052  -0.00000   0.78270   0.00000  Uiso   1.00
Zn234  Zn   -0.00000   0.29947   0.21730   0.00000  Uiso   1.00
Zn235  Zn   -0.00000   0.20052   0.78270   0.00000  Uiso   1.00
Zn236  Zn    0.45052   0.25000   0.71730   0.00000  Uiso   1.00
Br237  Br    0.54295   0.32906   0.38947   0.00000  Uiso   1.00
Br238  Br    0.70705   0.42094   0.11053   0.00000  Uiso   1.00
Br239  Br    0.92094   0.20705   0.88946   0.00000  Uiso   1.00
Br240  Br    0.57906   0.29295   0.11053   0.00000  Uiso   1.00
Br241  Br    0.70705   0.42094   0.88947   0.00000  Uiso   1.00
Br242  Br    0.79295   0.07906   0.11053   0.00000  Uiso   1.00
Br243  Br    0.57906   0.29295   0.88946   0.00000  Uiso   1.00
Br244  Br    0.92094   0.20705   0.11053   0.00000  Uiso   1.00
Br245  Br    0.95705   0.17094   0.61053   0.00000  Uiso   1.00
Br246  Br    0.67094   0.45705   0.38946   0.00000  Uiso   1.00
Br247  Br    0.82906   0.04295   0.61053   0.00000  Uiso   1.00
Br248  Br    0.95705   0.17094   0.38947   0.00000  Uiso   1.00
Br249  Br    0.54295   0.32906   0.61053   0.00000  Uiso   1.00
Br250  Br    0.82906   0.04295   0.38946   0.00000  Uiso   1.00
Br251  Br    0.67094   0.45705   0.61053   0.00000  Uiso   1.00
Br252  Br    0.79295   0.07906   0.88947   0.00000  Uiso   1.00
C253   C     0.75000  -0.00000   0.35591   0.00000  Uiso   1.00
C254   C     0.83002   0.41998   0.75000   0.00000  Uiso   1.00
C255   C     0.95171   0.18986   0.02024   0.00000  Uiso   1.00
C256   C     0.81014   0.04828   0.97976   0.00000  Uiso   1.00
C257   C     0.68986   0.45172   0.02023   0.00000  Uiso   1.00
C258   C     0.95171   0.18986   0.97976   0.00000  Uiso   1.00
C259   C     0.54829   0.31014   0.02023   0.00000  Uiso   1.00
C260   C     0.91999   0.16999   0.25000   0.00000  Uiso   1.00
C261   C     0.58001   0.33001   0.75000   0.00000  Uiso   1.00
C262   C     0.83002   0.41998   0.25000   0.00000  Uiso   1.00
C263   C     0.66998   0.08002   0.75000   0.00000  Uiso   1.00
C264   C     0.58001   0.33001   0.25000   0.00000  Uiso   1.00
C265   C     0.91999   0.16999   0.75000   0.00000  Uiso   1.00
C266   C     0.66999   0.41999   0.75000   0.00000  Uiso   1.00
C267   C     0.83001   0.08001   0.25000   0.00000  Uiso   1.00
C268   C     0.91998   0.33002   0.75000   0.00000  Uiso   1.00
C269   C     0.75000  -0.00000   0.64409   0.00000  Uiso   1.00
C270   C     0.58002   0.16998   0.25000   0.00000  Uiso   1.00
C271   C     0.83001   0.08001   0.75000   0.00000  Uiso   1.00
C272   C     0.66999   0.41999   0.25000   0.00000  Uiso   1.00
C273   C     0.58002   0.16998   0.75000   0.00000  Uiso   1.00
C274   C     0.91998   0.33002   0.25000   0.00000  Uiso   1.00
C275   C     0.63834   0.38834   0.25000   0.00000  Uiso   1.00
C276   C     0.86166   0.11166   0.75000   0.00000  Uiso   1.00
C277   C     0.61167   0.13833   0.25000   0.00000  Uiso   1.00
C278   C     0.88833   0.36167   0.75000   0.00000  Uiso   1.00
C279   C     0.86166   0.11166   0.25000   0.00000  Uiso   1.00
C280   C     0.50000   0.25000   0.35591   0.00000  Uiso   1.00
C281   C     0.63834   0.38834   0.75000   0.00000  Uiso   1.00
C282   C     0.88833   0.36167   0.25000   0.00000  Uiso   1.00
C283   C     0.61167   0.13833   0.75000   0.00000  Uiso   1.00
C284   C     0.63833   0.11167   0.75000   0.00000  Uiso   1.00
C285   C     0.86167   0.38833   0.25000   0.00000  Uiso   1.00
C286   C     0.61166   0.36166   0.75000   0.00000  Uiso   1.00
C287   C     0.88834   0.13834   0.25000   0.00000  Uiso   1.00
C288   C     0.86167   0.38833   0.75000   0.00000  Uiso   1.00
C289   C     0.63833   0.11167   0.25000   0.00000  Uiso   1.00
C290   C     0.88834   0.13834   0.75000   0.00000  Uiso   1.00
C291   C     0.50000   0.25000   0.64409   0.00000  Uiso   1.00
C292   C     0.61166   0.36166   0.25000   0.00000  Uiso   1.00
C293   C     0.52375   0.28020   0.41829   0.00000  Uiso   1.00
C294   C     0.97625   0.21980   0.58171   0.00000  Uiso   1.00
C295   C     0.71980   0.47625   0.41829   0.00000  Uiso   1.00
C296   C     0.78020   0.02375   0.58171   0.00000  Uiso   1.00
C297   C     0.97625   0.21980   0.41829   0.00000  Uiso   1.00
C298   C     0.52375   0.28020   0.58171   0.00000  Uiso   1.00
C299   C     0.78020   0.02375   0.41829   0.00000  Uiso   1.00
C300   C     0.71980   0.47625   0.58171   0.00000  Uiso   1.00
C301   C     0.77375   0.03020   0.91829   0.00000  Uiso   1.00
C302   C     0.50000   0.25000   0.85591   0.00000  Uiso   1.00
C303   C     0.72625   0.46980   0.08171   0.00000  Uiso   1.00
C304   C     0.96980   0.22625   0.91829   0.00000  Uiso   1.00
C305   C     0.53020   0.27375   0.08171   0.00000  Uiso   1.00
C306   C     0.72625   0.46980   0.91829   0.00000  Uiso   1.00
C307   C     0.77375   0.03020   0.08171   0.00000  Uiso   1.00
C308   C     0.53020   0.27375   0.91829   0.00000  Uiso   1.00
C309   C     0.96980   0.22625   0.08171   0.00000  Uiso   1.00
C310   C     0.50000   0.25000   0.39826   0.00000  Uiso   1.00
C311   C     0.50000   0.25000   0.60174   0.00000  Uiso   1.00
C312   C     0.75000  -0.00000   0.39826   0.00000  Uiso   1.00
C313   C     0.50000   0.25000   0.14409   0.00000  Uiso   1.00
C314   C     0.75000  -0.00000   0.60174   0.00000  Uiso   1.00
C315   C     0.75000  -0.00000   0.89826   0.00000  Uiso   1.00
C316   C     0.75000  -0.00000   0.10174   0.00000  Uiso   1.00
C317   C     0.50000   0.25000   0.89826   0.00000  Uiso   1.00
C318   C     0.50000   0.25000   0.10174   0.00000  Uiso   1.00
C319   C     0.97191   0.22313   0.45895   0.00000  Uiso   1.00
C320   C     0.52809   0.27687   0.54105   0.00000  Uiso   1.00
C321   C     0.77687   0.02809   0.45895   0.00000  Uiso   1.00
C322   C     0.72313   0.47191   0.54105   0.00000  Uiso   1.00
C323   C     0.52809   0.27687   0.45895   0.00000  Uiso   1.00
C324   C     0.75000  -0.00000   0.85591   0.00000  Uiso   1.00
C325   C     0.97191   0.22313   0.54105   0.00000  Uiso   1.00
C326   C     0.72313   0.47191   0.45895   0.00000  Uiso   1.00
C327   C     0.77687   0.02809   0.54105   0.00000  Uiso   1.00
C328   C     0.72190   0.47313   0.95895   0.00000  Uiso   1.00
C329   C     0.77809   0.02687   0.04105   0.00000  Uiso   1.00
C330   C     0.52687   0.27809   0.95895   0.00000  Uiso   1.00
C331   C     0.97313   0.22191   0.04105   0.00000  Uiso   1.00
C332   C     0.77809   0.02687   0.95895   0.00000  Uiso   1.00
C333   C     0.72190   0.47313   0.04105   0.00000  Uiso   1.00
C334   C     0.97313   0.22191   0.95895   0.00000  Uiso   1.00
C335   C     0.75000  -0.00000   0.14409   0.00000  Uiso   1.00
C336   C     0.52687   0.27809   0.04105   0.00000  Uiso   1.00
C337   C     0.50000   0.25000   0.47948   0.00000  Uiso   1.00
C338   C     0.50000   0.25000   0.52052   0.00000  Uiso   1.00
C339   C     0.75000  -0.00000   0.47948   0.00000  Uiso   1.00
C340   C     0.75000  -0.00000   0.52052   0.00000  Uiso   1.00
C341   C     0.75000   0.00000   0.97948   0.00000  Uiso   1.00
C342   C     0.75000   0.00000   0.02052   0.00000  Uiso   1.00
C343   C     0.50000   0.25000   0.97948   0.00000  Uiso   1.00
C344   C     0.50000   0.25000   0.02052   0.00000  Uiso   1.00
C345   C     0.93986   0.20171   0.47976   0.00000  Uiso   1.00
C346   C     0.66998   0.08002   0.25000   0.00000  Uiso   1.00
C347   C     0.56014   0.29829   0.52023   0.00000  Uiso   1.00
C348   C     0.79829   0.06014   0.47976   0.00000  Uiso   1.00
C349   C     0.70171   0.43986   0.52023   0.00000  Uiso   1.00
C350   C     0.56014   0.29829   0.47976   0.00000  Uiso   1.00
C351   C     0.93986   0.20171   0.52023   0.00000  Uiso   1.00
C352   C     0.70171   0.43986   0.47976   0.00000  Uiso   1.00
C353   C     0.79829   0.06014   0.52023   0.00000  Uiso   1.00
C354   C     0.68986   0.45172   0.97976   0.00000  Uiso   1.00
C355   C     0.81014   0.04828   0.02024   0.00000  Uiso   1.00
C356   C     0.54829   0.31014   0.97976   0.00000  Uiso   1.00
H357   H     0.90987   0.15346   0.45211   0.00000  Uiso   1.00
H358   H     0.60640   0.29671   0.43821   0.00000  Uiso   1.00
H359   H     0.90987   0.15346   0.54789   0.00000  Uiso   1.00
H360   H     0.89360   0.20329   0.56178   0.00000  Uiso   1.00
H361   H     0.65346   0.40987   0.45211   0.00000  Uiso   1.00
H362   H     0.70329   0.39360   0.43821   0.00000  Uiso   1.00
H363   H     0.84654   0.09013   0.54789   0.00000  Uiso   1.00
H364   H     0.79671   0.10640   0.56178   0.00000  Uiso   1.00
H365   H     0.65986   0.40347   0.95211   0.00000  Uiso   1.00
H366   H     0.64360   0.45330   0.93821   0.00000  Uiso   1.00
H367   H     0.84014   0.09653   0.04789   0.00000  Uiso   1.00
H368   H     0.89360   0.20329   0.43821   0.00000  Uiso   1.00
H369   H     0.85640   0.04670   0.06179   0.00000  Uiso   1.00
H370   H     0.59654   0.34013   0.95211   0.00000  Uiso   1.00
H371   H     0.54671   0.35640   0.93821   0.00000  Uiso   1.00
H372   H     0.90346   0.15987   0.04789   0.00000  Uiso   1.00
H373   H     0.95329   0.14360   0.06179   0.00000  Uiso   1.00
H374   H     0.84014   0.09653   0.95211   0.00000  Uiso   1.00
H375   H     0.85640   0.04670   0.93821   0.00000  Uiso   1.00
H376   H     0.65986   0.40347   0.04789   0.00000  Uiso   1.00
H377   H     0.64360   0.45330   0.06178   0.00000  Uiso   1.00
H378   H     0.90346   0.15987   0.95211   0.00000  Uiso   1.00
H379   H     0.59013   0.34654   0.54789   0.00000  Uiso   1.00
H380   H     0.95329   0.14360   0.93821   0.00000  Uiso   1.00
H381   H     0.59654   0.34013   0.04789   0.00000  Uiso   1.00
H382   H     0.54671   0.35640   0.06178   0.00000  Uiso   1.00
H383   H     0.60640   0.29670   0.56178   0.00000  Uiso   1.00
H384   H     0.84654   0.09013   0.45211   0.00000  Uiso   1.00
H385   H     0.79671   0.10640   0.43821   0.00000  Uiso   1.00
H386   H     0.65346   0.40987   0.54789   0.00000  Uiso   1.00
H387   H     0.70329   0.39360   0.56178   0.00000  Uiso   1.00
H388   H     0.59013   0.34654   0.45211   0.00000  Uiso   1.00
N389   N     0.90342   0.18415   0.46112   0.00000  Uiso   1.00
N390   N     0.84658   0.06585   0.03888   0.00000  Uiso   1.00
N391   N     0.56585   0.34658   0.96112   0.00000  Uiso   1.00
N392   N     0.93414   0.15342   0.03888   0.00000  Uiso   1.00
N393   N     0.84658   0.06585   0.96112   0.00000  Uiso   1.00
N394   N     0.65342   0.43415   0.03888   0.00000  Uiso   1.00
N395   N     0.93414   0.15342   0.96112   0.00000  Uiso   1.00
N396   N     0.56585   0.34658   0.03888   0.00000  Uiso   1.00
N397   N     0.59658   0.31585   0.53888   0.00000  Uiso   1.00
N398   N     0.81586   0.09658   0.46112   0.00000  Uiso   1.00
N399   N     0.68414   0.40342   0.53888   0.00000  Uiso   1.00
N400   N     0.59658   0.31585   0.46112   0.00000  Uiso   1.00
N401   N     0.90342   0.18415   0.53888   0.00000  Uiso   1.00
N402   N     0.68414   0.40342   0.46112   0.00000  Uiso   1.00
N403   N     0.81586   0.09658   0.53888   0.00000  Uiso   1.00
N404   N     0.65342   0.43415   0.96112   0.00000  Uiso   1.00
O405   O     0.75000  -0.00000   0.25000   0.00000  Uiso   1.00
O406   O     0.75000   0.46538   0.66251   0.00000  Uiso   1.00
O407   O     0.96538   0.25000   0.33749   0.00000  Uiso   1.00
O408   O     0.53461   0.25000   0.66251   0.00000  Uiso   1.00
O409   O     0.50000   0.21538   0.83749   0.00000  Uiso   1.00
O410   O     0.50000   0.28461   0.16251   0.00000  Uiso   1.00
O411   O     0.78461  -0.00000   0.83749   0.00000  Uiso   1.00
O412   O     0.71538  -0.00000   0.16251   0.00000  Uiso   1.00
O413   O     0.50000   0.28461   0.83749   0.00000  Uiso   1.00
O414   O     0.50000   0.21538   0.16251   0.00000  Uiso   1.00
O415   O     0.71538  -0.00000   0.83749   0.00000  Uiso   1.00
O416   O     0.75000  -0.00000   0.75000   0.00000  Uiso   1.00
O417   O     0.78461  -0.00000   0.16251   0.00000  Uiso   1.00
O418   O     0.70126   0.08332   0.27298   0.00000  Uiso   1.00
O419   O     0.79873   0.41668   0.72702   0.00000  Uiso   1.00
O420   O     0.91668   0.20126   0.27298   0.00000  Uiso   1.00
O421   O     0.58332   0.29873   0.72702   0.00000  Uiso   1.00
O422   O     0.79873   0.41668   0.27298   0.00000  Uiso   1.00
O423   O     0.70126   0.08332   0.72702   0.00000  Uiso   1.00
O424   O     0.58332   0.29873   0.27298   0.00000  Uiso   1.00
O425   O     0.91668   0.20126   0.72702   0.00000  Uiso   1.00
O426   O     0.70126   0.41668   0.72702   0.00000  Uiso   1.00
O427   O     0.50000   0.25000   0.25000   0.00000  Uiso   1.00
O428   O     0.79873   0.08332   0.27298   0.00000  Uiso   1.00
O429   O     0.91668   0.29873   0.72702   0.00000  Uiso   1.00
O430   O     0.58332   0.20126   0.27298   0.00000  Uiso   1.00
O431   O     0.79873   0.08332   0.72702   0.00000  Uiso   1.00
O432   O     0.70126   0.41668   0.27298   0.00000  Uiso   1.00
O433   O     0.58332   0.20126   0.72702   0.00000  Uiso   1.00
O434   O     0.91668   0.29873   0.27298   0.00000  Uiso   1.00
O435   O     0.95126   0.33332   0.77298   0.00000  Uiso   1.00
O436   O     0.54873   0.16668   0.22702   0.00000  Uiso   1.00
O437   O     0.66668   0.45126   0.77298   0.00000  Uiso   1.00
O438   O     0.50000   0.25000   0.75000   0.00000  Uiso   1.00
O439   O     0.83332   0.04873   0.22702   0.00000  Uiso   1.00
O440   O     0.54873   0.16668   0.77298   0.00000  Uiso   1.00
O441   O     0.95126   0.33332   0.22702   0.00000  Uiso   1.00
O442   O     0.83332   0.04873   0.77298   0.00000  Uiso   1.00
O443   O     0.66668   0.45126   0.22702   0.00000  Uiso   1.00
O444   O     0.95126   0.16668   0.22702   0.00000  Uiso   1.00
O445   O     0.54873   0.33332   0.77298   0.00000  Uiso   1.00
O446   O     0.66668   0.04873   0.22702   0.00000  Uiso   1.00
O447   O     0.83332   0.45126   0.77298   0.00000  Uiso   1.00
O448   O     0.54873   0.33332   0.22702   0.00000  Uiso   1.00
O449   O     0.75000   0.46538   0.33749   0.00000  Uiso   1.00
O450   O     0.95126   0.16668   0.77298   0.00000  Uiso   1.00
O451   O     0.83332   0.45126   0.22702   0.00000  Uiso   1.00
O452   O     0.66668   0.04873   0.77298   0.00000  Uiso   1.00
O453   O     0.75000   0.03461   0.66251   0.00000  Uiso   1.00
O454   O     0.53461   0.25000   0.33749   0.00000  Uiso   1.00
O455   O     0.96538   0.25000   0.66251   0.00000  Uiso   1.00
O456   O     0.75000   0.03461   0.33749   0.00000  Uiso   1.00
Zn457  Zn    0.70052  -0.00000   0.21730   0.00000  Uiso   1.00
Zn458  Zn    0.54947   0.25000   0.28270   0.00000  Uiso   1.00
Zn459  Zn    0.75000   0.45052   0.71730   0.00000  Uiso   1.00
Zn460  Zn    0.75000   0.04947   0.28270   0.00000  Uiso   1.00
Zn461  Zn    0.54947   0.25000   0.71730   0.00000  Uiso   1.00
Zn462  Zn    0.95052   0.25000   0.28270   0.00000  Uiso   1.00
Zn463  Zn    0.75000   0.04947   0.71730   0.00000  Uiso   1.00
Zn464  Zn    0.75000   0.45052   0.28270   0.00000  Uiso   1.00
Zn465  Zn    0.79947  -0.00000   0.78270   0.00000  Uiso   1.00
Zn466  Zn    0.50000   0.20052   0.21730   0.00000  Uiso   1.00
Zn467  Zn    0.50000   0.29947   0.78270   0.00000  Uiso   1.00
Zn468  Zn    0.79947  -0.00000   0.21730   0.00000  Uiso   1.00
Zn469  Zn    0.70052  -0.00000   0.78270   0.00000  Uiso   1.00
Zn470  Zn    0.50000   0.29947   0.21730   0.00000  Uiso   1.00
Zn471  Zn    0.50000   0.20052   0.78270   0.00000  Uiso   1.00
Zn472  Zn    0.95052   0.25000   0.71730   0.00000  Uiso   1.00
Br473  Br    0.04295   0.82906   0.38947   0.00000  Uiso   1.00
Br474  Br    0.20705   0.92094   0.11053   0.00000  Uiso   1.00
Br475  Br    0.42094   0.70705   0.88946   0.00000  Uiso   1.00
Br476  Br    0.07906   0.79295   0.11053   0.00000  Uiso   1.00
Br477  Br    0.20705   0.92094   0.88947   0.00000  Uiso   1.00
Br478  Br    0.29295   0.57906   0.11053   0.00000  Uiso   1.00
Br479  Br    0.07906   0.79295   0.88946   0.00000  Uiso   1.00
Br480  Br    0.42094   0.70705   0.11053   0.00000  Uiso   1.00
Br481  Br    0.45705   0.67094   0.61053   0.00000  Uiso   1.00
Br482  Br    0.17094   0.95705   0.38946   0.00000  Uiso   1.00
Br483  Br    0.32906   0.54295   0.61053   0.00000  Uiso   1.00
Br484  Br    0.45705   0.67094   0.38947   0.00000  Uiso   1.00
Br485  Br    0.04295   0.82906   0.61053   0.00000  Uiso   1.00
Br486  Br    0.32906   0.54295   0.38946   0.00000  Uiso   1.00
Br487  Br    0.17094   0.95705   0.61053   0.00000  Uiso   1.00
Br488  Br    0.29295   0.57906   0.88947   0.00000  Uiso   1.00
C489   C     0.25000   0.50000   0.35591   0.00000  Uiso   1.00
C490   C     0.33002   0.91998   0.75000   0.00000  Uiso   1.00
C491   C     0.45171   0.68986   0.02024   0.00000  Uiso   1.00
C492   C     0.31014   0.54828   0.97976   0.00000  Uiso   1.00
C493   C     0.18986   0.95172   0.02023   0.00000  Uiso   1.00
C494   C     0.45171   0.68986   0.97976   0.00000  Uiso   1.00
C495   C     0.04829   0.81014   0.02023   0.00000  Uiso   1.00
C496   C     0.41999   0.66999   0.25000   0.00000  Uiso   1.00
C497   C     0.08001   0.83001   0.75000   0.00000  Uiso   1.00
C498   C     0.33002   0.91998   0.25000   0.00000  Uiso   1.00
C499   C     0.16998   0.58002   0.75000   0.00000  Uiso   1.00
C500   C     0.08001   0.83001   0.25000   0.00000  Uiso   1.00
C501   C     0.41999   0.66999   0.75000   0.00000  Uiso   1.00
C502   C     0.16999   0.91999   0.75000   0.00000  Uiso   1.00
C503   C     0.33001   0.58001   0.25000   0.00000  Uiso   1.00
C504   C     0.41998   0.83002   0.75000   0.00000  Uiso   1.00
C505   C     0.25000   0.50000   0.64409   0.00000  Uiso   1.00
C506   C     0.08002   0.66998   0.25000   0.00000  Uiso   1.00
C507   C     0.33001   0.58001   0.75000   0.00000  Uiso   1.00
C508   C     0.16999   0.91999   0.25000   0.00000  Uiso   1.00
C509   C     0.08002   0.66998   0.75000   0.00000  Uiso   1.00
C510   C     0.41998   0.83002   0.25000   0.00000  Uiso   1.00
C511   C     0.13834   0.88834   0.25000   0.00000  Uiso   1.00
C512   C     0.36166   0.61166   0.75000   0.00000  Uiso   1.00
C513   C     0.11167   0.63833   0.25000   0.00000  Uiso   1.00
C514   C     0.38833   0.86167   0.75000   0.00000  Uiso   1.00
C515   C     0.36166   0.61166   0.25000   0.00000  Uiso   1.00
C516   C     0.00000   0.75000   0.35591   0.00000  Uiso   1.00
C517   C     0.13834   0.88834   0.75000   0.00000  Uiso   1.00
C518   C     0.38833   0.86167   0.25000   0.00000  Uiso   1.00
C519   C     0.11167   0.63833   0.75000   0.00000  Uiso   1.00
C520   C     0.13833   0.61167   0.75000   0.00000  Uiso   1.00
C521   C     0.36167   0.88833   0.25000   0.00000  Uiso   1.00
C522   C     0.11166   0.86166   0.75000   0.00000  Uiso   1.00
C523   C     0.38834   0.63834   0.25000   0.00000  Uiso   1.00
C524   C     0.36167   0.88833   0.75000   0.00000  Uiso   1.00
C525   C     0.13833   0.61167   0.25000   0.00000  Uiso   1.00
C526   C     0.38834   0.63834   0.75000   0.00000  Uiso   1.00
C527   C     0.00000   0.75000   0.64409   0.00000  Uiso   1.00
C528   C     0.11166   0.86166   0.25000   0.00000  Uiso   1.00
C529   C     0.02375   0.78020   0.41829   0.00000  Uiso   1.00
C530   C     0.47625   0.71980   0.58171   0.00000  Uiso   1.00
C531   C     0.21980   0.97625   0.41829   0.00000  Uiso   1.00
C532   C     0.28020   0.52375   0.58171   0.00000  Uiso   1.00
C533   C     0.47625   0.71980   0.41829   0.00000  Uiso   1.00
C534   C     0.02375   0.78020   0.58171   0.00000  Uiso   1.00
C535   C     0.28020   0.52375   0.41829   0.00000  Uiso   1.00
C536   C     0.21980   0.97625   0.58171   0.00000  Uiso   1.00
C537   C     0.27375   0.53020   0.91829   0.00000  Uiso   1.00
C538   C     0.00000   0.75000   0.85591   0.00000  Uiso   1.00
C539   C     0.22625   0.96980   0.08171   0.00000  Uiso   1.00
C540   C     0.46980   0.72625   0.91829   0.00000  Uiso   1.00
C541   C     0.03020   0.77375   0.08171   0.00000  Uiso   1.00
C542   C     0.22625   0.96980   0.91829   0.00000  Uiso   1.00
C543   C     0.27375   0.53020   0.08171   0.00000  Uiso   1.00
C544   C     0.03020   0.77375   0.91829   0.00000  Uiso   1.00
C545   C     0.46980   0.72625   0.08171   0.00000  Uiso   1.00
C546   C     0.00000   0.75000   0.39826   0.00000  Uiso   1.00
C547   C     0.00000   0.75000   0.60174   0.00000  Uiso   1.00
C548   C     0.25000   0.50000   0.39826   0.00000  Uiso   1.00
C549   C     0.00000   0.75000   0.14409   0.00000  Uiso   1.00
C550   C     0.25000   0.50000   0.60174   0.00000  Uiso   1.00
C551   C     0.25000   0.50000   0.89826   0.00000  Uiso   1.00
C552   C     0.25000   0.50000   0.10174   0.00000  Uiso   1.00
C553   C     0.00000   0.75000   0.89826   0.00000  Uiso   1.00
C554   C     0.00000   0.75000   0.10174   0.00000  Uiso   1.00
C555   C     0.47191   0.72313   0.45895   0.00000  Uiso   1.00
C556   C     0.02809   0.77687   0.54105   0.00000  Uiso   1.00
C557   C     0.27687   0.52809   0.45895   0.00000  Uiso   1.00
C558   C     0.22313   0.97191   0.54105   0.00000  Uiso   1.00
C559   C     0.02809   0.77687   0.45895   0.00000  Uiso   1.00
C560   C     0.25000   0.50000   0.85591   0.00000  Uiso   1.00
C561   C     0.47191   0.72313   0.54105   0.00000  Uiso   1.00
C562   C     0.22313   0.97191   0.45895   0.00000  Uiso   1.00
C563   C     0.27687   0.52809   0.54105   0.00000  Uiso   1.00
C564   C     0.22190   0.97313   0.95895   0.00000  Uiso   1.00
C565   C     0.27809   0.52687   0.04105   0.00000  Uiso   1.00
C566   C     0.02687   0.77809   0.95895   0.00000  Uiso   1.00
C567   C     0.47313   0.72191   0.04105   0.00000  Uiso   1.00
C568   C     0.27809   0.52687   0.95895   0.00000  Uiso   1.00
C569   C     0.22190   0.97313   0.04105   0.00000  Uiso   1.00
C570   C     0.47313   0.72191   0.95895   0.00000  Uiso   1.00
C571   C     0.25000   0.50000   0.14409   0.00000  Uiso   1.00
C572   C     0.02687   0.77809   0.04105   0.00000  Uiso   1.00
C573   C     0.00000   0.75000   0.47948   0.00000  Uiso   1.00
C574   C     0.00000   0.75000   0.52052   0.00000  Uiso   1.00
C575   C     0.25000   0.50000   0.47948   0.00000  Uiso   1.00
C576   C     0.25000   0.50000   0.52052   0.00000  Uiso   1.00
C577   C     0.25000   0.50000   0.97948   0.00000  Uiso   1.00
C578   C     0.25000   0.50000   0.02052   0.00000  Uiso   1.00
C579   C     0.00000   0.75000   0.97948   0.00000  Uiso   1.00
C580   C     0.00000   0.75000   0.02052   0.00000  Uiso   1.00
C581   C     0.43986   0.70171   0.47976   0.00000  Uiso   1.00
C582   C     0.16998   0.58002   0.25000   0.00000  Uiso   1.00
C583   C     0.06014   0.79829   0.52023   0.00000  Uiso   1.00
C584   C     0.29829   0.56014   0.47976   0.00000  Uiso   1.00
C585   C     0.20171   0.93986   0.52023   0.00000  Uiso   1.00
C586   C     0.06014   0.79829   0.47976   0.00000  Uiso   1.00
C587   C     0.43986   0.70171   0.52023   0.00000  Uiso   1.00
C588   C     0.20171   0.93986   0.47976   0.00000  Uiso   1.00
C589   C     0.29829   0.56014   0.52023   0.00000  Uiso   1.00
C590   C     0.18986   0.95172   0.97976   0.00000  Uiso   1.00
C591   C     0.31014   0.54828   0.02024   0.00000  Uiso   1.00
C592   C     0.04829   0.81014   0.97976   0.00000  Uiso   1.00
H593   H     0.40987   0.65346   0.45211   0.00000  Uiso   1.00
H594   H     0.10640   0.79671   0.43821   0.00000  Uiso   1.00
H595   H     0.40987   0.65346   0.54789   0.00000  Uiso   1.00
H596   H     0.39360   0.70329   0.56178   0.00000  Uiso   1.00
H597   H     0.15346   0.90987   0.45211   0.00000  Uiso   1.00
H598   H     0.20329   0.89360   0.43821   0.00000  Uiso   1.00
H599   H     0.34654   0.59013   0.54789   0.00000  Uiso   1.00
H600   H     0.29671   0.60640   0.56178   0.00000  Uiso   1.00
H601   H     0.15986   0.90347   0.95211   0.00000  Uiso   1.00
H602   H     0.14360   0.95330   0.93821   0.00000  Uiso   1.00
H603   H     0.34014   0.59653   0.04789   0.00000  Uiso   1.00
H604   H     0.39360   0.70329   0.43821   0.00000  Uiso   1.00
H605   H     0.35640   0.54670   0.06179   0.00000  Uiso   1.00
H606   H     0.09654   0.84013   0.95211   0.00000  Uiso   1.00
H607   H     0.04671   0.85640   0.93821   0.00000  Uiso   1.00
H608   H     0.40346   0.65987   0.04789   0.00000  Uiso   1.00
H609   H     0.45329   0.64360   0.06179   0.00000  Uiso   1.00
H610   H     0.34014   0.59653   0.95211   0.00000  Uiso   1.00
H611   H     0.35640   0.54670   0.93821   0.00000  Uiso   1.00
H612   H     0.15986   0.90347   0.04789   0.00000  Uiso   1.00
H613   H     0.14360   0.95330   0.06178   0.00000  Uiso   1.00
H614   H     0.40346   0.65987   0.95211   0.00000  Uiso   1.00
H615   H     0.09013   0.84654   0.54789   0.00000  Uiso   1.00
H616   H     0.45329   0.64360   0.93821   0.00000  Uiso   1.00
H617   H     0.09654   0.84013   0.04789   0.00000  Uiso   1.00
H618   H     0.04671   0.85640   0.06178   0.00000  Uiso   1.00
H619   H     0.10640   0.79670   0.56178   0.00000  Uiso   1.00
H620   H     0.34654   0.59013   0.45211   0.00000  Uiso   1.00
H621   H     0.29671   0.60640   0.43821   0.00000  Uiso   1.00
H622   H     0.15346   0.90987   0.54789   0.00000  Uiso   1.00
H623   H     0.20329   0.89360   0.56178   0.00000  Uiso   1.00
H624   H     0.09013   0.84654   0.45211   0.00000  Uiso   1.00
N625   N     0.40342   0.68415   0.46112   0.00000  Uiso   1.00
N626   N     0.34658   0.56585   0.03888   0.00000  Uiso   1.00
N627   N     0.06585   0.84658   0.96112   0.00000  Uiso   1.00
N628   N     0.43414   0.65342   0.03888   0.00000  Uiso   1.00
N629   N     0.34658   0.56585   0.96112   0.00000  Uiso   1.00
N630   N     0.15342   0.93415   0.03888   0.00000  Uiso   1.00
N631   N     0.43414   0.65342   0.96112   0.00000  Uiso   1.00
N632   N     0.06585   0.84658   0.03888   0.00000  Uiso   1.00
N633   N     0.09658   0.81585   0.53888   0.00000  Uiso   1.00
N634   N     0.31586   0.59658   0.46112   0.00000  Uiso   1.00
N635   N     0.18414   0.90342   0.53888   0.00000  Uiso   1.00
N636   N     0.09658   0.81585   0.46112   0.00000  Uiso   1.00
N637   N     0.40342   0.68415   0.53888   0.00000  Uiso   1.00
N638   N     0.18414   0.90342   0.46112   0.00000  Uiso   1.00
N639   N     0.31586   0.59658   0.53888   0.00000  Uiso   1.00
N640   N     0.15342   0.93415   0.96112   0.00000  Uiso   1.00
O641   O     0.25000   0.50000   0.25000   0.00000  Uiso   1.00
O642   O     0.25000   0.96538   0.66251   0.00000  Uiso   1.00
O643   O     0.46538   0.75000   0.33749   0.00000  Uiso   1.00
O644   O     0.03461   0.75000   0.66251   0.00000  Uiso   1.00
O645   O     0.00000   0.71538   0.83749   0.00000  Uiso   1.00
O646   O     0.00000   0.78461   0.16251   0.00000  Uiso   1.00
O647   O     0.28461   0.50000   0.83749   0.00000  Uiso   1.00
O648   O     0.21538   0.50000   0.16251   0.00000  Uiso   1.00
O649   O    -0.00000   0.78461   0.83749   0.00000  Uiso   1.00
O650   O     0.00000   0.71538   0.16251   0.00000  Uiso   1.00
O651   O     0.21538   0.50000   0.83749   0.00000  Uiso   1.00
O652   O     0.25000   0.50000   0.75000   0.00000  Uiso   1.00
O653   O     0.28461   0.50000   0.16251   0.00000  Uiso   1.00
O654   O     0.20126   0.58332   0.27298   0.00000  Uiso   1.00
O655   O     0.29873   0.91668   0.72702   0.00000  Uiso   1.00
O656   O     0.41668   0.70126   0.27298   0.00000  Uiso   1.00
O657   O     0.08332   0.79873   0.72702   0.00000  Uiso   1.00
O658   O     0.29873   0.91668   0.27298   0.00000  Uiso   1.00
O659   O     0.20126   0.58332   0.72702   0.00000  Uiso   1.00
O660   O     0.08332   0.79873   0.27298   0.00000  Uiso   1.00
O661   O     0.41668   0.70126   0.72702   0.00000  Uiso   1.00
O662   O     0.20126   0.91668   0.72702   0.00000  Uiso   1.00
O663   O     0.00000   0.75000   0.25000   0.00000  Uiso   1.00
O664   O     0.29873   0.58332   0.27298   0.00000  Uiso   1.00
O665   O     0.41668   0.79873   0.72702   0.00000  Uiso   1.00
O666   O     0.08332   0.70126   0.27298   0.00000  Uiso   1.00
O667   O     0.29873   0.58332   0.72702   0.00000  Uiso   1.00
O668   O     0.20126   0.91668   0.27298   0.00000  Uiso   1.00
O669   O     0.08332   0.70126   0.72702   0.00000  Uiso   1.00
O670   O     0.41668   0.79873   0.27298   0.00000  Uiso   1.00
O671   O     0.45126   0.83332   0.77298   0.00000  Uiso   1.00
O672   O     0.04873   0.66668   0.22702   0.00000  Uiso   1.00
O673   O     0.16668   0.95126   0.77298   0.00000  Uiso   1.00
O674   O     0.00000   0.75000   0.75000   0.00000  Uiso   1.00
O675   O     0.33332   0.54873   0.22702   0.00000  Uiso   1.00
O676   O     0.04873   0.66668   0.77298   0.00000  Uiso   1.00
O677   O     0.45126   0.83332   0.22702   0.00000  Uiso   1.00
O678   O     0.33332   0.54873   0.77298   0.00000  Uiso   1.00
O679   O     0.16668   0.95126   0.22702   0.00000  Uiso   1.00
O680   O     0.45126   0.66668   0.22702   0.00000  Uiso   1.00
O681   O     0.04873   0.83332   0.77298   0.00000  Uiso   1.00
O682   O     0.16668   0.54873   0.22702   0.00000  Uiso   1.00
O683   O     0.33332   0.95126   0.77298   0.00000  Uiso   1.00
O684   O     0.04873   0.83332   0.22702   0.00000  Uiso   1.00
O685   O     0.25000   0.96538   0.33749   0.00000  Uiso   1.00
O686   O     0.45126   0.66668   0.77298   0.00000  Uiso   1.00
O687   O     0.33332   0.95126   0.22702   0.00000  Uiso   1.00
O688   O     0.16668   0.54873   0.77298   0.00000  Uiso   1.00
O689   O     0.25000   0.53461   0.66251   0.00000  Uiso   1.00
O690   O     0.03461   0.75000   0.33749   0.00000  Uiso   1.00
O691   O     0.46538   0.75000   0.66251   0.00000  Uiso   1.00
O692   O     0.25000   0.53461   0.33749   0.00000  Uiso   1.00
Zn693  Zn    0.20052   0.50000   0.21730   0.00000  Uiso   1.00
Zn694  Zn    0.04947   0.75000   0.28270   0.00000  Uiso   1.00
Zn695  Zn    0.25000   0.95052   0.71730   0.00000  Uiso   1.00
Zn696  Zn    0.25000   0.54947   0.28270   0.00000  Uiso   1.00
Zn697  Zn    0.04947   0.75000   0.71730   0.00000  Uiso   1.00
Zn698  Zn    0.45052   0.75000   0.28270   0.00000  Uiso   1.00
Zn699  Zn    0.25000   0.54947   0.71730   0.00000  Uiso   1.00
Zn700  Zn    0.25000   0.95052   0.28270   0.00000  Uiso   1.00
Zn701  Zn    0.29947   0.50000   0.78270   0.00000  Uiso   1.00
Zn702  Zn    0.00000   0.70052   0.21730   0.00000  Uiso   1.00
Zn703  Zn    0.00000   0.79947   0.78270   0.00000  Uiso   1.00
Zn704  Zn    0.29947   0.50000   0.21730   0.00000  Uiso   1.00
Zn705  Zn    0.20052   0.50000   0.78270   0.00000  Uiso   1.00
Zn706  Zn   -0.00000   0.79947   0.21730   0.00000  Uiso   1.00
Zn707  Zn   -0.00000   0.70052   0.78270   0.00000  Uiso   1.00
Zn708  Zn    0.45052   0.75000   0.71730   0.00000  Uiso   1.00
Br709  Br    0.54295   0.82906   0.38947   0.00000  Uiso   1.00
Br710  Br    0.70705   0.92094   0.11053   0.00000  Uiso   1.00
Br711  Br    0.92094   0.70705   0.88946   0.00000  Uiso   1.00
Br712  Br    0.57906   0.79295   0.11053   0.00000  Uiso   1.00
Br713  Br    0.70705   0.92094   0.88947   0.00000  Uiso   1.00
Br714  Br    0.79295   0.57906   0.11053   0.00000  Uiso   1.00
Br715  Br    0.57906   0.79295   0.88946   0.00000  Uiso   1.00
Br716  Br    0.92094   0.70705   0.11053   0.00000  Uiso   1.00
Br717  Br    0.95705   0.67094   0.61053   0.00000  Uiso   1.00
Br718  Br    0.67094   0.95705   0.38946   0.00000  Uiso   1.00
Br719  Br    0.82906   0.54295   0.61053   0.00000  Uiso   1.00
Br720  Br    0.95705   0.67094   0.38947   0.00000  Uiso   1.00
Br721  Br    0.54295   0.82906   0.61053   0.00000  Uiso   1.00
Br722  Br    0.82906   0.54295   0.38946   0.00000  Uiso   1.00
Br723  Br    0.67094   0.95705   0.61053   0.00000  Uiso   1.00
Br724  Br    0.79295   0.57906   0.88947   0.00000  Uiso   1.00
C725   C     0.75000   0.50000   0.35591   0.00000  Uiso   1.00
C726   C     0.83002   0.91998   0.75000   0.00000  Uiso   1.00
C727   C     0.95171   0.68986   0.02024   0.00000  Uiso   1.00
C728   C     0.81014   0.54828   0.97976   0.00000  Uiso   1.00
C729   C     0.68986   0.95172   0.02023   0.00000  Uiso   1.00
C730   C     0.95171   0.68986   0.97976   0.00000  Uiso   1.00
C731   C     0.54829   0.81014   0.02023   0.00000  Uiso   1.00
C732   C     0.91999   0.66999   0.25000   0.00000  Uiso   1.00
C733   C     0.58001   0.83001   0.75000   0.00000  Uiso   1.00
C734   C     0.83002   0.91998   0.25000   0.00000  Uiso   1.00
C735   C     0.66998   0.58002   0.75000   0.00000  Uiso   1.00
C736   C     0.58001   0.83001   0.25000   0.00000  Uiso   1.00
C737   C     0.91999   0.66999   0.75000   0.00000  Uiso   1.00
C738   C     0.66999   0.91999   0.75000   0.00000  Uiso   1.00
C739   C     0.83001   0.58001   0.25000   0.00000  Uiso   1.00
C740   C     0.91998   0.83002   0.75000   0.00000  Uiso   1.00
C741   C     0.75000   0.50000   0.64409   0.00000  Uiso   1.00
C742   C     0.58002   0.66998   0.25000   0.00000  Uiso   1.00
C743   C     0.83001   0.58001   0.75000   0.00000  Uiso   1.00
C744   C     0.66999   0.91999   0.25000   0.00000  Uiso   1.00
C745   C     0.58002   0.66998   0.75000   0.00000  Uiso   1.00
C746   C     0.91998   0.83002   0.25000   0.00000  Uiso   1.00
C747   C     0.63834   0.88834   0.25000   0.00000  Uiso   1.00
C748   C     0.86166   0.61166   0.75000   0.00000  Uiso   1.00
C749   C     0.61167   0.63833   0.25000   0.00000  Uiso   1.00
C750   C     0.88833   0.86167   0.75000   0.00000  Uiso   1.00
C751   C     0.86166   0.61166   0.25000   0.00000  Uiso   1.00
C752   C     0.50000   0.75000   0.35591   0.00000  Uiso   1.00
C753   C     0.63834   0.88834   0.75000   0.00000  Uiso   1.00
C754   C     0.88833   0.86167   0.25000   0.00000  Uiso   1.00
C755   C     0.61167   0.63833   0.75000   0.00000  Uiso   1.00
C756   C     0.63833   0.61167   0.75000   0.00000  Uiso   1.00
C757   C     0.86167   0.88833   0.25000   0.00000  Uiso   1.00
C758   C     0.61166   0.86166   0.75000   0.00000  Uiso   1.00
C759   C     0.88834   0.63834   0.25000   0.00000  Uiso   1.00
C760   C     0.86167   0.88833   0.75000   0.00000  Uiso   1.00
C761   C     0.63833   0.61167   0.25000   0.00000  Uiso   1.00
C762   C     0.88834   0.63834   0.75000   0.00000  Uiso   1.00
C763   C     0.50000   0.75000   0.64409   0.00000  Uiso   1.00
C764   C     0.61166   0.86166   0.25000   0.00000  Uiso   1.00
C765   C     0.52375   0.78020   0.41829   0.00000  Uiso   1.00
C766   C     0.97625   0.71980   0.58171   0.00000  Uiso   1.00
C767   C     0.71980   0.97625   0.41829   0.00000  Uiso   1.00
C768   C     0.78020   0.52375   0.58171   0.00000  Uiso   1.00
C769   C     0.97625   0.71980   0.41829   0.00000  Uiso   1.00
C770   C     0.52375   0.78020   0.58171   0.00000  Uiso   1.00
C771   C     0.78020   0.52375   0.41829   0.00000  Uiso   1.00
C772   C     0.71980   0.97625   0.58171   0.00000  Uiso   1.00
C773   C     0.77375   0.53020   0.91829   0.00000  Uiso   1.00
C774   C     0.50000   0.75000   0.85591   0.00000  Uiso   1.00
C775   C     0.72625   0.96980   0.08171   0.00000  Uiso   1.00
C776   C     0.96980   0.72625   0.91829   0.00000  Uiso   1.00
C777   C     0.53020   0.77375   0.08171   0.00000  Uiso   1.00
C778   C     0.72625   0.96980   0.91829   0.00000  Uiso   1.00
C779   C     0.77375   0.53020   0.08171   0.00000  Uiso   1.00
C780   C     0.53020   0.77375   0.91829   0.00000  Uiso   1.00
C781   C     0.96980   0.72625   0.08171   0.00000  Uiso   1.00
C782   C     0.50000   0.75000   0.39826   0.00000  Uiso   1.00
C783   C     0.50000   0.75000   0.60174   0.00000  Uiso   1.00
C784   C     0.75000   0.50000   0.39826   0.00000  Uiso   1.00
C785   C     0.50000   0.75000   0.14409   0.00000  Uiso   1.00
C786   C     0.75000   0.50000   0.60174   0.00000  Uiso   1.00
C787   C     0.75000   0.50000   0.89826   0.00000  Uiso   1.00
C788   C     0.75000   0.50000   0.10174   0.00000  Uiso   1.00
C789   C     0.50000   0.75000   0.89826   0.00000  Uiso   1.00
C790   C     0.50000   0.75000   0.10174   0.00000  Uiso   1.00
C791   C     0.97191   0.72313   0.45895   0.00000  Uiso   1.00
C792   C     0.52809   0.77687   0.54105   0.00000  Uiso   1.00
C793   C     0.77687   0.52809   0.45895   0.00000  Uiso   1.00
C794   C     0.72313   0.97191   0.54105   0.00000  Uiso   1.00
C795   C     0.52809   0.77687   0.45895   0.00000  Uiso   1.00
C796   C     0.75000   0.50000   0.85591   0.00000  Uiso   1.00
C797   C     0.97191   0.72313   0.54105   0.00000  Uiso   1.00
C798   C     0.72313   0.97191   0.45895   0.00000  Uiso   1.00
C799   C     0.77687   0.52809   0.54105   0.00000  Uiso   1.00
C800   C     0.72190   0.97313   0.95895   0.00000  Uiso   1.00
C801   C     0.77809   0.52687   0.04105   0.00000  Uiso   1.00
C802   C     0.52687   0.77809   0.95895   0.00000  Uiso   1.00
C803   C     0.97313   0.72191   0.04105   0.00000  Uiso   1.00
C804   C     0.77809   0.52687   0.95895   0.00000  Uiso   1.00
C805   C     0.72190   0.97313   0.04105   0.00000  Uiso   1.00
C806   C     0.97313   0.72191   0.95895   0.00000  Uiso   1.00
C807   C     0.75000   0.50000   0.14409   0.00000  Uiso   1.00
C808   C     0.52687   0.77809   0.04105   0.00000  Uiso   1.00
C809   C     0.50000   0.75000   0.47948   0.00000  Uiso   1.00
C810   C     0.50000   0.75000   0.52052   0.00000  Uiso   1.00
C811   C     0.75000   0.50000   0.47948   0.00000  Uiso   1.00
C812   C     0.75000   0.50000   0.52052   0.00000  Uiso   1.00
C813   C     0.75000   0.50000   0.97948   0.00000  Uiso   1.00
C814   C     0.75000   0.50000   0.02052   0.00000  Uiso   1.00
C815   C     0.50000   0.75000   0.97948   0.00000  Uiso   1.00
C816   C     0.50000   0.75000   0.02052   0.00000  Uiso   1.00
C817   C     0.93986   0.70171   0.47976   0.00000  Uiso   1.00
C818   C     0.66998   0.58002   0.25000   0.00000  Uiso   1.00
C819   C     0.56014   0.79829   0.52023   0.00000  Uiso   1.00
C820   C     0.79829   0.56014   0.47976   0.00000  Uiso   1.00
C821   C     0.70171   0.93986   0.52023   0.00000  Uiso   1.00
C822   C     0.56014   0.79829   0.47976   0.00000  Uiso   1.00
C823   C     0.93986   0.70171   0.52023   0.00000  Uiso   1.00
C824   C     0.70171   0.93986   0.47976   0.00000  Uiso   1.00
C825   C     0.79829   0.56014   0.52023   0.00000  Uiso   1.00
C826   C     0.68986   0.95172   0.97976   0.00000  Uiso   1.00
C827   C     0.81014   0.54828   0.02024   0.00000  Uiso   1.00
C828   C     0.54829   0.81014   0.97976   0.00000  Uiso   1.00
H829   H     0.90987   0.65346   0.45211   0.00000  Uiso   1.00
H830   H     0.60640   0.79671   0.43821   0.00000  Uiso   1.00
H831   H     0.90987   0.65346   0.54789   0.00000  Uiso   1.00
H832   H     0.89360   0.70329   0.56178   0.00000  Uiso   1.00
H833   H     0.65346   0.90987   0.45211   0.00000  Uiso   1.00
H834   H     0.70329   0.89360   0.43821   0.00000  Uiso   1.00
H835   H     0.84654   0.59013   0.54789   0.00000  Uiso   1.00
H836   H     0.79671   0.60640   0.56178   0.00000  Uiso   1.00
H837   H     0.65986   0.90347   0.95211   0.00000  Uiso   1.00
H838   H     0.64360   0.95330   0.93821   0.00000  Uiso   1.00
H839   H     0.84014   0.59653   0.04789   0.00000  Uiso   1.00
H840   H     0.89360   0.70329   0.43821   0.00000  Uiso   1.00
H841   H     0.85640   0.54670   0.06179   0.00000  Uiso   1.00
H842   H     0.59654   0.84013   0.95211   0.00000  Uiso   1.00
H843   H     0.54671   0.85640   0.93821   0.00000  Uiso   1.00
H844   H     0.90346   0.65987   0.04789   0.00000  Uiso   1.00
H845   H     0.95329   0.64360   0.06179   0.00000  Uiso   1.00
H846   H     0.84014   0.59653   0.95211   0.00000  Uiso   1.00
H847   H     0.85640   0.54670   0.93821   0.00000  Uiso   1.00
H848   H     0.65986   0.90347   0.04789   0.00000  Uiso   1.00
H849   H     0.64360   0.95330   0.06178   0.00000  Uiso   1.00
H850   H     0.90346   0.65987   0.95211   0.00000  Uiso   1.00
H851   H     0.59013   0.84654   0.54789   0.00000  Uiso   1.00
H852   H     0.95329   0.64360   0.93821   0.00000  Uiso   1.00
H853   H     0.59654   0.84013   0.04789   0.00000  Uiso   1.00
H854   H     0.54671   0.85640   0.06178   0.00000  Uiso   1.00
H855   H     0.60640   0.79670   0.56178   0.00000  Uiso   1.00
H856   H     0.84654   0.59013   0.45211   0.00000  Uiso   1.00
H857   H     0.79671   0.60640   0.43821   0.00000  Uiso   1.00
H858   H     0.65346   0.90987   0.54789   0.00000  Uiso   1.00
H859   H     0.70329   0.89360   0.56178   0.00000  Uiso   1.00
H860   H     0.59013   0.84654   0.45211   0.00000  Uiso   1.00
N861   N     0.90342   0.68415   0.46112   0.00000  Uiso   1.00
N862   N     0.84658   0.56585   0.03888   0.00000  Uiso   1.00
N863   N     0.56585   0.84658   0.96112   0.00000  Uiso   1.00
N864   N     0.93414   0.65342   0.03888   0.00000  Uiso   1.00
N865   N     0.84658   0.56585   0.96112   0.00000  Uiso   1.00
N866   N     0.65342   0.93415   0.03888   0.00000  Uiso   1.00
N867   N     0.93414   0.65342   0.96112   0.00000  Uiso   1.00
N868   N     0.56585   0.84658   0.03888   0.00000  Uiso   1.00
N869   N     0.59658   0.81585   0.53888   0.00000  Uiso   1.00
N870   N     0.81586   0.59658   0.46112   0.00000  Uiso   1.00
N871   N     0.68414   0.90342   0.53888   0.00000  Uiso   1.00
N872   N     0.59658   0.81585   0.46112   0.00000  Uiso   1.00
N873   N     0.90342   0.68415   0.53888   0.00000  Uiso   1.00
N874   N     0.68414   0.90342   0.46112   0.00000  Uiso   1.00
N875   N     0.81586   0.59658   0.53888   0.00000  Uiso   1.00
N876   N     0.65342   0.93415   0.96112   0.00000  Uiso   1.00
O877   O     0.75000   0.50000   0.25000   0.00000  Uiso   1.00
O878   O     0.75000   0.96538   0.66251   0.00000  Uiso   1.00
O879   O     0.96538   0.75000   0.33749   0.00000  Uiso   1.00
O880   O     0.53461   0.75000   0.66251   0.00000  Uiso   1.00
O881   O     0.50000   0.71538   0.83749   0.00000  Uiso   1.00
O882   O     0.50000   0.78461   0.16251   0.00000  Uiso   1.00
O883   O     0.78461   0.50000   0.83749   0.00000  Uiso   1.00
O884   O     0.71538   0.50000   0.16251   0.00000  Uiso   1.00
O885   O     0.50000   0.78461   0.83749   0.00000  Uiso   1.00
O886   O     0.50000   0.71538   0.16251   0.00000  Uiso   1.00
O887   O     0.71538   0.50000   0.83749   0.00000  Uiso   1.00
O888   O     0.75000   0.50000   0.75000   0.00000  Uiso   1.00
O889   O     0.78461   0.50000   0.16251   0.00000  Uiso   1.00
O890   O     0.70126   0.58332   0.27298   0.00000  Uiso   1.00
O891   O     0.79873   0.91668   0.72702   0.00000  Uiso   1.00
O892   O     0.91668   0.70126   0.27298   0.00000  Uiso   1.00
O893   O     0.58332   0.79873   0.72702   0.00000  Uiso   1.00
O894   O     0.79873   0.91668   0.27298   0.00000  Uiso   1.00
O895   O     0.70126   0.58332   0.72702   0.00000  Uiso   1.00
O896   O     0.58332   0.79873   0.27298   0.00000  Uiso   1.00
O897   O     0.91668   0.70126   0.72702   0.00000  Uiso   1.00
O898   O     0.70126   0.91668   0.72702   0.00000  Uiso   1.00
O899   O     0.50000   0.75000   0.25000   0.00000  Uiso   1.00
O900   O     0.79873   0.58332   0.27298   0.00000  Uiso   1.00
O901   O     0.91668   0.79873   0.72702   0.00000  Uiso   1.00
O902   O     0.58332   0.70126   0.27298   0.00000  Uiso   1.00
O903   O     0.79873   0.58332   0.72702   0.00000  Uiso   1.00
O904   O     0.70126   0.91668   0.27298   0.00000  Uiso   1.00
O905   O     0.58332   0.70126   0.72702   0.00000  Uiso   1.00
O906   O     0.91668   0.79873   0.27298   0.00000  Uiso   1.00
O907   O     0.95126   0.83332   0.77298   0.00000  Uiso   1.00
O908   O     0.54873   0.66668   0.22702   0.00000  Uiso   1.00
O909   O     0.66668   0.95126   0.77298   0.00000  Uiso   1.00
O910   O     0.50000   0.75000   0.75000   0.00000  Uiso   1.00
O911   O     0.83332   0.54873   0.22702   0.00000  Uiso   1.00
O912   O     0.54873   0.66668   0.77298   0.00000  Uiso   1.00
O913   O     0.95126   0.83332   0.22702   0.00000  Uiso   1.00
O914   O     0.83332   0.54873   0.77298   0.00000  Uiso   1.00
O915   O     0.66668   0.95126   0.22702   0.00000  Uiso   1.00
O916   O     0.95126   0.66668   0.22702   0.00000  Uiso   1.00
O917   O     0.54873   0.83332   0.77298   0.00000  Uiso   1.00
O918   O     0.66668   0.54873   0.22702   0.00000  Uiso   1.00
O919   O     0.83332   0.95126   0.77298   0.00000  Uiso   1.00
O920   O     0.54873   0.83332   0.22702   0.00000  Uiso   1.00
O921   O     0.75000   0.96538   0.33749   0.00000  Uiso   1.00
O922   O     0.95126   0.66668   0.77298   0.00000  Uiso   1.00
O923   O     0.83332   0.95126   0.22702   0.00000  Uiso   1.00
O924   O     0.66668   0.54873   0.77298   0.00000  Uiso   1.00
O925   O     0.75000   0.53461   0.66251   0.00000  Uiso   1.00
O926   O     0.53461   0.75000   0.33749   0.00000  Uiso   1.00
O927   O     0.96538   0.75000   0.66251   0.00000  Uiso   1.00
O928   O     0.75000   0.53461   0.33749   0.00000  Uiso   1.00
Zn929  Zn    0.70052   0.50000   0.21730   0.00000  Uiso   1.00
Zn930  Zn    0.54947   0.75000   0.28270   0.00000  Uiso   1.00
Zn931  Zn    0.75000   0.95052   0.71730   0.00000  Uiso   1.00
Zn932  Zn    0.75000   0.54947   0.28270   0.00000  Uiso   1.00
Zn933  Zn    0.54947   0.75000   0.71730   0.00000  Uiso   1.00
Zn934  Zn    0.95052   0.75000   0.28270   0.00000  Uiso   1.00
Zn935  Zn    0.75000   0.54947   0.71730   0.00000  Uiso   1.00
Zn936  Zn    0.75000   0.95052   0.28270   0.00000  Uiso   1.00
Zn937  Zn    0.79947   0.50000   0.78270   0.00000  Uiso   1.00
Zn938  Zn    0.50000   0.70052   0.21730   0.00000  Uiso   1.00
Zn939  Zn    0.50000   0.79947   0.78270   0.00000  Uiso   1.00
Zn940  Zn    0.79947   0.50000   0.21730   0.00000  Uiso   1.00
Zn941  Zn    0.70052   0.50000   0.78270   0.00000  Uiso   1.00
Zn942  Zn    0.50000   0.79947   0.21730   0.00000  Uiso   1.00
Zn943  Zn    0.50000   0.70052   0.78270   0.00000  Uiso   1.00
Zn944  Zn    0.95052   0.75000   0.71730   0.00000  Uiso   1.00
loop_
_geom_bond_atom_site_label_1
_geom_bond_atom_site_label_2
_geom_bond_distance
_geom_bond_site_symmetry_2
_ccdc_geom_bond_type
Br1    C57     1.941   .     S
Br2    C67     1.941   .     S
Br3    C68     1.941   .     S
Br4    C69     1.941   .     S
Br5    C70     1.941   .     S
Br6    C71     1.941   .     S
Br7    C72     1.941   .     S
Br8    C73     1.941   .     S
Br9    C58     1.941   .     S
Br10   C59     1.941   .     S
Br11   C60     1.941   .     S
Br12   C61     1.941   .     S
Br13   C62     1.941   .     S
Br14   C63     1.941   .     S
Br15   C64     1.941   .     S
Br16   C65     1.941   .     S
C17    C76     1.462   .     S
C17    O220    1.270   .     A
C17    O685    1.270   1_545 S
C18    O211    1.276   .     A
C18    O183    1.276   .     A
C18    C52     1.423   .     S
C19    C95     1.419   .     A
C19    N156    1.437   .     S
C19    C22     1.397   1_554 S
C20    C96     1.419   .     A
C20    N157    1.437   .     S
C20    C119    1.397   1_556 S
C21    N158    1.437   .     S
C21    C97     1.419   .     A
C21    C118    1.397   1_554 S
C22    N159    1.437   .     S
C22    C98     1.419   .     A
C22    C19     1.397   1_556 S
C23    C100    1.419   .     A
C23    N160    1.437   .     S
C23    C120    1.397   1_554 S
C24    O184    1.276   .     A
C24    C51     1.421   .     S
C24    O208    1.276   .     A
C25    C50     1.421   .     S
C25    O209    1.276   .     A
C25    O185    1.276   .     A
C26    C49     1.423   .     S
C26    O215    1.276   .     A
C26    O186    1.276   .     A
C27    C48     1.423   .     S
C27    O187    1.276   .     A
C27    O216    1.276   .     A
C28    C56     1.421   .     S
C28    O188    1.276   .     A
C28    O212    1.276   .     A
C29    O189    1.276   .     A
C29    O214    1.276   .     A
C29    C54     1.421   .     S
C30    C45     1.421   .     S
C30    O201    1.276   .     A
C30    O190    1.276   .     A
C31    C43     1.421   .     S
C31    O203    1.276   .     A
C31    O192    1.276   .     A
C32    O199    1.276   .     A
C32    O193    1.276   .     A
C32    C42     1.423   .     S
C33    C78     1.462   .     S
C33    O642    1.270   1_545 A
C33    O217    1.270   .     S
C34    O194    1.276   .     A
C34    C41     1.423   .     S
C34    O200    1.276   .     A
C35    O195    1.276   .     A
C35    O206    1.276   .     A
C35    C40     1.421   .     S
C36    O207    1.276   .     A
C36    O196    1.276   .     A
C36    C39     1.421   .     S
C37    O197    1.276   .     A
C37    C47     1.423   .     S
C37    O204    1.276   .     A
C38    O205    1.276   .     A
C38    O198    1.276   .     A
C38    C46     1.423   .     S
C39    C56     1.197   .     T
C40    C54     1.197   .     T
C41    C53     1.199   .     T
C42    C52     1.199   .     T
C43    C51     1.197   .     T
C44    O218    1.270   .     A
C44    C74     1.462   .     S
C44    O407    1.270   1_455 S
C45    C50     1.197   .     T
C46    C49     1.199   .     T
C47    C48     1.199   .     T
C53    C110    1.423   .     S
C55    O172    1.270   .     A
C55    C75     1.462   .     S
C55    O455    1.270   1_455 S
C57    C87     1.414   .     A
C57    C74     1.402   .     A
C58    C89     1.414   .     A
C58    C311    1.402   .     S
C59    C90     1.414   .     A
C59    C548    1.402   .     S
C60    C91     1.414   .     A
C60    C78     1.402   .     S
C61    C83     1.414   .     A
C61    C310    1.402   .     S
C62    C75     1.402   .     A
C62    C84     1.414   .     A
C63    C76     1.402   .     A
C63    C85     1.414   .     A
C64    C86     1.414   .     A
C64    C550    1.402   .     A
C65    C79     1.402   .     A
C65    C96     1.414   .     A
C66    O173    1.270   .     A
C66    C81     1.462   .     S
C66    O177    1.270   .     S
C67    C97     1.414   .     A
C67    C552    1.402   .     S
C68    C98     1.414   .     A
C68    C317    1.402   .     S
C69    C82     1.402   .     A
C69    C100    1.414   .     A
C70    C92     1.414   .     A
C70    C551    1.402   .     S
C71    C80     1.402   .     A
C71    C93     1.414   .     A
C72    C81     1.402   .     A
C72    C94     1.414   .     A
C73    C95     1.414   .     A
C73    C318    1.402   .     S
C74    C297    1.402   1_455 S
C75    C294    1.402   1_455 S
C76    C531    1.402   1_545 S
C77    O174    1.270   .     A
C77    O178    1.270   .     A
C77    C82     1.462   .     S
C78    C536    1.402   1_545 A
C79    C88     1.462   .     S
C79    C542    1.402   1_545 S
C80    C539    1.402   1_545 S
C80    C99     1.462   .     S
C81    C304    1.402   1_455 S
C82    C309    1.402   1_455 S
C83    C109    1.419   .     A
C83    C337    1.423   .     S
C84    C102    1.423   .     A
C84    C111    1.419   .     A
C85    C112    1.419   .     A
C85    C103    1.423   .     A
C86    C576    1.423   .     A
C86    C113    1.419   .     A
C87    C114    1.419   .     A
C87    C101    1.423   .     A
C88    O175    1.270   .     A
C88    O179    1.270   .     A
C89    C115    1.419   .     A
C89    C338    1.423   .     S
C90    C116    1.419   .     A
C90    C575    1.423   .     S
C91    C117    1.419   .     A
C91    C104    1.423   .     S
C92    C118    1.419   .     A
C92    C577    1.423   .     S
C93    C106    1.423   .     A
C93    C119    1.419   .     A
C94    C120    1.419   .     A
C94    C107    1.423   .     A
C95    C344    1.423   .     S
C96    C105    1.423   .     A
C97    C578    1.423   .     S
C98    C343    1.423   .     S
C99    O176    1.270   .     S
C99    O181    1.270   .     S
C100   C108    1.423   .     A
C101   C102    1.417   .     A
C101   C319    1.423   1_455 S
C102   C325    1.423   1_455 S
C103   C562    1.423   1_545 S
C103   C104    1.417   .     S
C104   C558    1.423   1_545 A
C105   C564    1.423   1_545 S
C105   C106    1.417   1_556 S
C106   C569    1.423   1_545 S
C106   C105    1.417   1_554 S
C107   C334    1.423   1_455 S
C107   C108    1.417   1_556 S
C108   C331    1.423   1_455 S
C108   C107    1.417   1_554 S
C109   N153    1.437   .     S
C109   C115    1.397   .     A
C110   O210    1.276   .     A
C110   O182    1.276   .     A
C111   N161    1.437   .     S
C111   C114    1.397   .     A
C112   N162    1.437   .     S
C112   C117    1.397   .     A
C113   C116    1.397   .     A
C113   N163    1.437   .     S
C114   N164    1.437   .     S
C115   N165    1.437   .     S
C116   N166    1.437   .     S
C117   N167    1.437   .     S
C118   N168    1.437   .     S
C118   C21     1.397   1_556 S
C119   N154    1.437   .     S
C119   C20     1.397   1_554 S
C120   N155    1.437   .     S
C120   C23     1.397   1_556 S
H121   N153    1.044   .     S
H122   N164    1.045   .     S
H123   N165    1.044   .     S
H124   N165    1.045   .     S
H125   N166    1.044   .     S
H126   N166    1.045   .     S
H127   N167    1.044   .     S
H128   N167    1.045   .     S
H129   N168    1.044   .     S
H130   N168    1.045   .     S
H131   N154    1.044   .     S
H132   N153    1.045   .     S
H133   N154    1.045   .     S
H134   N155    1.044   .     S
H135   N155    1.045   .     S
H136   N156    1.044   .     S
H137   N156    1.045   .     S
H138   N157    1.044   .     S
H139   N157    1.045   .     S
H140   N158    1.044   .     S
H141   N158    1.045   .     S
H142   N159    1.044   .     S
H143   N161    1.044   .     S
H144   N159    1.045   .     S
H145   N160    1.044   .     S
H146   N160    1.045   .     S
H147   N161    1.045   .     S
H148   N162    1.044   .     S
H149   N162    1.045   .     S
H150   N163    1.044   .     S
H151   N163    1.045   .     S
H152   N164    1.044   .     S
O169   Zn224   1.935   .     S
O169   Zn221   1.935   .     S
O169   Zn232   1.935   .     S
O169   Zn700   1.935   1_545 S
O170   C505    1.270   .     A
O170   Zn223   1.949   .     S
O171   Zn226   1.949   .     S
O171   C280    1.270   .     S
O172   Zn225   1.949   .     S
O173   Zn235   1.949   .     S
O174   Zn234   1.949   .     S
O175   Zn229   1.949   .     S
O176   Zn221   1.949   .     S
O177   Zn231   1.949   .     S
O178   Zn230   1.949   .     S
O179   Zn233   1.949   .     S
O180   Zn229   1.935   .     S
O180   Zn233   1.935   .     S
O180   Zn227   1.935   .     S
O180   Zn695   1.935   1_545 S
O181   Zn232   1.949   .     S
O182   Zn224   1.916   .     S
O183   Zn223   1.916   .     S
O184   Zn226   1.913   .     S
O185   Zn225   1.913   .     S
O186   Zn228   1.916   .     S
O187   Zn227   1.916   .     S
O188   Zn222   1.913   .     S
O189   Zn236   1.913   .     S
O190   Zn223   1.913   .     S
O191   Zn222   1.935   .     S
O191   Zn230   1.935   .     S
O191   Zn462   1.935   1_455 S
O191   Zn234   1.935   .     S
O192   Zn224   1.913   .     S
O193   Zn236   1.916   .     S
O194   Zn222   1.916   .     S
O195   Zn227   1.913   .     S
O196   Zn228   1.913   .     S
O197   Zn225   1.916   .     S
O198   Zn226   1.916   .     S
O199   Zn467   1.916   .     S
O200   Zn230   1.916   .     S
O201   Zn705   1.913   .     S
O202   Zn225   1.935   .     S
O202   Zn231   1.935   .     S
O202   Zn235   1.935   .     S
O202   Zn472   1.935   1_455 S
O203   Zn232   1.913   .     S
O204   Zn235   1.916   .     S
O205   Zn470   1.916   .     S
O206   Zn229   1.913   .     S
O207   Zn693   1.913   .     S
O208   Zn466   1.913   .     S
O209   Zn231   1.913   .     S
O210   Zn221   1.916   .     S
O211   Zn701   1.916   .     S
O212   Zn234   1.913   .     S
O213   Zn228   1.949   .     S
O213   C489    1.270   .     S
O214   Zn471   1.913   .     S
O215   Zn704   1.916   .     S
O216   Zn233   1.916   .     S
O217   Zn227   1.949   .     S
O218   Zn222   1.949   .     S
O219   Zn236   1.949   .     S
O219   C291    1.270   .     S
O220   Zn224   1.949   .     S
Zn221  O679    1.913   1_545 S
Zn223  O652    1.935   .     S
Zn226  O427    1.935   .     S
Zn228  O641    1.935   .     S
Zn229  O683    1.916   1_545 S
Zn230  O444    1.913   1_455 S
Zn231  O435    1.916   1_455 S
Zn232  O687    1.916   1_545 S
Zn233  O673    1.913   1_545 S
Zn234  O441    1.916   1_455 S
Zn235  O450    1.913   1_455 S
Zn236  O438    1.935   .     S
Br237  C293    1.941   .     S
Br238  C303    1.941   .     S
Br239  C304    1.941   .     S
Br240  C305    1.941   .     S
Br241  C306    1.941   .     S
Br242  C307    1.941   .     S
Br243  C308    1.941   .     S
Br244  C309    1.941   .     S
Br245  C294    1.941   .     S
Br246  C295    1.941   .     S
Br247  C296    1.941   .     S
Br248  C297    1.941   .     S
Br249  C298    1.941   .     S
Br250  C299    1.941   .     S
Br251  C300    1.941   .     S
Br252  C301    1.941   .     S
C253   C312    1.462   .     S
C253   O456    1.270   .     A
C253   O921    1.270   1_545 S
C254   O447    1.276   .     A
C254   O419    1.276   .     A
C254   C288    1.423   .     S
C255   C331    1.419   .     A
C255   N392    1.437   .     S
C255   C258    1.397   1_554 S
C256   C332    1.419   .     A
C256   N393    1.437   .     S
C256   C355    1.397   1_556 S
C257   N394    1.437   .     S
C257   C333    1.419   .     A
C257   C354    1.397   1_554 S
C258   N395    1.437   .     S
C258   C334    1.419   .     A
C258   C255    1.397   1_556 S
C259   C336    1.419   .     A
C259   N396    1.437   .     S
C259   C356    1.397   1_554 S
C260   O420    1.276   .     A
C260   C287    1.421   .     S
C260   O444    1.276   .     A
C261   C286    1.421   .     S
C261   O445    1.276   .     A
C261   O421    1.276   .     A
C262   C285    1.423   .     S
C262   O451    1.276   .     A
C262   O422    1.276   .     A
C263   C284    1.423   .     S
C263   O423    1.276   .     A
C263   O452    1.276   .     A
C264   C292    1.421   .     S
C264   O424    1.276   .     A
C264   O448    1.276   .     A
C265   O425    1.276   .     A
C265   O450    1.276   .     A
C265   C290    1.421   .     S
C266   C281    1.421   .     S
C266   O437    1.276   .     A
C266   O426    1.276   .     A
C267   C279    1.421   .     S
C267   O439    1.276   .     A
C267   O428    1.276   .     A
C268   O435    1.276   .     A
C268   O429    1.276   .     A
C268   C278    1.423   .     S
C269   C314    1.462   .     S
C269   O878    1.270   1_545 A
C269   O453    1.270   .     S
C270   O430    1.276   .     A
C270   C277    1.423   .     S
C270   O436    1.276   .     A
C271   O431    1.276   .     A
C271   O442    1.276   .     A
C271   C276    1.421   .     S
C272   O443    1.276   .     A
C272   O432    1.276   .     A
C272   C275    1.421   .     S
C273   O433    1.276   .     A
C273   C283    1.423   .     S
C273   O440    1.276   .     A
C274   O441    1.276   .     A
C274   O434    1.276   .     A
C274   C282    1.423   .     S
C275   C292    1.197   .     T
C276   C290    1.197   .     T
C277   C289    1.199   .     T
C278   C288    1.199   .     T
C279   C287    1.197   .     T
C280   O454    1.270   .     A
C280   C310    1.462   .     S
C281   C286    1.197   .     T
C282   C285    1.199   .     T
C283   C284    1.199   .     T
C289   C346    1.423   .     S
C291   O408    1.270   .     A
C291   C311    1.462   .     S
C293   C323    1.414   .     A
C293   C310    1.402   .     A
C294   C325    1.414   .     A
C294   C75     1.402   1_655 S
C295   C326    1.414   .     A
C295   C784    1.402   .     S
C296   C327    1.414   .     A
C296   C314    1.402   .     S
C297   C319    1.414   .     A
C297   C74     1.402   1_655 S
C298   C311    1.402   .     A
C298   C320    1.414   .     A
C299   C312    1.402   .     A
C299   C321    1.414   .     A
C300   C322    1.414   .     A
C300   C786    1.402   .     A
C301   C315    1.402   .     A
C301   C332    1.414   .     A
C302   O409    1.270   .     A
C302   C317    1.462   .     S
C302   O413    1.270   .     S
C303   C333    1.414   .     A
C303   C788    1.402   .     S
C304   C334    1.414   .     A
C304   C81     1.402   1_655 S
C305   C318    1.402   .     A
C305   C336    1.414   .     A
C306   C328    1.414   .     A
C306   C787    1.402   .     S
C307   C316    1.402   .     A
C307   C329    1.414   .     A
C308   C317    1.402   .     A
C308   C330    1.414   .     A
C309   C331    1.414   .     A
C309   C82     1.402   1_655 S
C312   C767    1.402   1_545 S
C313   O410    1.270   .     A
C313   O414    1.270   .     A
C313   C318    1.462   .     S
C314   C772    1.402   1_545 A
C315   C324    1.462   .     S
C315   C778    1.402   1_545 S
C316   C775    1.402   1_545 S
C316   C335    1.462   .     S
C319   C345    1.419   .     A
C319   C101    1.423   1_655 S
C320   C338    1.423   .     A
C320   C347    1.419   .     A
C321   C348    1.419   .     A
C321   C339    1.423   .     A
C322   C812    1.423   .     A
C322   C349    1.419   .     A
C323   C350    1.419   .     A
C323   C337    1.423   .     A
C324   O411    1.270   .     A
C324   O415    1.270   .     A
C325   C351    1.419   .     A
C325   C102    1.423   1_655 S
C326   C352    1.419   .     A
C326   C811    1.423   .     S
C327   C353    1.419   .     A
C327   C340    1.423   .     S
C328   C354    1.419   .     A
C328   C813    1.423   .     S
C329   C342    1.423   .     A
C329   C355    1.419   .     A
C330   C356    1.419   .     A
C330   C343    1.423   .     A
C331   C108    1.423   1_655 S
C332   C341    1.423   .     A
C333   C814    1.423   .     S
C334   C107    1.423   1_655 S
C335   O412    1.270   .     S
C335   O417    1.270   .     S
C336   C344    1.423   .     A
C337   C338    1.417   .     A
C339   C798    1.423   1_545 S
C339   C340    1.417   .     S
C340   C794    1.423   1_545 A
C341   C800    1.423   1_545 S
C341   C342    1.417   1_556 S
C342   C805    1.423   1_545 S
C342   C341    1.417   1_554 S
C343   C344    1.417   1_556 S
C344   C343    1.417   1_554 S
C345   N389    1.437   .     S
C345   C351    1.397   .     A
C346   O446    1.276   .     A
C346   O418    1.276   .     A
C347   N397    1.437   .     S
C347   C350    1.397   .     A
C348   N398    1.437   .     S
C348   C353    1.397   .     A
C349   C352    1.397   .     A
C349   N399    1.437   .     S
C350   N400    1.437   .     S
C351   N401    1.437   .     S
C352   N402    1.437   .     S
C353   N403    1.437   .     S
C354   N404    1.437   .     S
C354   C257    1.397   1_556 S
C355   N390    1.437   .     S
C355   C256    1.397   1_554 S
C356   N391    1.437   .     S
C356   C259    1.397   1_556 S
H357   N389    1.044   .     S
H358   N400    1.045   .     S
H359   N401    1.044   .     S
H360   N401    1.045   .     S
H361   N402    1.044   .     S
H362   N402    1.045   .     S
H363   N403    1.044   .     S
H364   N403    1.045   .     S
H365   N404    1.044   .     S
H366   N404    1.045   .     S
H367   N390    1.044   .     S
H368   N389    1.045   .     S
H369   N390    1.045   .     S
H370   N391    1.044   .     S
H371   N391    1.045   .     S
H372   N392    1.044   .     S
H373   N392    1.045   .     S
H374   N393    1.044   .     S
H375   N393    1.045   .     S
H376   N394    1.044   .     S
H377   N394    1.045   .     S
H378   N395    1.044   .     S
H379   N397    1.044   .     S
H380   N395    1.045   .     S
H381   N396    1.044   .     S
H382   N396    1.045   .     S
H383   N397    1.045   .     S
H384   N398    1.044   .     S
H385   N398    1.045   .     S
H386   N399    1.044   .     S
H387   N399    1.045   .     S
H388   N400    1.044   .     S
O405   Zn460   1.935   .     S
O405   Zn457   1.935   .     S
O405   Zn468   1.935   .     S
O405   Zn936   1.935   1_545 S
O406   C741    1.270   .     A
O406   Zn459   1.949   .     S
O407   Zn462   1.949   .     S
O407   C44     1.270   1_655 S
O408   Zn461   1.949   .     S
O409   Zn471   1.949   .     S
O410   Zn470   1.949   .     S
O411   Zn465   1.949   .     S
O412   Zn457   1.949   .     S
O413   Zn467   1.949   .     S
O414   Zn466   1.949   .     S
O415   Zn469   1.949   .     S
O416   Zn465   1.935   .     S
O416   Zn469   1.935   .     S
O416   Zn463   1.935   .     S
O416   Zn931   1.935   1_545 S
O417   Zn468   1.949   .     S
O418   Zn460   1.916   .     S
O419   Zn459   1.916   .     S
O420   Zn462   1.913   .     S
O421   Zn461   1.913   .     S
O422   Zn464   1.916   .     S
O423   Zn463   1.916   .     S
O424   Zn458   1.913   .     S
O425   Zn472   1.913   .     S
O426   Zn459   1.913   .     S
O427   Zn458   1.935   .     S
O427   Zn466   1.935   .     S
O427   Zn470   1.935   .     S
O428   Zn460   1.913   .     S
O429   Zn472   1.916   .     S
O430   Zn458   1.916   .     S
O431   Zn463   1.913   .     S
O432   Zn464   1.913   .     S
O433   Zn461   1.916   .     S
O434   Zn462   1.916   .     S
O435   Zn231   1.916   1_655 S
O436   Zn466   1.916   .     S
O437   Zn941   1.913   .     S
O438   Zn461   1.935   .     S
O438   Zn467   1.935   .     S
O438   Zn471   1.935   .     S
O439   Zn468   1.913   .     S
O440   Zn471   1.916   .     S
O441   Zn234   1.916   1_655 S
O442   Zn465   1.913   .     S
O443   Zn929   1.913   .     S
O444   Zn230   1.913   1_655 S
O445   Zn467   1.913   .     S
O446   Zn457   1.916   .     S
O447   Zn937   1.916   .     S
O448   Zn470   1.913   .     S
O449   Zn464   1.949   .     S
O449   C725    1.270   .     S
O450   Zn235   1.913   1_655 S
O451   Zn940   1.916   .     S
O452   Zn469   1.916   .     S
O453   Zn463   1.949   .     S
O454   Zn458   1.949   .     S
O455   Zn472   1.949   .     S
O455   C55     1.270   1_655 S
O456   Zn460   1.949   .     S
Zn457  O915    1.913   1_545 S
Zn459  O888    1.935   .     S
Zn462  O191    1.935   1_655 S
Zn464  O877    1.935   .     S
Zn465  O919    1.916   1_545 S
Zn468  O923    1.916   1_545 S
Zn469  O909    1.913   1_545 S
Zn472  O202    1.935   1_655 S
Br473  C529    1.941   .     S
Br474  C539    1.941   .     S
Br475  C540    1.941   .     S
Br476  C541    1.941   .     S
Br477  C542    1.941   .     S
Br478  C543    1.941   .     S
Br479  C544    1.941   .     S
Br480  C545    1.941   .     S
Br481  C530    1.941   .     S
Br482  C531    1.941   .     S
Br483  C532    1.941   .     S
Br484  C533    1.941   .     S
Br485  C534    1.941   .     S
Br486  C535    1.941   .     S
Br487  C536    1.941   .     S
Br488  C537    1.941   .     S
C489   C548    1.462   .     S
C489   O692    1.270   .     A
C490   O683    1.276   .     A
C490   O655    1.276   .     A
C490   C524    1.423   .     S
C491   C567    1.419   .     A
C491   N628    1.437   .     S
C491   C494    1.397   1_554 S
C492   C568    1.419   .     A
C492   N629    1.437   .     S
C492   C591    1.397   1_556 S
C493   N630    1.437   .     S
C493   C569    1.419   .     A
C493   C590    1.397   1_554 S
C494   N631    1.437   .     S
C494   C570    1.419   .     A
C494   C491    1.397   1_556 S
C495   C572    1.419   .     A
C495   N632    1.437   .     S
C495   C592    1.397   1_554 S
C496   O656    1.276   .     A
C496   C523    1.421   .     S
C496   O680    1.276   .     A
C497   C522    1.421   .     S
C497   O681    1.276   .     A
C497   O657    1.276   .     A
C498   C521    1.423   .     S
C498   O687    1.276   .     A
C498   O658    1.276   .     A
C499   C520    1.423   .     S
C499   O659    1.276   .     A
C499   O688    1.276   .     A
C500   C528    1.421   .     S
C500   O660    1.276   .     A
C500   O684    1.276   .     A
C501   O661    1.276   .     A
C501   O686    1.276   .     A
C501   C526    1.421   .     S
C502   C517    1.421   .     S
C502   O673    1.276   .     A
C502   O662    1.276   .     A
C503   C515    1.421   .     S
C503   O675    1.276   .     A
C503   O664    1.276   .     A
C504   O671    1.276   .     A
C504   O665    1.276   .     A
C504   C514    1.423   .     S
C505   C550    1.462   .     S
C505   O689    1.270   .     S
C506   O666    1.276   .     A
C506   C513    1.423   .     S
C506   O672    1.276   .     A
C507   O667    1.276   .     A
C507   O678    1.276   .     A
C507   C512    1.421   .     S
C508   O679    1.276   .     A
C508   O668    1.276   .     A
C508   C511    1.421   .     S
C509   O669    1.276   .     A
C509   C519    1.423   .     S
C509   O676    1.276   .     A
C510   O677    1.276   .     A
C510   O670    1.276   .     A
C510   C518    1.423   .     S
C511   C528    1.197   .     T
C512   C526    1.197   .     T
C513   C525    1.199   .     T
C514   C524    1.199   .     T
C515   C523    1.197   .     T
C516   O690    1.270   .     A
C516   C546    1.462   .     S
C516   O879    1.270   1_455 S
C517   C522    1.197   .     T
C518   C521    1.199   .     T
C519   C520    1.199   .     T
C525   C582    1.423   .     S
C527   O644    1.270   .     A
C527   C547    1.462   .     S
C527   O927    1.270   1_455 S
C529   C559    1.414   .     A
C529   C546    1.402   .     A
C530   C561    1.414   .     A
C530   C783    1.402   .     S
C531   C562    1.414   .     A
C531   C76     1.402   1_565 S
C532   C563    1.414   .     A
C532   C550    1.402   .     S
C533   C555    1.414   .     A
C533   C782    1.402   .     S
C534   C547    1.402   .     A
C534   C556    1.414   .     A
C535   C548    1.402   .     A
C535   C557    1.414   .     A
C536   C558    1.414   .     A
C536   C78     1.402   1_565 A
C537   C551    1.402   .     A
C537   C568    1.414   .     A
C538   O645    1.270   .     A
C538   C553    1.462   .     S
C538   O649    1.270   .     S
C539   C569    1.414   .     A
C539   C80     1.402   1_565 S
C540   C570    1.414   .     A
C540   C789    1.402   .     S
C541   C554    1.402   .     A
C541   C572    1.414   .     A
C542   C564    1.414   .     A
C542   C79     1.402   1_565 S
C543   C552    1.402   .     A
C543   C565    1.414   .     A
C544   C553    1.402   .     A
C544   C566    1.414   .     A
C545   C567    1.414   .     A
C545   C790    1.402   .     S
C546   C769    1.402   1_455 S
C547   C766    1.402   1_455 S
C549   O646    1.270   .     A
C549   O650    1.270   .     A
C549   C554    1.462   .     S
C551   C560    1.462   .     S
C552   C571    1.462   .     S
C553   C776    1.402   1_455 S
C554   C781    1.402   1_455 S
C555   C581    1.419   .     A
C555   C809    1.423   .     S
C556   C574    1.423   .     A
C556   C583    1.419   .     A
C557   C584    1.419   .     A
C557   C575    1.423   .     A
C558   C104    1.423   1_565 A
C558   C585    1.419   .     A
C559   C586    1.419   .     A
C559   C573    1.423   .     A
C560   O647    1.270   .     A
C560   O651    1.270   .     A
C561   C587    1.419   .     A
C561   C810    1.423   .     S
C562   C588    1.419   .     A
C562   C103    1.423   1_565 S
C563   C589    1.419   .     A
C563   C576    1.423   .     S
C564   C590    1.419   .     A
C564   C105    1.423   1_565 S
C565   C578    1.423   .     A
C565   C591    1.419   .     A
C566   C592    1.419   .     A
C566   C579    1.423   .     A
C567   C816    1.423   .     S
C568   C577    1.423   .     A
C569   C106    1.423   1_565 S
C570   C815    1.423   .     S
C571   O648    1.270   .     S
C571   O653    1.270   .     S
C572   C580    1.423   .     A
C573   C574    1.417   .     A
C573   C791    1.423   1_455 S
C574   C797    1.423   1_455 S
C575   C576    1.417   .     S
C577   C578    1.417   1_556 S
C578   C577    1.417   1_554 S
C579   C806    1.423   1_455 S
C579   C580    1.417   1_556 S
C580   C803    1.423   1_455 S
C580   C579    1.417   1_554 S
C581   N625    1.437   .     S
C581   C587    1.397   .     A
C582   O682    1.276   .     A
C582   O654    1.276   .     A
C583   N633    1.437   .     S
C583   C586    1.397   .     A
C584   N634    1.437   .     S
C584   C589    1.397   .     A
C585   C588    1.397   .     A
C585   N635    1.437   .     S
C586   N636    1.437   .     S
C587   N637    1.437   .     S
C588   N638    1.437   .     S
C589   N639    1.437   .     S
C590   N640    1.437   .     S
C590   C493    1.397   1_556 S
C591   N626    1.437   .     S
C591   C492    1.397   1_554 S
C592   N627    1.437   .     S
C592   C495    1.397   1_556 S
H593   N625    1.044   .     S
H594   N636    1.045   .     S
H595   N637    1.044   .     S
H596   N637    1.045   .     S
H597   N638    1.044   .     S
H598   N638    1.045   .     S
H599   N639    1.044   .     S
H600   N639    1.045   .     S
H601   N640    1.044   .     S
H602   N640    1.045   .     S
H603   N626    1.044   .     S
H604   N625    1.045   .     S
H605   N626    1.045   .     S
H606   N627    1.044   .     S
H607   N627    1.045   .     S
H608   N628    1.044   .     S
H609   N628    1.045   .     S
H610   N629    1.044   .     S
H611   N629    1.045   .     S
H612   N630    1.044   .     S
H613   N630    1.045   .     S
H614   N631    1.044   .     S
H615   N633    1.044   .     S
H616   N631    1.045   .     S
H617   N632    1.044   .     S
H618   N632    1.045   .     S
H619   N633    1.045   .     S
H620   N634    1.044   .     S
H621   N634    1.045   .     S
H622   N635    1.044   .     S
H623   N635    1.045   .     S
H624   N636    1.044   .     S
O641   Zn696   1.935   .     S
O641   Zn693   1.935   .     S
O641   Zn704   1.935   .     S
O642   C33     1.270   1_565 A
O642   Zn695   1.949   .     S
O643   Zn698   1.949   .     S
O643   C752    1.270   .     S
O644   Zn697   1.949   .     S
O645   Zn707   1.949   .     S
O646   Zn706   1.949   .     S
O647   Zn701   1.949   .     S
O648   Zn693   1.949   .     S
O649   Zn703   1.949   .     S
O650   Zn702   1.949   .     S
O651   Zn705   1.949   .     S
O652   Zn701   1.935   .     S
O652   Zn705   1.935   .     S
O652   Zn699   1.935   .     S
O653   Zn704   1.949   .     S
O654   Zn696   1.916   .     S
O655   Zn695   1.916   .     S
O656   Zn698   1.913   .     S
O657   Zn697   1.913   .     S
O658   Zn700   1.916   .     S
O659   Zn699   1.916   .     S
O660   Zn694   1.913   .     S
O661   Zn708   1.913   .     S
O662   Zn695   1.913   .     S
O663   Zn694   1.935   .     S
O663   Zn702   1.935   .     S
O663   Zn934   1.935   1_455 S
O663   Zn706   1.935   .     S
O664   Zn696   1.913   .     S
O665   Zn708   1.916   .     S
O666   Zn694   1.916   .     S
O667   Zn699   1.913   .     S
O668   Zn700   1.913   .     S
O669   Zn697   1.916   .     S
O670   Zn698   1.916   .     S
O671   Zn939   1.916   .     S
O672   Zn702   1.916   .     S
O673   Zn233   1.913   1_565 S
O674   Zn697   1.935   .     S
O674   Zn703   1.935   .     S
O674   Zn707   1.935   .     S
O674   Zn944   1.935   1_455 S
O675   Zn704   1.913   .     S
O676   Zn707   1.916   .     S
O677   Zn942   1.916   .     S
O678   Zn701   1.913   .     S
O679   Zn221   1.913   1_565 S
O680   Zn938   1.913   .     S
O681   Zn703   1.913   .     S
O682   Zn693   1.916   .     S
O683   Zn229   1.916   1_565 S
O684   Zn706   1.913   .     S
O685   Zn700   1.949   .     S
O685   C17     1.270   1_565 S
O686   Zn943   1.913   .     S
O687   Zn232   1.916   1_565 S
O688   Zn705   1.916   .     S
O689   Zn699   1.949   .     S
O690   Zn694   1.949   .     S
O691   Zn708   1.949   .     S
O691   C763    1.270   .     S
O692   Zn696   1.949   .     S
Zn695  O180    1.935   1_565 S
Zn698  O899    1.935   .     S
Zn700  O169    1.935   1_565 S
Zn702  O916    1.913   1_455 S
Zn703  O907    1.916   1_455 S
Zn706  O913    1.916   1_455 S
Zn707  O922    1.913   1_455 S
Zn708  O910    1.935   .     S
Br709  C765    1.941   .     S
Br710  C775    1.941   .     S
Br711  C776    1.941   .     S
Br712  C777    1.941   .     S
Br713  C778    1.941   .     S
Br714  C779    1.941   .     S
Br715  C780    1.941   .     S
Br716  C781    1.941   .     S
Br717  C766    1.941   .     S
Br718  C767    1.941   .     S
Br719  C768    1.941   .     S
Br720  C769    1.941   .     S
Br721  C770    1.941   .     S
Br722  C771    1.941   .     S
Br723  C772    1.941   .     S
Br724  C773    1.941   .     S
C725   C784    1.462   .     S
C725   O928    1.270   .     A
C726   O919    1.276   .     A
C726   O891    1.276   .     A
C726   C760    1.423   .     S
C727   C803    1.419   .     A
C727   N864    1.437   .     S
C727   C730    1.397   1_554 S
C728   C804    1.419   .     A
C728   N865    1.437   .     S
C728   C827    1.397   1_556 S
C729   N866    1.437   .     S
C729   C805    1.419   .     A
C729   C826    1.397   1_554 S
C730   N867    1.437   .     S
C730   C806    1.419   .     A
C730   C727    1.397   1_556 S
C731   C808    1.419   .     A
C731   N868    1.437   .     S
C731   C828    1.397   1_554 S
C732   O892    1.276   .     A
C732   C759    1.421   .     S
C732   O916    1.276   .     A
C733   C758    1.421   .     S
C733   O917    1.276   .     A
C733   O893    1.276   .     A
C734   C757    1.423   .     S
C734   O923    1.276   .     A
C734   O894    1.276   .     A
C735   C756    1.423   .     S
C735   O895    1.276   .     A
C735   O924    1.276   .     A
C736   C764    1.421   .     S
C736   O896    1.276   .     A
C736   O920    1.276   .     A
C737   O897    1.276   .     A
C737   O922    1.276   .     A
C737   C762    1.421   .     S
C738   C753    1.421   .     S
C738   O909    1.276   .     A
C738   O898    1.276   .     A
C739   C751    1.421   .     S
C739   O911    1.276   .     A
C739   O900    1.276   .     A
C740   O907    1.276   .     A
C740   O901    1.276   .     A
C740   C750    1.423   .     S
C741   C786    1.462   .     S
C741   O925    1.270   .     S
C742   O902    1.276   .     A
C742   C749    1.423   .     S
C742   O908    1.276   .     A
C743   O903    1.276   .     A
C743   O914    1.276   .     A
C743   C748    1.421   .     S
C744   O915    1.276   .     A
C744   O904    1.276   .     A
C744   C747    1.421   .     S
C745   O905    1.276   .     A
C745   C755    1.423   .     S
C745   O912    1.276   .     A
C746   O913    1.276   .     A
C746   O906    1.276   .     A
C746   C754    1.423   .     S
C747   C764    1.197   .     T
C748   C762    1.197   .     T
C749   C761    1.199   .     T
C750   C760    1.199   .     T
C751   C759    1.197   .     T
C752   O926    1.270   .     A
C752   C782    1.462   .     S
C753   C758    1.197   .     T
C754   C757    1.199   .     T
C755   C756    1.199   .     T
C761   C818    1.423   .     S
C763   O880    1.270   .     A
C763   C783    1.462   .     S
C765   C795    1.414   .     A
C765   C782    1.402   .     A
C766   C797    1.414   .     A
C766   C547    1.402   1_655 S
C767   C798    1.414   .     A
C767   C312    1.402   1_565 S
C768   C799    1.414   .     A
C768   C786    1.402   .     S
C769   C791    1.414   .     A
C769   C546    1.402   1_655 S
C770   C783    1.402   .     A
C770   C792    1.414   .     A
C771   C784    1.402   .     A
C771   C793    1.414   .     A
C772   C794    1.414   .     A
C772   C314    1.402   1_565 A
C773   C787    1.402   .     A
C773   C804    1.414   .     A
C774   O881    1.270   .     A
C774   C789    1.462   .     S
C774   O885    1.270   .     S
C775   C805    1.414   .     A
C775   C316    1.402   1_565 S
C776   C806    1.414   .     A
C776   C553    1.402   1_655 S
C777   C790    1.402   .     A
C777   C808    1.414   .     A
C778   C800    1.414   .     A
C778   C315    1.402   1_565 S
C779   C788    1.402   .     A
C779   C801    1.414   .     A
C780   C789    1.402   .     A
C780   C802    1.414   .     A
C781   C803    1.414   .     A
C781   C554    1.402   1_655 S
C785   O882    1.270   .     A
C785   O886    1.270   .     A
C785   C790    1.462   .     S
C787   C796    1.462   .     S
C788   C807    1.462   .     S
C791   C817    1.419   .     A
C791   C573    1.423   1_655 S
C792   C810    1.423   .     A
C792   C819    1.419   .     A
C793   C820    1.419   .     A
C793   C811    1.423   .     A
C794   C340    1.423   1_565 A
C794   C821    1.419   .     A
C795   C822    1.419   .     A
C795   C809    1.423   .     A
C796   O883    1.270   .     A
C796   O887    1.270   .     A
C797   C823    1.419   .     A
C797   C574    1.423   1_655 S
C798   C824    1.419   .     A
C798   C339    1.423   1_565 S
C799   C825    1.419   .     A
C799   C812    1.423   .     S
C800   C826    1.419   .     A
C800   C341    1.423   1_565 S
C801   C814    1.423   .     A
C801   C827    1.419   .     A
C802   C828    1.419   .     A
C802   C815    1.423   .     A
C803   C580    1.423   1_655 S
C804   C813    1.423   .     A
C805   C342    1.423   1_565 S
C806   C579    1.423   1_655 S
C807   O884    1.270   .     S
C807   O889    1.270   .     S
C808   C816    1.423   .     A
C809   C810    1.417   .     A
C811   C812    1.417   .     S
C813   C814    1.417   1_556 S
C814   C813    1.417   1_554 S
C815   C816    1.417   1_556 S
C816   C815    1.417   1_554 S
C817   N861    1.437   .     S
C817   C823    1.397   .     A
C818   O918    1.276   .     A
C818   O890    1.276   .     A
C819   N869    1.437   .     S
C819   C822    1.397   .     A
C820   N870    1.437   .     S
C820   C825    1.397   .     A
C821   C824    1.397   .     A
C821   N871    1.437   .     S
C822   N872    1.437   .     S
C823   N873    1.437   .     S
C824   N874    1.437   .     S
C825   N875    1.437   .     S
C826   N876    1.437   .     S
C826   C729    1.397   1_556 S
C827   N862    1.437   .     S
C827   C728    1.397   1_554 S
C828   N863    1.437   .     S
C828   C731    1.397   1_556 S
H829   N861    1.044   .     S
H830   N872    1.045   .     S
H831   N873    1.044   .     S
H832   N873    1.045   .     S
H833   N874    1.044   .     S
H834   N874    1.045   .     S
H835   N875    1.044   .     S
H836   N875    1.045   .     S
H837   N876    1.044   .     S
H838   N876    1.045   .     S
H839   N862    1.044   .     S
H840   N861    1.045   .     S
H841   N862    1.045   .     S
H842   N863    1.044   .     S
H843   N863    1.045   .     S
H844   N864    1.044   .     S
H845   N864    1.045   .     S
H846   N865    1.044   .     S
H847   N865    1.045   .     S
H848   N866    1.044   .     S
H849   N866    1.045   .     S
H850   N867    1.044   .     S
H851   N869    1.044   .     S
H852   N867    1.045   .     S
H853   N868    1.044   .     S
H854   N868    1.045   .     S
H855   N869    1.045   .     S
H856   N870    1.044   .     S
H857   N870    1.045   .     S
H858   N871    1.044   .     S
H859   N871    1.045   .     S
H860   N872    1.044   .     S
O877   Zn932   1.935   .     S
O877   Zn929   1.935   .     S
O877   Zn940   1.935   .     S
O878   C269    1.270   1_565 A
O878   Zn931   1.949   .     S
O879   Zn934   1.949   .     S
O879   C516    1.270   1_655 S
O880   Zn933   1.949   .     S
O881   Zn943   1.949   .     S
O882   Zn942   1.949   .     S
O883   Zn937   1.949   .     S
O884   Zn929   1.949   .     S
O885   Zn939   1.949   .     S
O886   Zn938   1.949   .     S
O887   Zn941   1.949   .     S
O888   Zn937   1.935   .     S
O888   Zn941   1.935   .     S
O888   Zn935   1.935   .     S
O889   Zn940   1.949   .     S
O890   Zn932   1.916   .     S
O891   Zn931   1.916   .     S
O892   Zn934   1.913   .     S
O893   Zn933   1.913   .     S
O894   Zn936   1.916   .     S
O895   Zn935   1.916   .     S
O896   Zn930   1.913   .     S
O897   Zn944   1.913   .     S
O898   Zn931   1.913   .     S
O899   Zn930   1.935   .     S
O899   Zn938   1.935   .     S
O899   Zn942   1.935   .     S
O900   Zn932   1.913   .     S
O901   Zn944   1.916   .     S
O902   Zn930   1.916   .     S
O903   Zn935   1.913   .     S
O904   Zn936   1.913   .     S
O905   Zn933   1.916   .     S
O906   Zn934   1.916   .     S
O907   Zn703   1.916   1_655 S
O908   Zn938   1.916   .     S
O909   Zn469   1.913   1_565 S
O910   Zn933   1.935   .     S
O910   Zn939   1.935   .     S
O910   Zn943   1.935   .     S
O911   Zn940   1.913   .     S
O912   Zn943   1.916   .     S
O913   Zn706   1.916   1_655 S
O914   Zn937   1.913   .     S
O915   Zn457   1.913   1_565 S
O916   Zn702   1.913   1_655 S
O917   Zn939   1.913   .     S
O918   Zn929   1.916   .     S
O919   Zn465   1.916   1_565 S
O920   Zn942   1.913   .     S
O921   Zn936   1.949   .     S
O921   C253    1.270   1_565 S
O922   Zn707   1.913   1_655 S
O923   Zn468   1.916   1_565 S
O924   Zn941   1.916   .     S
O925   Zn935   1.949   .     S
O926   Zn930   1.949   .     S
O927   Zn944   1.949   .     S
O927   C527    1.270   1_655 S
O928   Zn932   1.949   .     S
Zn931  O416    1.935   1_565 S
Zn934  O663    1.935   1_655 S
Zn936  O405    1.935   1_565 S
Zn944  O674    1.935   1_655 S
