data_str_m3_o1_o10_pcu_sym.50
_audit_creation_date              2020-01-03
_audit_creation_method            'Materials Studio'
_symmetry_space_group_name_H-M    'P1'
_symmetry_Int_Tables_number       1
_symmetry_cell_setting            triclinic
loop_
_symmetry_equiv_pos_as_xyz
  x,y,z
_cell_length_a                    25.9424
_cell_length_b                    31.8024
_cell_length_c                    29.8029
_cell_angle_alpha                 89.9090
_cell_angle_beta                  97.6840
_cell_angle_gamma                 91.8828
loop_
_atom_site_label
_atom_site_type_symbol
_atom_site_fract_x
_atom_site_fract_y
_atom_site_fract_z
_atom_site_U_iso_or_equiv
_atom_site_adp_type
_atom_site_occupancy
C1     C     0.16729   0.08687   0.16672   0.00000  Uiso   1.00
C2     C     0.12749   0.02132   0.18526   0.00000  Uiso   1.00
C3     C     0.16466   0.29059   0.16625   0.00000  Uiso   1.00
C4     C     0.16730   0.04270   0.16666   0.00000  Uiso   1.00
C5     C     0.19412   0.19727   0.02661   0.00000  Uiso   1.00
C6     C     0.14092   0.13537   0.30631   0.00000  Uiso   1.00
C7     C     0.19236   0.19794   0.31181   0.00000  Uiso   1.00
C8     C     0.13975   0.13593   0.02097   0.00000  Uiso   1.00
C9     C     0.24556   0.04633   0.08322   0.00000  Uiso   1.00
C10    C     0.04195   0.30849   0.21889   0.00000  Uiso   1.00
C11    C     0.19788   0.27179   0.29134   0.00000  Uiso   1.00
C12    C     0.16609   0.24646   0.16658   0.00000  Uiso   1.00
C13    C     0.05613   0.11038   0.04027   0.00000  Uiso   1.00
C14    C     0.06747   0.16670   0.15518   0.00000  Uiso   1.00
C15    C     0.26589   0.16644   0.17819   0.00000  Uiso   1.00
C16    C     0.01365   0.17307   0.15014   0.00000  Uiso   1.00
C17    C     0.31981   0.16009   0.18332   0.00000  Uiso   1.00
C18    C     0.20613   0.02205   0.14787   0.00000  Uiso   1.00
C19    C     0.12500   0.31101   0.18473   0.00000  Uiso   1.00
C20    C     0.20473   0.31212   0.14818   0.00000  Uiso   1.00
H21    H     0.23520   0.29527   0.13500   0.00000  Uiso   1.00
H22    H     0.20822   0.05952   0.06792   0.00000  Uiso   1.00
H23    H     0.07203   0.25970   0.18451   0.00000  Uiso   1.00
H24    H     0.01981   0.32681   0.19146   0.00000  Uiso   1.00
H25    H     0.05766   0.32938   0.24766   0.00000  Uiso   1.00
H26    H     0.01490   0.28487   0.23155   0.00000  Uiso   1.00
H27    H     0.26101   0.23181   0.04198   0.00000  Uiso   1.00
H28    H     0.23205   0.22074   0.08573   0.00000  Uiso   1.00
H29    H     0.07618   0.10030   0.28350   0.00000  Uiso   1.00
H30    H     0.13215   0.07367   0.28985   0.00000  Uiso   1.00
H31    H     0.25907   0.23029   0.29828   0.00000  Uiso   1.00
H32    H     0.09826   0.03917   0.19885   0.00000  Uiso   1.00
H33    H     0.20737   0.28629   0.32538   0.00000  Uiso   1.00
H34    H     0.15496   0.27014   0.28186   0.00000  Uiso   1.00
H35    H     0.21503   0.29237   0.26669   0.00000  Uiso   1.00
H36    H     0.11969   0.07371   0.03364   0.00000  Uiso   1.00
H37    H     0.04399   0.10123   0.07334   0.00000  Uiso   1.00
H38    H     0.03359   0.09019   0.01372   0.00000  Uiso   1.00
H39    H     0.04634   0.14375   0.03331   0.00000  Uiso   1.00
H40    H     0.32908   0.18179   0.08247   0.00000  Uiso   1.00
H41    H     0.01242   0.22649   0.11256   0.00000  Uiso   1.00
H42    H     0.00382   0.15157   0.25113   0.00000  Uiso   1.00
H43    H     0.32167   0.10674   0.22098   0.00000  Uiso   1.00
H44    H     0.28411   0.03519   0.14705   0.00000  Uiso   1.00
H45    H     0.24920   0.01434   0.06924   0.00000  Uiso   1.00
H46    H     0.27782   0.06697   0.07394   0.00000  Uiso   1.00
N47    N     0.16665   0.16666   0.28573   0.00000  Uiso   1.00
N48    N     0.11137   0.10404   0.04166   0.00000  Uiso   1.00
N49    N     0.16668   0.16668   0.04760   0.00000  Uiso   1.00
N50    N     0.32489   0.19776   0.11231   0.00000  Uiso   1.00
N51    N     0.00876   0.13568   0.22139   0.00000  Uiso   1.00
N52    N     0.24830   0.04473   0.13198   0.00000  Uiso   1.00
N53    N     0.08379   0.28718   0.20175   0.00000  Uiso   1.00
N54    N     0.22415   0.22982   0.05241   0.00000  Uiso   1.00
N55    N     0.11534   0.10197   0.27896   0.00000  Uiso   1.00
N56    N     0.21916   0.23028   0.29029   0.00000  Uiso   1.00
O57    O     0.16666   0.10558   0.20487   0.00000  Uiso   1.00
O58    O     0.16667   0.22775   0.12846   0.00000  Uiso   1.00
O59    O     0.16666   0.10559   0.12843   0.00000  Uiso   1.00
O60    O     0.16667   0.22774   0.20490   0.00000  Uiso   1.00
O61    O     0.09058   0.16666   0.19595   0.00000  Uiso   1.00
O62    O     0.24275   0.16667   0.13739   0.00000  Uiso   1.00
O63    O     0.09058   0.16667   0.11950   0.00000  Uiso   1.00
O64    O     0.24275   0.16666   0.21383   0.00000  Uiso   1.00
Zn65   Zn    0.16667   0.16666   0.21771   0.00000  Uiso   1.00
Zn66   Zn    0.16667   0.16667   0.11563   0.00000  Uiso   1.00
C67    C     0.50062   0.08687   0.16672   0.00000  Uiso   1.00
C68    C     0.46083   0.02132   0.18526   0.00000  Uiso   1.00
C69    C     0.49800   0.29059   0.16625   0.00000  Uiso   1.00
C70    C     0.50064   0.04270   0.16666   0.00000  Uiso   1.00
C71    C     0.52746   0.19727   0.02661   0.00000  Uiso   1.00
C72    C     0.47425   0.13537   0.30631   0.00000  Uiso   1.00
C73    C     0.52569   0.19794   0.31181   0.00000  Uiso   1.00
C74    C     0.47309   0.13593   0.02097   0.00000  Uiso   1.00
C75    C     0.57889   0.04633   0.08322   0.00000  Uiso   1.00
C76    C     0.37528   0.30849   0.21889   0.00000  Uiso   1.00
C77    C     0.53122   0.27179   0.29134   0.00000  Uiso   1.00
C78    C     0.49942   0.24646   0.16658   0.00000  Uiso   1.00
C79    C     0.38946   0.11038   0.04027   0.00000  Uiso   1.00
C80    C     0.40081   0.16670   0.15518   0.00000  Uiso   1.00
C81    C     0.59922   0.16644   0.17819   0.00000  Uiso   1.00
C82    C     0.34698   0.17307   0.15014   0.00000  Uiso   1.00
C83    C     0.65314   0.16009   0.18332   0.00000  Uiso   1.00
C84    C     0.53946   0.02205   0.14787   0.00000  Uiso   1.00
C85    C     0.45833   0.31101   0.18473   0.00000  Uiso   1.00
C86    C     0.53806   0.31212   0.14818   0.00000  Uiso   1.00
H87    H     0.56853   0.29527   0.13500   0.00000  Uiso   1.00
H88    H     0.54156   0.05952   0.06792   0.00000  Uiso   1.00
H89    H     0.40537   0.25970   0.18451   0.00000  Uiso   1.00
H90    H     0.35314   0.32681   0.19146   0.00000  Uiso   1.00
H91    H     0.39100   0.32938   0.24766   0.00000  Uiso   1.00
H92    H     0.34824   0.28487   0.23155   0.00000  Uiso   1.00
H93    H     0.59434   0.23181   0.04198   0.00000  Uiso   1.00
H94    H     0.56539   0.22074   0.08573   0.00000  Uiso   1.00
H95    H     0.40952   0.10030   0.28350   0.00000  Uiso   1.00
H96    H     0.46548   0.07367   0.28985   0.00000  Uiso   1.00
H97    H     0.59240   0.23029   0.29828   0.00000  Uiso   1.00
H98    H     0.43160   0.03917   0.19885   0.00000  Uiso   1.00
H99    H     0.54070   0.28629   0.32538   0.00000  Uiso   1.00
H100   H     0.48829   0.27014   0.28186   0.00000  Uiso   1.00
H101   H     0.54836   0.29237   0.26669   0.00000  Uiso   1.00
H102   H     0.45303   0.07371   0.03364   0.00000  Uiso   1.00
H103   H     0.37732   0.10123   0.07334   0.00000  Uiso   1.00
H104   H     0.36693   0.09019   0.01372   0.00000  Uiso   1.00
H105   H     0.37968   0.14375   0.03331   0.00000  Uiso   1.00
H106   H     0.66241   0.18179   0.08247   0.00000  Uiso   1.00
H107   H     0.34576   0.22649   0.11256   0.00000  Uiso   1.00
H108   H     0.33715   0.15157   0.25113   0.00000  Uiso   1.00
H109   H     0.65500   0.10674   0.22098   0.00000  Uiso   1.00
H110   H     0.61744   0.03519   0.14705   0.00000  Uiso   1.00
H111   H     0.58254   0.01434   0.06924   0.00000  Uiso   1.00
H112   H     0.61115   0.06697   0.07394   0.00000  Uiso   1.00
N113   N     0.49999   0.16666   0.28573   0.00000  Uiso   1.00
N114   N     0.44470   0.10404   0.04166   0.00000  Uiso   1.00
N115   N     0.50001   0.16668   0.04760   0.00000  Uiso   1.00
N116   N     0.65822   0.19776   0.11231   0.00000  Uiso   1.00
N117   N     0.34209   0.13568   0.22139   0.00000  Uiso   1.00
N118   N     0.58164   0.04473   0.13198   0.00000  Uiso   1.00
N119   N     0.41712   0.28718   0.20175   0.00000  Uiso   1.00
N120   N     0.55748   0.22982   0.05241   0.00000  Uiso   1.00
N121   N     0.44868   0.10197   0.27896   0.00000  Uiso   1.00
N122   N     0.55250   0.23028   0.29029   0.00000  Uiso   1.00
O123   O     0.50000   0.10558   0.20487   0.00000  Uiso   1.00
O124   O     0.50000   0.22775   0.12846   0.00000  Uiso   1.00
O125   O     0.50000   0.10559   0.12843   0.00000  Uiso   1.00
O126   O     0.50000   0.22774   0.20490   0.00000  Uiso   1.00
O127   O     0.42392   0.16666   0.19595   0.00000  Uiso   1.00
O128   O     0.57608   0.16667   0.13739   0.00000  Uiso   1.00
O129   O     0.42392   0.16667   0.11950   0.00000  Uiso   1.00
O130   O     0.57608   0.16666   0.21383   0.00000  Uiso   1.00
Zn131  Zn    0.50000   0.16666   0.21771   0.00000  Uiso   1.00
Zn132  Zn    0.50000   0.16667   0.11563   0.00000  Uiso   1.00
C133   C     0.83395   0.08687   0.16672   0.00000  Uiso   1.00
C134   C     0.79416   0.02132   0.18526   0.00000  Uiso   1.00
C135   C     0.83133   0.29059   0.16625   0.00000  Uiso   1.00
C136   C     0.83397   0.04270   0.16666   0.00000  Uiso   1.00
C137   C     0.86079   0.19727   0.02661   0.00000  Uiso   1.00
C138   C     0.80759   0.13537   0.30631   0.00000  Uiso   1.00
C139   C     0.85903   0.19794   0.31181   0.00000  Uiso   1.00
C140   C     0.80642   0.13593   0.02097   0.00000  Uiso   1.00
C141   C     0.91222   0.04633   0.08322   0.00000  Uiso   1.00
C142   C     0.70861   0.30849   0.21889   0.00000  Uiso   1.00
C143   C     0.86455   0.27179   0.29134   0.00000  Uiso   1.00
C144   C     0.83276   0.24646   0.16658   0.00000  Uiso   1.00
C145   C     0.72279   0.11038   0.04027   0.00000  Uiso   1.00
C146   C     0.73414   0.16670   0.15518   0.00000  Uiso   1.00
C147   C     0.93256   0.16644   0.17819   0.00000  Uiso   1.00
C148   C     0.68031   0.17307   0.15014   0.00000  Uiso   1.00
C149   C     0.98647   0.16009   0.18332   0.00000  Uiso   1.00
C150   C     0.87279   0.02205   0.14787   0.00000  Uiso   1.00
C151   C     0.79167   0.31101   0.18473   0.00000  Uiso   1.00
C152   C     0.87139   0.31212   0.14818   0.00000  Uiso   1.00
H153   H     0.90187   0.29527   0.13500   0.00000  Uiso   1.00
H154   H     0.87489   0.05952   0.06792   0.00000  Uiso   1.00
H155   H     0.73870   0.25970   0.18451   0.00000  Uiso   1.00
H156   H     0.68647   0.32681   0.19146   0.00000  Uiso   1.00
H157   H     0.72433   0.32938   0.24766   0.00000  Uiso   1.00
H158   H     0.68157   0.28487   0.23155   0.00000  Uiso   1.00
H159   H     0.92768   0.23181   0.04198   0.00000  Uiso   1.00
H160   H     0.89872   0.22074   0.08573   0.00000  Uiso   1.00
H161   H     0.74285   0.10030   0.28350   0.00000  Uiso   1.00
H162   H     0.79881   0.07367   0.28985   0.00000  Uiso   1.00
H163   H     0.92573   0.23029   0.29828   0.00000  Uiso   1.00
H164   H     0.76493   0.03917   0.19885   0.00000  Uiso   1.00
H165   H     0.87403   0.28629   0.32538   0.00000  Uiso   1.00
H166   H     0.82162   0.27014   0.28186   0.00000  Uiso   1.00
H167   H     0.88169   0.29237   0.26669   0.00000  Uiso   1.00
H168   H     0.78636   0.07371   0.03364   0.00000  Uiso   1.00
H169   H     0.71066   0.10123   0.07334   0.00000  Uiso   1.00
H170   H     0.70026   0.09019   0.01372   0.00000  Uiso   1.00
H171   H     0.71301   0.14375   0.03331   0.00000  Uiso   1.00
H172   H     0.99575   0.18179   0.08247   0.00000  Uiso   1.00
H173   H     0.67909   0.22649   0.11256   0.00000  Uiso   1.00
H174   H     0.67048   0.15157   0.25113   0.00000  Uiso   1.00
H175   H     0.98834   0.10674   0.22098   0.00000  Uiso   1.00
H176   H     0.95078   0.03519   0.14705   0.00000  Uiso   1.00
H177   H     0.91587   0.01434   0.06924   0.00000  Uiso   1.00
H178   H     0.94448   0.06697   0.07394   0.00000  Uiso   1.00
N179   N     0.83332   0.16666   0.28573   0.00000  Uiso   1.00
N180   N     0.77804   0.10404   0.04166   0.00000  Uiso   1.00
N181   N     0.83335   0.16668   0.04760   0.00000  Uiso   1.00
N182   N     0.99156   0.19776   0.11231   0.00000  Uiso   1.00
N183   N     0.67543   0.13568   0.22139   0.00000  Uiso   1.00
N184   N     0.91497   0.04473   0.13198   0.00000  Uiso   1.00
N185   N     0.75046   0.28718   0.20175   0.00000  Uiso   1.00
N186   N     0.89081   0.22982   0.05241   0.00000  Uiso   1.00
N187   N     0.78201   0.10197   0.27896   0.00000  Uiso   1.00
N188   N     0.88583   0.23028   0.29029   0.00000  Uiso   1.00
O189   O     0.83333   0.10558   0.20487   0.00000  Uiso   1.00
O190   O     0.83334   0.22775   0.12846   0.00000  Uiso   1.00
O191   O     0.83333   0.10559   0.12843   0.00000  Uiso   1.00
O192   O     0.83334   0.22774   0.20490   0.00000  Uiso   1.00
O193   O     0.75725   0.16666   0.19595   0.00000  Uiso   1.00
O194   O     0.90942   0.16667   0.13739   0.00000  Uiso   1.00
O195   O     0.75725   0.16667   0.11950   0.00000  Uiso   1.00
O196   O     0.90942   0.16666   0.21383   0.00000  Uiso   1.00
Zn197  Zn    0.83333   0.16666   0.21771   0.00000  Uiso   1.00
Zn198  Zn    0.83333   0.16667   0.11563   0.00000  Uiso   1.00
C199   C     0.16729   0.42021   0.16672   0.00000  Uiso   1.00
C200   C     0.12749   0.35465   0.18526   0.00000  Uiso   1.00
C201   C     0.16466   0.62392   0.16625   0.00000  Uiso   1.00
C202   C     0.16730   0.37603   0.16666   0.00000  Uiso   1.00
C203   C     0.19412   0.53060   0.02661   0.00000  Uiso   1.00
C204   C     0.14092   0.46871   0.30631   0.00000  Uiso   1.00
C205   C     0.19236   0.53128   0.31181   0.00000  Uiso   1.00
C206   C     0.13975   0.46926   0.02097   0.00000  Uiso   1.00
C207   C     0.24556   0.37966   0.08322   0.00000  Uiso   1.00
C208   C     0.04195   0.64182   0.21889   0.00000  Uiso   1.00
C209   C     0.19788   0.60512   0.29134   0.00000  Uiso   1.00
C210   C     0.16609   0.57979   0.16658   0.00000  Uiso   1.00
C211   C     0.05613   0.44371   0.04027   0.00000  Uiso   1.00
C212   C     0.06747   0.50003   0.15518   0.00000  Uiso   1.00
C213   C     0.26589   0.49978   0.17819   0.00000  Uiso   1.00
C214   C     0.01365   0.50641   0.15014   0.00000  Uiso   1.00
C215   C     0.31981   0.49342   0.18332   0.00000  Uiso   1.00
C216   C     0.20613   0.35538   0.14787   0.00000  Uiso   1.00
C217   C     0.12500   0.64434   0.18473   0.00000  Uiso   1.00
C218   C     0.20473   0.64545   0.14818   0.00000  Uiso   1.00
H219   H     0.23520   0.62860   0.13500   0.00000  Uiso   1.00
H220   H     0.20822   0.39285   0.06792   0.00000  Uiso   1.00
H221   H     0.07203   0.59303   0.18451   0.00000  Uiso   1.00
H222   H     0.01981   0.66015   0.19146   0.00000  Uiso   1.00
H223   H     0.05766   0.66271   0.24766   0.00000  Uiso   1.00
H224   H     0.01490   0.61820   0.23155   0.00000  Uiso   1.00
H225   H     0.26101   0.56514   0.04198   0.00000  Uiso   1.00
H226   H     0.23205   0.55408   0.08573   0.00000  Uiso   1.00
H227   H     0.07618   0.43364   0.28350   0.00000  Uiso   1.00
H228   H     0.13215   0.40701   0.28985   0.00000  Uiso   1.00
H229   H     0.25907   0.56363   0.29828   0.00000  Uiso   1.00
H230   H     0.09826   0.37250   0.19885   0.00000  Uiso   1.00
H231   H     0.20737   0.61963   0.32538   0.00000  Uiso   1.00
H232   H     0.15496   0.60347   0.28186   0.00000  Uiso   1.00
H233   H     0.21503   0.62571   0.26669   0.00000  Uiso   1.00
H234   H     0.11969   0.40704   0.03364   0.00000  Uiso   1.00
H235   H     0.04399   0.43456   0.07334   0.00000  Uiso   1.00
H236   H     0.03359   0.42353   0.01372   0.00000  Uiso   1.00
H237   H     0.04634   0.47709   0.03331   0.00000  Uiso   1.00
H238   H     0.32908   0.51513   0.08247   0.00000  Uiso   1.00
H239   H     0.01242   0.55982   0.11256   0.00000  Uiso   1.00
H240   H     0.00382   0.48490   0.25113   0.00000  Uiso   1.00
H241   H     0.32167   0.44007   0.22098   0.00000  Uiso   1.00
H242   H     0.28411   0.36852   0.14705   0.00000  Uiso   1.00
H243   H     0.24920   0.34767   0.06924   0.00000  Uiso   1.00
H244   H     0.27782   0.40031   0.07394   0.00000  Uiso   1.00
N245   N     0.16665   0.49999   0.28573   0.00000  Uiso   1.00
N246   N     0.11137   0.43737   0.04166   0.00000  Uiso   1.00
N247   N     0.16668   0.50001   0.04760   0.00000  Uiso   1.00
N248   N     0.32489   0.53109   0.11231   0.00000  Uiso   1.00
N249   N     0.00876   0.46901   0.22139   0.00000  Uiso   1.00
N250   N     0.24830   0.37807   0.13198   0.00000  Uiso   1.00
N251   N     0.08379   0.62051   0.20175   0.00000  Uiso   1.00
N252   N     0.22415   0.56315   0.05241   0.00000  Uiso   1.00
N253   N     0.11534   0.43530   0.27896   0.00000  Uiso   1.00
N254   N     0.21916   0.56361   0.29029   0.00000  Uiso   1.00
O255   O     0.16666   0.43892   0.20487   0.00000  Uiso   1.00
O256   O     0.16667   0.56108   0.12846   0.00000  Uiso   1.00
O257   O     0.16666   0.43893   0.12843   0.00000  Uiso   1.00
O258   O     0.16667   0.56107   0.20490   0.00000  Uiso   1.00
O259   O     0.09058   0.50000   0.19595   0.00000  Uiso   1.00
O260   O     0.24275   0.50000   0.13739   0.00000  Uiso   1.00
O261   O     0.09058   0.50000   0.11950   0.00000  Uiso   1.00
O262   O     0.24275   0.50000   0.21383   0.00000  Uiso   1.00
Zn263  Zn    0.16667   0.49999   0.21771   0.00000  Uiso   1.00
Zn264  Zn    0.16667   0.50001   0.11563   0.00000  Uiso   1.00
C265   C     0.50062   0.42021   0.16672   0.00000  Uiso   1.00
C266   C     0.46083   0.35465   0.18526   0.00000  Uiso   1.00
C267   C     0.49800   0.62392   0.16625   0.00000  Uiso   1.00
C268   C     0.50064   0.37603   0.16666   0.00000  Uiso   1.00
C269   C     0.52746   0.53060   0.02661   0.00000  Uiso   1.00
C270   C     0.47425   0.46871   0.30631   0.00000  Uiso   1.00
C271   C     0.52569   0.53128   0.31181   0.00000  Uiso   1.00
C272   C     0.47309   0.46926   0.02097   0.00000  Uiso   1.00
C273   C     0.57889   0.37966   0.08322   0.00000  Uiso   1.00
C274   C     0.37528   0.64182   0.21889   0.00000  Uiso   1.00
C275   C     0.53122   0.60512   0.29134   0.00000  Uiso   1.00
C276   C     0.49942   0.57979   0.16658   0.00000  Uiso   1.00
C277   C     0.38946   0.44371   0.04027   0.00000  Uiso   1.00
C278   C     0.40081   0.50003   0.15518   0.00000  Uiso   1.00
C279   C     0.59922   0.49978   0.17819   0.00000  Uiso   1.00
C280   C     0.34698   0.50641   0.15014   0.00000  Uiso   1.00
C281   C     0.65314   0.49342   0.18332   0.00000  Uiso   1.00
C282   C     0.53946   0.35538   0.14787   0.00000  Uiso   1.00
C283   C     0.45833   0.64434   0.18473   0.00000  Uiso   1.00
C284   C     0.53806   0.64545   0.14818   0.00000  Uiso   1.00
H285   H     0.56853   0.62860   0.13500   0.00000  Uiso   1.00
H286   H     0.54156   0.39285   0.06792   0.00000  Uiso   1.00
H287   H     0.40537   0.59303   0.18451   0.00000  Uiso   1.00
H288   H     0.35314   0.66015   0.19146   0.00000  Uiso   1.00
H289   H     0.39100   0.66271   0.24766   0.00000  Uiso   1.00
H290   H     0.34824   0.61820   0.23155   0.00000  Uiso   1.00
H291   H     0.59434   0.56514   0.04198   0.00000  Uiso   1.00
H292   H     0.56539   0.55408   0.08573   0.00000  Uiso   1.00
H293   H     0.40952   0.43364   0.28350   0.00000  Uiso   1.00
H294   H     0.46548   0.40701   0.28985   0.00000  Uiso   1.00
H295   H     0.59240   0.56363   0.29828   0.00000  Uiso   1.00
H296   H     0.43160   0.37250   0.19885   0.00000  Uiso   1.00
H297   H     0.54070   0.61963   0.32538   0.00000  Uiso   1.00
H298   H     0.48829   0.60347   0.28186   0.00000  Uiso   1.00
H299   H     0.54836   0.62571   0.26669   0.00000  Uiso   1.00
H300   H     0.45303   0.40704   0.03364   0.00000  Uiso   1.00
H301   H     0.37732   0.43456   0.07334   0.00000  Uiso   1.00
H302   H     0.36693   0.42353   0.01372   0.00000  Uiso   1.00
H303   H     0.37968   0.47709   0.03331   0.00000  Uiso   1.00
H304   H     0.66241   0.51513   0.08247   0.00000  Uiso   1.00
H305   H     0.34576   0.55982   0.11256   0.00000  Uiso   1.00
H306   H     0.33715   0.48490   0.25113   0.00000  Uiso   1.00
H307   H     0.65500   0.44007   0.22098   0.00000  Uiso   1.00
H308   H     0.61744   0.36852   0.14705   0.00000  Uiso   1.00
H309   H     0.58254   0.34767   0.06924   0.00000  Uiso   1.00
H310   H     0.61115   0.40031   0.07394   0.00000  Uiso   1.00
N311   N     0.49999   0.49999   0.28573   0.00000  Uiso   1.00
N312   N     0.44470   0.43737   0.04166   0.00000  Uiso   1.00
N313   N     0.50001   0.50001   0.04760   0.00000  Uiso   1.00
N314   N     0.65822   0.53109   0.11231   0.00000  Uiso   1.00
N315   N     0.34209   0.46901   0.22139   0.00000  Uiso   1.00
N316   N     0.58164   0.37807   0.13198   0.00000  Uiso   1.00
N317   N     0.41712   0.62051   0.20175   0.00000  Uiso   1.00
N318   N     0.55748   0.56315   0.05241   0.00000  Uiso   1.00
N319   N     0.44868   0.43530   0.27896   0.00000  Uiso   1.00
N320   N     0.55250   0.56361   0.29029   0.00000  Uiso   1.00
O321   O     0.50000   0.43892   0.20487   0.00000  Uiso   1.00
O322   O     0.50000   0.56108   0.12846   0.00000  Uiso   1.00
O323   O     0.50000   0.43893   0.12843   0.00000  Uiso   1.00
O324   O     0.50000   0.56107   0.20490   0.00000  Uiso   1.00
O325   O     0.42392   0.50000   0.19595   0.00000  Uiso   1.00
O326   O     0.57608   0.50000   0.13739   0.00000  Uiso   1.00
O327   O     0.42392   0.50000   0.11950   0.00000  Uiso   1.00
O328   O     0.57608   0.50000   0.21383   0.00000  Uiso   1.00
Zn329  Zn    0.50000   0.49999   0.21771   0.00000  Uiso   1.00
Zn330  Zn    0.50000   0.50001   0.11563   0.00000  Uiso   1.00
C331   C     0.83395   0.42021   0.16672   0.00000  Uiso   1.00
C332   C     0.79416   0.35465   0.18526   0.00000  Uiso   1.00
C333   C     0.83133   0.62392   0.16625   0.00000  Uiso   1.00
C334   C     0.83397   0.37603   0.16666   0.00000  Uiso   1.00
C335   C     0.86079   0.53060   0.02661   0.00000  Uiso   1.00
C336   C     0.80759   0.46871   0.30631   0.00000  Uiso   1.00
C337   C     0.85903   0.53128   0.31181   0.00000  Uiso   1.00
C338   C     0.80642   0.46926   0.02097   0.00000  Uiso   1.00
C339   C     0.91222   0.37966   0.08322   0.00000  Uiso   1.00
C340   C     0.70861   0.64182   0.21889   0.00000  Uiso   1.00
C341   C     0.86455   0.60512   0.29134   0.00000  Uiso   1.00
C342   C     0.83276   0.57979   0.16658   0.00000  Uiso   1.00
C343   C     0.72279   0.44371   0.04027   0.00000  Uiso   1.00
C344   C     0.73414   0.50003   0.15518   0.00000  Uiso   1.00
C345   C     0.93256   0.49978   0.17819   0.00000  Uiso   1.00
C346   C     0.68031   0.50641   0.15014   0.00000  Uiso   1.00
C347   C     0.98647   0.49342   0.18332   0.00000  Uiso   1.00
C348   C     0.87279   0.35538   0.14787   0.00000  Uiso   1.00
C349   C     0.79167   0.64434   0.18473   0.00000  Uiso   1.00
C350   C     0.87139   0.64545   0.14818   0.00000  Uiso   1.00
H351   H     0.90187   0.62860   0.13500   0.00000  Uiso   1.00
H352   H     0.87489   0.39285   0.06792   0.00000  Uiso   1.00
H353   H     0.73870   0.59303   0.18451   0.00000  Uiso   1.00
H354   H     0.68647   0.66015   0.19146   0.00000  Uiso   1.00
H355   H     0.72433   0.66271   0.24766   0.00000  Uiso   1.00
H356   H     0.68157   0.61820   0.23155   0.00000  Uiso   1.00
H357   H     0.92768   0.56514   0.04198   0.00000  Uiso   1.00
H358   H     0.89872   0.55408   0.08573   0.00000  Uiso   1.00
H359   H     0.74285   0.43364   0.28350   0.00000  Uiso   1.00
H360   H     0.79881   0.40701   0.28985   0.00000  Uiso   1.00
H361   H     0.92573   0.56363   0.29828   0.00000  Uiso   1.00
H362   H     0.76493   0.37250   0.19885   0.00000  Uiso   1.00
H363   H     0.87403   0.61963   0.32538   0.00000  Uiso   1.00
H364   H     0.82162   0.60347   0.28186   0.00000  Uiso   1.00
H365   H     0.88169   0.62571   0.26669   0.00000  Uiso   1.00
H366   H     0.78636   0.40704   0.03364   0.00000  Uiso   1.00
H367   H     0.71066   0.43456   0.07334   0.00000  Uiso   1.00
H368   H     0.70026   0.42353   0.01372   0.00000  Uiso   1.00
H369   H     0.71301   0.47709   0.03331   0.00000  Uiso   1.00
H370   H     0.99575   0.51513   0.08247   0.00000  Uiso   1.00
H371   H     0.67909   0.55982   0.11256   0.00000  Uiso   1.00
H372   H     0.67048   0.48490   0.25113   0.00000  Uiso   1.00
H373   H     0.98834   0.44007   0.22098   0.00000  Uiso   1.00
H374   H     0.95078   0.36852   0.14705   0.00000  Uiso   1.00
H375   H     0.91587   0.34767   0.06924   0.00000  Uiso   1.00
H376   H     0.94448   0.40031   0.07394   0.00000  Uiso   1.00
N377   N     0.83332   0.49999   0.28573   0.00000  Uiso   1.00
N378   N     0.77804   0.43737   0.04166   0.00000  Uiso   1.00
N379   N     0.83335   0.50001   0.04760   0.00000  Uiso   1.00
N380   N     0.99156   0.53109   0.11231   0.00000  Uiso   1.00
N381   N     0.67543   0.46901   0.22139   0.00000  Uiso   1.00
N382   N     0.91497   0.37807   0.13198   0.00000  Uiso   1.00
N383   N     0.75046   0.62051   0.20175   0.00000  Uiso   1.00
N384   N     0.89081   0.56315   0.05241   0.00000  Uiso   1.00
N385   N     0.78201   0.43530   0.27896   0.00000  Uiso   1.00
N386   N     0.88583   0.56361   0.29029   0.00000  Uiso   1.00
O387   O     0.83333   0.43892   0.20487   0.00000  Uiso   1.00
O388   O     0.83334   0.56108   0.12846   0.00000  Uiso   1.00
O389   O     0.83333   0.43893   0.12843   0.00000  Uiso   1.00
O390   O     0.83334   0.56107   0.20490   0.00000  Uiso   1.00
O391   O     0.75725   0.50000   0.19595   0.00000  Uiso   1.00
O392   O     0.90942   0.50000   0.13739   0.00000  Uiso   1.00
O393   O     0.75725   0.50000   0.11950   0.00000  Uiso   1.00
O394   O     0.90942   0.50000   0.21383   0.00000  Uiso   1.00
Zn395  Zn    0.83333   0.49999   0.21771   0.00000  Uiso   1.00
Zn396  Zn    0.83333   0.50001   0.11563   0.00000  Uiso   1.00
C397   C     0.16729   0.75354   0.16672   0.00000  Uiso   1.00
C398   C     0.12749   0.68799   0.18526   0.00000  Uiso   1.00
C399   C     0.16466   0.95725   0.16625   0.00000  Uiso   1.00
C400   C     0.16730   0.70937   0.16666   0.00000  Uiso   1.00
C401   C     0.19412   0.86394   0.02661   0.00000  Uiso   1.00
C402   C     0.14092   0.80204   0.30631   0.00000  Uiso   1.00
C403   C     0.19236   0.86461   0.31181   0.00000  Uiso   1.00
C404   C     0.13975   0.80259   0.02097   0.00000  Uiso   1.00
C405   C     0.24556   0.71300   0.08322   0.00000  Uiso   1.00
C406   C     0.04195   0.97515   0.21889   0.00000  Uiso   1.00
C407   C     0.19788   0.93846   0.29134   0.00000  Uiso   1.00
C408   C     0.16609   0.91312   0.16658   0.00000  Uiso   1.00
C409   C     0.05613   0.77705   0.04027   0.00000  Uiso   1.00
C410   C     0.06747   0.83337   0.15518   0.00000  Uiso   1.00
C411   C     0.26589   0.83311   0.17819   0.00000  Uiso   1.00
C412   C     0.01365   0.83974   0.15014   0.00000  Uiso   1.00
C413   C     0.31981   0.82676   0.18332   0.00000  Uiso   1.00
C414   C     0.20613   0.68872   0.14787   0.00000  Uiso   1.00
C415   C     0.12500   0.97768   0.18473   0.00000  Uiso   1.00
C416   C     0.20473   0.97879   0.14818   0.00000  Uiso   1.00
H417   H     0.23520   0.96193   0.13500   0.00000  Uiso   1.00
H418   H     0.20822   0.72618   0.06792   0.00000  Uiso   1.00
H419   H     0.07203   0.92636   0.18451   0.00000  Uiso   1.00
H420   H     0.01981   0.99348   0.19146   0.00000  Uiso   1.00
H421   H     0.05766   0.99605   0.24766   0.00000  Uiso   1.00
H422   H     0.01490   0.95154   0.23155   0.00000  Uiso   1.00
H423   H     0.26101   0.89847   0.04198   0.00000  Uiso   1.00
H424   H     0.23205   0.88741   0.08573   0.00000  Uiso   1.00
H425   H     0.07618   0.76697   0.28350   0.00000  Uiso   1.00
H426   H     0.13215   0.74034   0.28985   0.00000  Uiso   1.00
H427   H     0.25907   0.89696   0.29828   0.00000  Uiso   1.00
H428   H     0.09826   0.70583   0.19885   0.00000  Uiso   1.00
H429   H     0.20737   0.95296   0.32538   0.00000  Uiso   1.00
H430   H     0.15496   0.93680   0.28186   0.00000  Uiso   1.00
H431   H     0.21503   0.95904   0.26669   0.00000  Uiso   1.00
H432   H     0.11969   0.74038   0.03364   0.00000  Uiso   1.00
H433   H     0.04399   0.76789   0.07334   0.00000  Uiso   1.00
H434   H     0.03359   0.75686   0.01372   0.00000  Uiso   1.00
H435   H     0.04634   0.81042   0.03331   0.00000  Uiso   1.00
H436   H     0.32908   0.84846   0.08247   0.00000  Uiso   1.00
H437   H     0.01242   0.89315   0.11256   0.00000  Uiso   1.00
H438   H     0.00382   0.81824   0.25113   0.00000  Uiso   1.00
H439   H     0.32167   0.77340   0.22098   0.00000  Uiso   1.00
H440   H     0.28411   0.70186   0.14705   0.00000  Uiso   1.00
H441   H     0.24920   0.68101   0.06924   0.00000  Uiso   1.00
H442   H     0.27782   0.73364   0.07394   0.00000  Uiso   1.00
N443   N     0.16665   0.83332   0.28573   0.00000  Uiso   1.00
N444   N     0.11137   0.77071   0.04166   0.00000  Uiso   1.00
N445   N     0.16668   0.83334   0.04760   0.00000  Uiso   1.00
N446   N     0.32489   0.86443   0.11231   0.00000  Uiso   1.00
N447   N     0.00876   0.80235   0.22139   0.00000  Uiso   1.00
N448   N     0.24830   0.71140   0.13198   0.00000  Uiso   1.00
N449   N     0.08379   0.95385   0.20175   0.00000  Uiso   1.00
N450   N     0.22415   0.89649   0.05241   0.00000  Uiso   1.00
N451   N     0.11534   0.76864   0.27896   0.00000  Uiso   1.00
N452   N     0.21916   0.89694   0.29029   0.00000  Uiso   1.00
O453   O     0.16666   0.77225   0.20487   0.00000  Uiso   1.00
O454   O     0.16667   0.89442   0.12846   0.00000  Uiso   1.00
O455   O     0.16666   0.77226   0.12843   0.00000  Uiso   1.00
O456   O     0.16667   0.89441   0.20490   0.00000  Uiso   1.00
O457   O     0.09058   0.83333   0.19595   0.00000  Uiso   1.00
O458   O     0.24275   0.83334   0.13739   0.00000  Uiso   1.00
O459   O     0.09058   0.83334   0.11950   0.00000  Uiso   1.00
O460   O     0.24275   0.83333   0.21383   0.00000  Uiso   1.00
Zn461  Zn    0.16667   0.83333   0.21771   0.00000  Uiso   1.00
Zn462  Zn    0.16667   0.83334   0.11563   0.00000  Uiso   1.00
C463   C     0.50062   0.75354   0.16672   0.00000  Uiso   1.00
C464   C     0.46083   0.68799   0.18526   0.00000  Uiso   1.00
C465   C     0.49800   0.95725   0.16625   0.00000  Uiso   1.00
C466   C     0.50064   0.70937   0.16666   0.00000  Uiso   1.00
C467   C     0.52746   0.86394   0.02661   0.00000  Uiso   1.00
C468   C     0.47425   0.80204   0.30631   0.00000  Uiso   1.00
C469   C     0.52569   0.86461   0.31181   0.00000  Uiso   1.00
C470   C     0.47309   0.80259   0.02097   0.00000  Uiso   1.00
C471   C     0.57889   0.71300   0.08322   0.00000  Uiso   1.00
C472   C     0.37528   0.97515   0.21889   0.00000  Uiso   1.00
C473   C     0.53122   0.93846   0.29134   0.00000  Uiso   1.00
C474   C     0.49942   0.91312   0.16658   0.00000  Uiso   1.00
C475   C     0.38946   0.77705   0.04027   0.00000  Uiso   1.00
C476   C     0.40081   0.83337   0.15518   0.00000  Uiso   1.00
C477   C     0.59922   0.83311   0.17819   0.00000  Uiso   1.00
C478   C     0.34698   0.83974   0.15014   0.00000  Uiso   1.00
C479   C     0.65314   0.82676   0.18332   0.00000  Uiso   1.00
C480   C     0.53946   0.68872   0.14787   0.00000  Uiso   1.00
C481   C     0.45833   0.97768   0.18473   0.00000  Uiso   1.00
C482   C     0.53806   0.97879   0.14818   0.00000  Uiso   1.00
H483   H     0.56853   0.96193   0.13500   0.00000  Uiso   1.00
H484   H     0.54156   0.72618   0.06792   0.00000  Uiso   1.00
H485   H     0.40537   0.92636   0.18451   0.00000  Uiso   1.00
H486   H     0.35314   0.99348   0.19146   0.00000  Uiso   1.00
H487   H     0.39100   0.99605   0.24766   0.00000  Uiso   1.00
H488   H     0.34824   0.95154   0.23155   0.00000  Uiso   1.00
H489   H     0.59434   0.89847   0.04198   0.00000  Uiso   1.00
H490   H     0.56539   0.88741   0.08573   0.00000  Uiso   1.00
H491   H     0.40952   0.76697   0.28350   0.00000  Uiso   1.00
H492   H     0.46548   0.74034   0.28985   0.00000  Uiso   1.00
H493   H     0.59240   0.89696   0.29828   0.00000  Uiso   1.00
H494   H     0.43160   0.70583   0.19885   0.00000  Uiso   1.00
H495   H     0.54070   0.95296   0.32538   0.00000  Uiso   1.00
H496   H     0.48829   0.93680   0.28186   0.00000  Uiso   1.00
H497   H     0.54836   0.95904   0.26669   0.00000  Uiso   1.00
H498   H     0.45303   0.74038   0.03364   0.00000  Uiso   1.00
H499   H     0.37732   0.76789   0.07334   0.00000  Uiso   1.00
H500   H     0.36693   0.75686   0.01372   0.00000  Uiso   1.00
H501   H     0.37968   0.81042   0.03331   0.00000  Uiso   1.00
H502   H     0.66241   0.84846   0.08247   0.00000  Uiso   1.00
H503   H     0.34576   0.89315   0.11256   0.00000  Uiso   1.00
H504   H     0.33715   0.81824   0.25113   0.00000  Uiso   1.00
H505   H     0.65500   0.77340   0.22098   0.00000  Uiso   1.00
H506   H     0.61744   0.70186   0.14705   0.00000  Uiso   1.00
H507   H     0.58254   0.68101   0.06924   0.00000  Uiso   1.00
H508   H     0.61115   0.73364   0.07394   0.00000  Uiso   1.00
N509   N     0.49999   0.83332   0.28573   0.00000  Uiso   1.00
N510   N     0.44470   0.77071   0.04166   0.00000  Uiso   1.00
N511   N     0.50001   0.83334   0.04760   0.00000  Uiso   1.00
N512   N     0.65822   0.86443   0.11231   0.00000  Uiso   1.00
N513   N     0.34209   0.80235   0.22139   0.00000  Uiso   1.00
N514   N     0.58164   0.71140   0.13198   0.00000  Uiso   1.00
N515   N     0.41712   0.95385   0.20175   0.00000  Uiso   1.00
N516   N     0.55748   0.89649   0.05241   0.00000  Uiso   1.00
N517   N     0.44868   0.76864   0.27896   0.00000  Uiso   1.00
N518   N     0.55250   0.89694   0.29029   0.00000  Uiso   1.00
O519   O     0.50000   0.77225   0.20487   0.00000  Uiso   1.00
O520   O     0.50000   0.89442   0.12846   0.00000  Uiso   1.00
O521   O     0.50000   0.77226   0.12843   0.00000  Uiso   1.00
O522   O     0.50000   0.89441   0.20490   0.00000  Uiso   1.00
O523   O     0.42392   0.83333   0.19595   0.00000  Uiso   1.00
O524   O     0.57608   0.83334   0.13739   0.00000  Uiso   1.00
O525   O     0.42392   0.83334   0.11950   0.00000  Uiso   1.00
O526   O     0.57608   0.83333   0.21383   0.00000  Uiso   1.00
Zn527  Zn    0.50000   0.83333   0.21771   0.00000  Uiso   1.00
Zn528  Zn    0.50000   0.83334   0.11563   0.00000  Uiso   1.00
C529   C     0.83395   0.75354   0.16672   0.00000  Uiso   1.00
C530   C     0.79416   0.68799   0.18526   0.00000  Uiso   1.00
C531   C     0.83133   0.95725   0.16625   0.00000  Uiso   1.00
C532   C     0.83397   0.70937   0.16666   0.00000  Uiso   1.00
C533   C     0.86079   0.86394   0.02661   0.00000  Uiso   1.00
C534   C     0.80759   0.80204   0.30631   0.00000  Uiso   1.00
C535   C     0.85903   0.86461   0.31181   0.00000  Uiso   1.00
C536   C     0.80642   0.80259   0.02097   0.00000  Uiso   1.00
C537   C     0.91222   0.71300   0.08322   0.00000  Uiso   1.00
C538   C     0.70861   0.97515   0.21889   0.00000  Uiso   1.00
C539   C     0.86455   0.93846   0.29134   0.00000  Uiso   1.00
C540   C     0.83276   0.91312   0.16658   0.00000  Uiso   1.00
C541   C     0.72279   0.77705   0.04027   0.00000  Uiso   1.00
C542   C     0.73414   0.83337   0.15518   0.00000  Uiso   1.00
C543   C     0.93256   0.83311   0.17819   0.00000  Uiso   1.00
C544   C     0.68031   0.83974   0.15014   0.00000  Uiso   1.00
C545   C     0.98647   0.82676   0.18332   0.00000  Uiso   1.00
C546   C     0.87279   0.68872   0.14787   0.00000  Uiso   1.00
C547   C     0.79167   0.97768   0.18473   0.00000  Uiso   1.00
C548   C     0.87139   0.97879   0.14818   0.00000  Uiso   1.00
H549   H     0.90187   0.96193   0.13500   0.00000  Uiso   1.00
H550   H     0.87489   0.72618   0.06792   0.00000  Uiso   1.00
H551   H     0.73870   0.92636   0.18451   0.00000  Uiso   1.00
H552   H     0.68647   0.99348   0.19146   0.00000  Uiso   1.00
H553   H     0.72433   0.99605   0.24766   0.00000  Uiso   1.00
H554   H     0.68157   0.95154   0.23155   0.00000  Uiso   1.00
H555   H     0.92768   0.89847   0.04198   0.00000  Uiso   1.00
H556   H     0.89872   0.88741   0.08573   0.00000  Uiso   1.00
H557   H     0.74285   0.76697   0.28350   0.00000  Uiso   1.00
H558   H     0.79881   0.74034   0.28985   0.00000  Uiso   1.00
H559   H     0.92573   0.89696   0.29828   0.00000  Uiso   1.00
H560   H     0.76493   0.70583   0.19885   0.00000  Uiso   1.00
H561   H     0.87403   0.95296   0.32538   0.00000  Uiso   1.00
H562   H     0.82162   0.93680   0.28186   0.00000  Uiso   1.00
H563   H     0.88169   0.95904   0.26669   0.00000  Uiso   1.00
H564   H     0.78636   0.74038   0.03364   0.00000  Uiso   1.00
H565   H     0.71066   0.76789   0.07334   0.00000  Uiso   1.00
H566   H     0.70026   0.75686   0.01372   0.00000  Uiso   1.00
H567   H     0.71301   0.81042   0.03331   0.00000  Uiso   1.00
H568   H     0.99575   0.84846   0.08247   0.00000  Uiso   1.00
H569   H     0.67909   0.89315   0.11256   0.00000  Uiso   1.00
H570   H     0.67048   0.81824   0.25113   0.00000  Uiso   1.00
H571   H     0.98834   0.77340   0.22098   0.00000  Uiso   1.00
H572   H     0.95078   0.70186   0.14705   0.00000  Uiso   1.00
H573   H     0.91587   0.68101   0.06924   0.00000  Uiso   1.00
H574   H     0.94448   0.73364   0.07394   0.00000  Uiso   1.00
N575   N     0.83332   0.83332   0.28573   0.00000  Uiso   1.00
N576   N     0.77804   0.77071   0.04166   0.00000  Uiso   1.00
N577   N     0.83335   0.83334   0.04760   0.00000  Uiso   1.00
N578   N     0.99156   0.86443   0.11231   0.00000  Uiso   1.00
N579   N     0.67543   0.80235   0.22139   0.00000  Uiso   1.00
N580   N     0.91497   0.71140   0.13198   0.00000  Uiso   1.00
N581   N     0.75046   0.95385   0.20175   0.00000  Uiso   1.00
N582   N     0.89081   0.89649   0.05241   0.00000  Uiso   1.00
N583   N     0.78201   0.76864   0.27896   0.00000  Uiso   1.00
N584   N     0.88583   0.89694   0.29029   0.00000  Uiso   1.00
O585   O     0.83333   0.77225   0.20487   0.00000  Uiso   1.00
O586   O     0.83334   0.89442   0.12846   0.00000  Uiso   1.00
O587   O     0.83333   0.77226   0.12843   0.00000  Uiso   1.00
O588   O     0.83334   0.89441   0.20490   0.00000  Uiso   1.00
O589   O     0.75725   0.83333   0.19595   0.00000  Uiso   1.00
O590   O     0.90942   0.83334   0.13739   0.00000  Uiso   1.00
O591   O     0.75725   0.83334   0.11950   0.00000  Uiso   1.00
O592   O     0.90942   0.83333   0.21383   0.00000  Uiso   1.00
Zn593  Zn    0.83333   0.83333   0.21771   0.00000  Uiso   1.00
Zn594  Zn    0.83333   0.83334   0.11563   0.00000  Uiso   1.00
C595   C     0.16729   0.08687   0.50006   0.00000  Uiso   1.00
C596   C     0.12749   0.02132   0.51859   0.00000  Uiso   1.00
C597   C     0.16466   0.29059   0.49958   0.00000  Uiso   1.00
C598   C     0.16730   0.04270   0.49999   0.00000  Uiso   1.00
C599   C     0.19412   0.19727   0.35994   0.00000  Uiso   1.00
C600   C     0.14092   0.13537   0.63964   0.00000  Uiso   1.00
C601   C     0.19236   0.19794   0.64514   0.00000  Uiso   1.00
C602   C     0.13975   0.13593   0.35430   0.00000  Uiso   1.00
C603   C     0.24556   0.04633   0.41655   0.00000  Uiso   1.00
C604   C     0.04195   0.30849   0.55222   0.00000  Uiso   1.00
C605   C     0.19788   0.27179   0.62467   0.00000  Uiso   1.00
C606   C     0.16609   0.24646   0.49991   0.00000  Uiso   1.00
C607   C     0.05613   0.11038   0.37360   0.00000  Uiso   1.00
C608   C     0.06747   0.16670   0.48851   0.00000  Uiso   1.00
C609   C     0.26589   0.16644   0.51152   0.00000  Uiso   1.00
C610   C     0.01365   0.17307   0.48347   0.00000  Uiso   1.00
C611   C     0.31981   0.16009   0.51666   0.00000  Uiso   1.00
C612   C     0.20613   0.02205   0.48120   0.00000  Uiso   1.00
C613   C     0.12500   0.31101   0.51807   0.00000  Uiso   1.00
C614   C     0.20473   0.31212   0.48151   0.00000  Uiso   1.00
H615   H     0.23520   0.29527   0.46833   0.00000  Uiso   1.00
H616   H     0.20822   0.05952   0.40126   0.00000  Uiso   1.00
H617   H     0.07203   0.25970   0.51785   0.00000  Uiso   1.00
H618   H     0.01981   0.32681   0.52479   0.00000  Uiso   1.00
H619   H     0.05766   0.32938   0.58100   0.00000  Uiso   1.00
H620   H     0.01490   0.28487   0.56488   0.00000  Uiso   1.00
H621   H     0.26101   0.23181   0.37531   0.00000  Uiso   1.00
H622   H     0.23205   0.22074   0.41906   0.00000  Uiso   1.00
H623   H     0.07618   0.10030   0.61683   0.00000  Uiso   1.00
H624   H     0.13215   0.07367   0.62319   0.00000  Uiso   1.00
H625   H     0.25907   0.23029   0.63162   0.00000  Uiso   1.00
H626   H     0.09826   0.03917   0.53219   0.00000  Uiso   1.00
H627   H     0.20737   0.28629   0.65871   0.00000  Uiso   1.00
H628   H     0.15496   0.27014   0.61519   0.00000  Uiso   1.00
H629   H     0.21503   0.29237   0.60002   0.00000  Uiso   1.00
H630   H     0.11969   0.07371   0.36697   0.00000  Uiso   1.00
H631   H     0.04399   0.10123   0.40667   0.00000  Uiso   1.00
H632   H     0.03359   0.09019   0.34705   0.00000  Uiso   1.00
H633   H     0.04634   0.14375   0.36665   0.00000  Uiso   1.00
H634   H     0.32908   0.18179   0.41580   0.00000  Uiso   1.00
H635   H     0.01242   0.22649   0.44590   0.00000  Uiso   1.00
H636   H     0.00382   0.15157   0.58447   0.00000  Uiso   1.00
H637   H     0.32167   0.10674   0.55432   0.00000  Uiso   1.00
H638   H     0.28411   0.03519   0.48038   0.00000  Uiso   1.00
H639   H     0.24920   0.01434   0.40257   0.00000  Uiso   1.00
H640   H     0.27782   0.06697   0.40728   0.00000  Uiso   1.00
N641   N     0.16665   0.16666   0.61907   0.00000  Uiso   1.00
N642   N     0.11137   0.10404   0.37499   0.00000  Uiso   1.00
N643   N     0.16668   0.16668   0.38093   0.00000  Uiso   1.00
N644   N     0.32489   0.19776   0.44564   0.00000  Uiso   1.00
N645   N     0.00876   0.13568   0.55472   0.00000  Uiso   1.00
N646   N     0.24830   0.04473   0.46531   0.00000  Uiso   1.00
N647   N     0.08379   0.28718   0.53508   0.00000  Uiso   1.00
N648   N     0.22415   0.22982   0.38574   0.00000  Uiso   1.00
N649   N     0.11534   0.10197   0.61229   0.00000  Uiso   1.00
N650   N     0.21916   0.23028   0.62362   0.00000  Uiso   1.00
O651   O     0.16666   0.10558   0.53821   0.00000  Uiso   1.00
O652   O     0.16667   0.22775   0.46179   0.00000  Uiso   1.00
O653   O     0.16666   0.10559   0.46176   0.00000  Uiso   1.00
O654   O     0.16667   0.22774   0.53824   0.00000  Uiso   1.00
O655   O     0.09058   0.16666   0.52928   0.00000  Uiso   1.00
O656   O     0.24275   0.16667   0.47072   0.00000  Uiso   1.00
O657   O     0.09058   0.16667   0.45284   0.00000  Uiso   1.00
O658   O     0.24275   0.16666   0.54716   0.00000  Uiso   1.00
Zn659  Zn    0.16667   0.16666   0.55104   0.00000  Uiso   1.00
Zn660  Zn    0.16667   0.16667   0.44896   0.00000  Uiso   1.00
C661   C     0.50062   0.08687   0.50006   0.00000  Uiso   1.00
C662   C     0.46083   0.02132   0.51859   0.00000  Uiso   1.00
C663   C     0.49800   0.29059   0.49958   0.00000  Uiso   1.00
C664   C     0.50064   0.04270   0.49999   0.00000  Uiso   1.00
C665   C     0.52746   0.19727   0.35994   0.00000  Uiso   1.00
C666   C     0.47425   0.13537   0.63964   0.00000  Uiso   1.00
C667   C     0.52569   0.19794   0.64514   0.00000  Uiso   1.00
C668   C     0.47309   0.13593   0.35430   0.00000  Uiso   1.00
C669   C     0.57889   0.04633   0.41655   0.00000  Uiso   1.00
C670   C     0.37528   0.30849   0.55222   0.00000  Uiso   1.00
C671   C     0.53122   0.27179   0.62467   0.00000  Uiso   1.00
C672   C     0.49942   0.24646   0.49991   0.00000  Uiso   1.00
C673   C     0.38946   0.11038   0.37360   0.00000  Uiso   1.00
C674   C     0.40081   0.16670   0.48851   0.00000  Uiso   1.00
C675   C     0.59922   0.16644   0.51152   0.00000  Uiso   1.00
C676   C     0.34698   0.17307   0.48347   0.00000  Uiso   1.00
C677   C     0.65314   0.16009   0.51666   0.00000  Uiso   1.00
C678   C     0.53946   0.02205   0.48120   0.00000  Uiso   1.00
C679   C     0.45833   0.31101   0.51807   0.00000  Uiso   1.00
C680   C     0.53806   0.31212   0.48151   0.00000  Uiso   1.00
H681   H     0.56853   0.29527   0.46833   0.00000  Uiso   1.00
H682   H     0.54156   0.05952   0.40126   0.00000  Uiso   1.00
H683   H     0.40537   0.25970   0.51785   0.00000  Uiso   1.00
H684   H     0.35314   0.32681   0.52479   0.00000  Uiso   1.00
H685   H     0.39100   0.32938   0.58100   0.00000  Uiso   1.00
H686   H     0.34824   0.28487   0.56488   0.00000  Uiso   1.00
H687   H     0.59434   0.23181   0.37531   0.00000  Uiso   1.00
H688   H     0.56539   0.22074   0.41906   0.00000  Uiso   1.00
H689   H     0.40952   0.10030   0.61683   0.00000  Uiso   1.00
H690   H     0.46548   0.07367   0.62319   0.00000  Uiso   1.00
H691   H     0.59240   0.23029   0.63162   0.00000  Uiso   1.00
H692   H     0.43160   0.03917   0.53219   0.00000  Uiso   1.00
H693   H     0.54070   0.28629   0.65871   0.00000  Uiso   1.00
H694   H     0.48829   0.27014   0.61519   0.00000  Uiso   1.00
H695   H     0.54836   0.29237   0.60002   0.00000  Uiso   1.00
H696   H     0.45303   0.07371   0.36697   0.00000  Uiso   1.00
H697   H     0.37732   0.10123   0.40667   0.00000  Uiso   1.00
H698   H     0.36693   0.09019   0.34705   0.00000  Uiso   1.00
H699   H     0.37968   0.14375   0.36665   0.00000  Uiso   1.00
H700   H     0.66241   0.18179   0.41580   0.00000  Uiso   1.00
H701   H     0.34576   0.22649   0.44590   0.00000  Uiso   1.00
H702   H     0.33715   0.15157   0.58447   0.00000  Uiso   1.00
H703   H     0.65500   0.10674   0.55432   0.00000  Uiso   1.00
H704   H     0.61744   0.03519   0.48038   0.00000  Uiso   1.00
H705   H     0.58254   0.01434   0.40257   0.00000  Uiso   1.00
H706   H     0.61115   0.06697   0.40728   0.00000  Uiso   1.00
N707   N     0.49999   0.16666   0.61907   0.00000  Uiso   1.00
N708   N     0.44470   0.10404   0.37499   0.00000  Uiso   1.00
N709   N     0.50001   0.16668   0.38093   0.00000  Uiso   1.00
N710   N     0.65822   0.19776   0.44564   0.00000  Uiso   1.00
N711   N     0.34209   0.13568   0.55472   0.00000  Uiso   1.00
N712   N     0.58164   0.04473   0.46531   0.00000  Uiso   1.00
N713   N     0.41712   0.28718   0.53508   0.00000  Uiso   1.00
N714   N     0.55748   0.22982   0.38574   0.00000  Uiso   1.00
N715   N     0.44868   0.10197   0.61229   0.00000  Uiso   1.00
N716   N     0.55250   0.23028   0.62362   0.00000  Uiso   1.00
O717   O     0.50000   0.10558   0.53821   0.00000  Uiso   1.00
O718   O     0.50000   0.22775   0.46179   0.00000  Uiso   1.00
O719   O     0.50000   0.10559   0.46176   0.00000  Uiso   1.00
O720   O     0.50000   0.22774   0.53824   0.00000  Uiso   1.00
O721   O     0.42392   0.16666   0.52928   0.00000  Uiso   1.00
O722   O     0.57608   0.16667   0.47072   0.00000  Uiso   1.00
O723   O     0.42392   0.16667   0.45284   0.00000  Uiso   1.00
O724   O     0.57608   0.16666   0.54716   0.00000  Uiso   1.00
Zn725  Zn    0.50000   0.16666   0.55104   0.00000  Uiso   1.00
Zn726  Zn    0.50000   0.16667   0.44896   0.00000  Uiso   1.00
C727   C     0.83395   0.08687   0.50006   0.00000  Uiso   1.00
C728   C     0.79416   0.02132   0.51859   0.00000  Uiso   1.00
C729   C     0.83133   0.29059   0.49958   0.00000  Uiso   1.00
C730   C     0.83397   0.04270   0.49999   0.00000  Uiso   1.00
C731   C     0.86079   0.19727   0.35994   0.00000  Uiso   1.00
C732   C     0.80759   0.13537   0.63964   0.00000  Uiso   1.00
C733   C     0.85903   0.19794   0.64514   0.00000  Uiso   1.00
C734   C     0.80642   0.13593   0.35430   0.00000  Uiso   1.00
C735   C     0.91222   0.04633   0.41655   0.00000  Uiso   1.00
C736   C     0.70861   0.30849   0.55222   0.00000  Uiso   1.00
C737   C     0.86455   0.27179   0.62467   0.00000  Uiso   1.00
C738   C     0.83276   0.24646   0.49991   0.00000  Uiso   1.00
C739   C     0.72279   0.11038   0.37360   0.00000  Uiso   1.00
C740   C     0.73414   0.16670   0.48851   0.00000  Uiso   1.00
C741   C     0.93256   0.16644   0.51152   0.00000  Uiso   1.00
C742   C     0.68031   0.17307   0.48347   0.00000  Uiso   1.00
C743   C     0.98647   0.16009   0.51666   0.00000  Uiso   1.00
C744   C     0.87279   0.02205   0.48120   0.00000  Uiso   1.00
C745   C     0.79167   0.31101   0.51807   0.00000  Uiso   1.00
C746   C     0.87139   0.31212   0.48151   0.00000  Uiso   1.00
H747   H     0.90187   0.29527   0.46833   0.00000  Uiso   1.00
H748   H     0.87489   0.05952   0.40126   0.00000  Uiso   1.00
H749   H     0.73870   0.25970   0.51785   0.00000  Uiso   1.00
H750   H     0.68647   0.32681   0.52479   0.00000  Uiso   1.00
H751   H     0.72433   0.32938   0.58100   0.00000  Uiso   1.00
H752   H     0.68157   0.28487   0.56488   0.00000  Uiso   1.00
H753   H     0.92768   0.23181   0.37531   0.00000  Uiso   1.00
H754   H     0.89872   0.22074   0.41906   0.00000  Uiso   1.00
H755   H     0.74285   0.10030   0.61683   0.00000  Uiso   1.00
H756   H     0.79881   0.07367   0.62319   0.00000  Uiso   1.00
H757   H     0.92573   0.23029   0.63162   0.00000  Uiso   1.00
H758   H     0.76493   0.03917   0.53219   0.00000  Uiso   1.00
H759   H     0.87403   0.28629   0.65871   0.00000  Uiso   1.00
H760   H     0.82162   0.27014   0.61519   0.00000  Uiso   1.00
H761   H     0.88169   0.29237   0.60002   0.00000  Uiso   1.00
H762   H     0.78636   0.07371   0.36697   0.00000  Uiso   1.00
H763   H     0.71066   0.10123   0.40667   0.00000  Uiso   1.00
H764   H     0.70026   0.09019   0.34705   0.00000  Uiso   1.00
H765   H     0.71301   0.14375   0.36665   0.00000  Uiso   1.00
H766   H     0.99575   0.18179   0.41580   0.00000  Uiso   1.00
H767   H     0.67909   0.22649   0.44590   0.00000  Uiso   1.00
H768   H     0.67048   0.15157   0.58447   0.00000  Uiso   1.00
H769   H     0.98834   0.10674   0.55432   0.00000  Uiso   1.00
H770   H     0.95078   0.03519   0.48038   0.00000  Uiso   1.00
H771   H     0.91587   0.01434   0.40257   0.00000  Uiso   1.00
H772   H     0.94448   0.06697   0.40728   0.00000  Uiso   1.00
N773   N     0.83332   0.16666   0.61907   0.00000  Uiso   1.00
N774   N     0.77804   0.10404   0.37499   0.00000  Uiso   1.00
N775   N     0.83335   0.16668   0.38093   0.00000  Uiso   1.00
N776   N     0.99156   0.19776   0.44564   0.00000  Uiso   1.00
N777   N     0.67543   0.13568   0.55472   0.00000  Uiso   1.00
N778   N     0.91497   0.04473   0.46531   0.00000  Uiso   1.00
N779   N     0.75046   0.28718   0.53508   0.00000  Uiso   1.00
N780   N     0.89081   0.22982   0.38574   0.00000  Uiso   1.00
N781   N     0.78201   0.10197   0.61229   0.00000  Uiso   1.00
N782   N     0.88583   0.23028   0.62362   0.00000  Uiso   1.00
O783   O     0.83333   0.10558   0.53821   0.00000  Uiso   1.00
O784   O     0.83334   0.22775   0.46179   0.00000  Uiso   1.00
O785   O     0.83333   0.10559   0.46176   0.00000  Uiso   1.00
O786   O     0.83334   0.22774   0.53824   0.00000  Uiso   1.00
O787   O     0.75725   0.16666   0.52928   0.00000  Uiso   1.00
O788   O     0.90942   0.16667   0.47072   0.00000  Uiso   1.00
O789   O     0.75725   0.16667   0.45284   0.00000  Uiso   1.00
O790   O     0.90942   0.16666   0.54716   0.00000  Uiso   1.00
Zn791  Zn    0.83333   0.16666   0.55104   0.00000  Uiso   1.00
Zn792  Zn    0.83333   0.16667   0.44896   0.00000  Uiso   1.00
C793   C     0.16729   0.42021   0.50006   0.00000  Uiso   1.00
C794   C     0.12749   0.35465   0.51859   0.00000  Uiso   1.00
C795   C     0.16466   0.62392   0.49958   0.00000  Uiso   1.00
C796   C     0.16730   0.37603   0.49999   0.00000  Uiso   1.00
C797   C     0.19412   0.53060   0.35994   0.00000  Uiso   1.00
C798   C     0.14092   0.46871   0.63964   0.00000  Uiso   1.00
C799   C     0.19236   0.53128   0.64514   0.00000  Uiso   1.00
C800   C     0.13975   0.46926   0.35430   0.00000  Uiso   1.00
C801   C     0.24556   0.37966   0.41655   0.00000  Uiso   1.00
C802   C     0.04195   0.64182   0.55222   0.00000  Uiso   1.00
C803   C     0.19788   0.60512   0.62467   0.00000  Uiso   1.00
C804   C     0.16609   0.57979   0.49991   0.00000  Uiso   1.00
C805   C     0.05613   0.44371   0.37360   0.00000  Uiso   1.00
C806   C     0.06747   0.50003   0.48851   0.00000  Uiso   1.00
C807   C     0.26589   0.49978   0.51152   0.00000  Uiso   1.00
C808   C     0.01365   0.50641   0.48347   0.00000  Uiso   1.00
C809   C     0.31981   0.49342   0.51666   0.00000  Uiso   1.00
C810   C     0.20613   0.35538   0.48120   0.00000  Uiso   1.00
C811   C     0.12500   0.64434   0.51807   0.00000  Uiso   1.00
C812   C     0.20473   0.64545   0.48151   0.00000  Uiso   1.00
H813   H     0.23520   0.62860   0.46833   0.00000  Uiso   1.00
H814   H     0.20822   0.39285   0.40126   0.00000  Uiso   1.00
H815   H     0.07203   0.59303   0.51785   0.00000  Uiso   1.00
H816   H     0.01981   0.66015   0.52479   0.00000  Uiso   1.00
H817   H     0.05766   0.66271   0.58100   0.00000  Uiso   1.00
H818   H     0.01490   0.61820   0.56488   0.00000  Uiso   1.00
H819   H     0.26101   0.56514   0.37531   0.00000  Uiso   1.00
H820   H     0.23205   0.55408   0.41906   0.00000  Uiso   1.00
H821   H     0.07618   0.43364   0.61683   0.00000  Uiso   1.00
H822   H     0.13215   0.40701   0.62319   0.00000  Uiso   1.00
H823   H     0.25907   0.56363   0.63162   0.00000  Uiso   1.00
H824   H     0.09826   0.37250   0.53219   0.00000  Uiso   1.00
H825   H     0.20737   0.61963   0.65871   0.00000  Uiso   1.00
H826   H     0.15496   0.60347   0.61519   0.00000  Uiso   1.00
H827   H     0.21503   0.62571   0.60002   0.00000  Uiso   1.00
H828   H     0.11969   0.40704   0.36697   0.00000  Uiso   1.00
H829   H     0.04399   0.43456   0.40667   0.00000  Uiso   1.00
H830   H     0.03359   0.42353   0.34705   0.00000  Uiso   1.00
H831   H     0.04634   0.47709   0.36665   0.00000  Uiso   1.00
H832   H     0.32908   0.51513   0.41580   0.00000  Uiso   1.00
H833   H     0.01242   0.55982   0.44590   0.00000  Uiso   1.00
H834   H     0.00382   0.48490   0.58447   0.00000  Uiso   1.00
H835   H     0.32167   0.44007   0.55432   0.00000  Uiso   1.00
H836   H     0.28411   0.36852   0.48038   0.00000  Uiso   1.00
H837   H     0.24920   0.34767   0.40257   0.00000  Uiso   1.00
H838   H     0.27782   0.40031   0.40728   0.00000  Uiso   1.00
N839   N     0.16665   0.49999   0.61907   0.00000  Uiso   1.00
N840   N     0.11137   0.43737   0.37499   0.00000  Uiso   1.00
N841   N     0.16668   0.50001   0.38093   0.00000  Uiso   1.00
N842   N     0.32489   0.53109   0.44564   0.00000  Uiso   1.00
N843   N     0.00876   0.46901   0.55472   0.00000  Uiso   1.00
N844   N     0.24830   0.37807   0.46531   0.00000  Uiso   1.00
N845   N     0.08379   0.62051   0.53508   0.00000  Uiso   1.00
N846   N     0.22415   0.56315   0.38574   0.00000  Uiso   1.00
N847   N     0.11534   0.43530   0.61229   0.00000  Uiso   1.00
N848   N     0.21916   0.56361   0.62362   0.00000  Uiso   1.00
O849   O     0.16666   0.43892   0.53821   0.00000  Uiso   1.00
O850   O     0.16667   0.56108   0.46179   0.00000  Uiso   1.00
O851   O     0.16666   0.43893   0.46176   0.00000  Uiso   1.00
O852   O     0.16667   0.56107   0.53824   0.00000  Uiso   1.00
O853   O     0.09058   0.50000   0.52928   0.00000  Uiso   1.00
O854   O     0.24275   0.50000   0.47072   0.00000  Uiso   1.00
O855   O     0.09058   0.50000   0.45284   0.00000  Uiso   1.00
O856   O     0.24275   0.50000   0.54716   0.00000  Uiso   1.00
Zn857  Zn    0.16667   0.49999   0.55104   0.00000  Uiso   1.00
Zn858  Zn    0.16667   0.50001   0.44896   0.00000  Uiso   1.00
C859   C     0.50062   0.42021   0.50006   0.00000  Uiso   1.00
C860   C     0.46083   0.35465   0.51859   0.00000  Uiso   1.00
C861   C     0.49800   0.62392   0.49958   0.00000  Uiso   1.00
C862   C     0.50064   0.37603   0.49999   0.00000  Uiso   1.00
C863   C     0.52746   0.53060   0.35994   0.00000  Uiso   1.00
C864   C     0.47425   0.46871   0.63964   0.00000  Uiso   1.00
C865   C     0.52569   0.53128   0.64514   0.00000  Uiso   1.00
C866   C     0.47309   0.46926   0.35430   0.00000  Uiso   1.00
C867   C     0.57889   0.37966   0.41655   0.00000  Uiso   1.00
C868   C     0.37528   0.64182   0.55222   0.00000  Uiso   1.00
C869   C     0.53122   0.60512   0.62467   0.00000  Uiso   1.00
C870   C     0.49942   0.57979   0.49991   0.00000  Uiso   1.00
C871   C     0.38946   0.44371   0.37360   0.00000  Uiso   1.00
C872   C     0.40081   0.50003   0.48851   0.00000  Uiso   1.00
C873   C     0.59922   0.49978   0.51152   0.00000  Uiso   1.00
C874   C     0.34698   0.50641   0.48347   0.00000  Uiso   1.00
C875   C     0.65314   0.49342   0.51666   0.00000  Uiso   1.00
C876   C     0.53946   0.35538   0.48120   0.00000  Uiso   1.00
C877   C     0.45833   0.64434   0.51807   0.00000  Uiso   1.00
C878   C     0.53806   0.64545   0.48151   0.00000  Uiso   1.00
H879   H     0.56853   0.62860   0.46833   0.00000  Uiso   1.00
H880   H     0.54156   0.39285   0.40126   0.00000  Uiso   1.00
H881   H     0.40537   0.59303   0.51785   0.00000  Uiso   1.00
H882   H     0.35314   0.66015   0.52479   0.00000  Uiso   1.00
H883   H     0.39100   0.66271   0.58100   0.00000  Uiso   1.00
H884   H     0.34824   0.61820   0.56488   0.00000  Uiso   1.00
H885   H     0.59434   0.56514   0.37531   0.00000  Uiso   1.00
H886   H     0.56539   0.55408   0.41906   0.00000  Uiso   1.00
H887   H     0.40952   0.43364   0.61683   0.00000  Uiso   1.00
H888   H     0.46548   0.40701   0.62319   0.00000  Uiso   1.00
H889   H     0.59240   0.56363   0.63162   0.00000  Uiso   1.00
H890   H     0.43160   0.37250   0.53219   0.00000  Uiso   1.00
H891   H     0.54070   0.61963   0.65871   0.00000  Uiso   1.00
H892   H     0.48829   0.60347   0.61519   0.00000  Uiso   1.00
H893   H     0.54836   0.62571   0.60002   0.00000  Uiso   1.00
H894   H     0.45303   0.40704   0.36697   0.00000  Uiso   1.00
H895   H     0.37732   0.43456   0.40667   0.00000  Uiso   1.00
H896   H     0.36693   0.42353   0.34705   0.00000  Uiso   1.00
H897   H     0.37968   0.47709   0.36665   0.00000  Uiso   1.00
H898   H     0.66241   0.51513   0.41580   0.00000  Uiso   1.00
H899   H     0.34576   0.55982   0.44590   0.00000  Uiso   1.00
H900   H     0.33715   0.48490   0.58447   0.00000  Uiso   1.00
H901   H     0.65500   0.44007   0.55432   0.00000  Uiso   1.00
H902   H     0.61744   0.36852   0.48038   0.00000  Uiso   1.00
H903   H     0.58254   0.34767   0.40257   0.00000  Uiso   1.00
H904   H     0.61115   0.40031   0.40728   0.00000  Uiso   1.00
N905   N     0.49999   0.49999   0.61907   0.00000  Uiso   1.00
N906   N     0.44470   0.43737   0.37499   0.00000  Uiso   1.00
N907   N     0.50001   0.50001   0.38093   0.00000  Uiso   1.00
N908   N     0.65822   0.53109   0.44564   0.00000  Uiso   1.00
N909   N     0.34209   0.46901   0.55472   0.00000  Uiso   1.00
N910   N     0.58164   0.37807   0.46531   0.00000  Uiso   1.00
N911   N     0.41712   0.62051   0.53508   0.00000  Uiso   1.00
N912   N     0.55748   0.56315   0.38574   0.00000  Uiso   1.00
N913   N     0.44868   0.43530   0.61229   0.00000  Uiso   1.00
N914   N     0.55250   0.56361   0.62362   0.00000  Uiso   1.00
O915   O     0.50000   0.43892   0.53821   0.00000  Uiso   1.00
O916   O     0.50000   0.56108   0.46179   0.00000  Uiso   1.00
O917   O     0.50000   0.43893   0.46176   0.00000  Uiso   1.00
O918   O     0.50000   0.56107   0.53824   0.00000  Uiso   1.00
O919   O     0.42392   0.50000   0.52928   0.00000  Uiso   1.00
O920   O     0.57608   0.50000   0.47072   0.00000  Uiso   1.00
O921   O     0.42392   0.50000   0.45284   0.00000  Uiso   1.00
O922   O     0.57608   0.50000   0.54716   0.00000  Uiso   1.00
Zn923  Zn    0.50000   0.49999   0.55104   0.00000  Uiso   1.00
Zn924  Zn    0.50000   0.50001   0.44896   0.00000  Uiso   1.00
C925   C     0.83395   0.42021   0.50006   0.00000  Uiso   1.00
C926   C     0.79416   0.35465   0.51859   0.00000  Uiso   1.00
C927   C     0.83133   0.62392   0.49958   0.00000  Uiso   1.00
C928   C     0.83397   0.37603   0.49999   0.00000  Uiso   1.00
C929   C     0.86079   0.53060   0.35994   0.00000  Uiso   1.00
C930   C     0.80759   0.46871   0.63964   0.00000  Uiso   1.00
C931   C     0.85903   0.53128   0.64514   0.00000  Uiso   1.00
C932   C     0.80642   0.46926   0.35430   0.00000  Uiso   1.00
C933   C     0.91222   0.37966   0.41655   0.00000  Uiso   1.00
C934   C     0.70861   0.64182   0.55222   0.00000  Uiso   1.00
C935   C     0.86455   0.60512   0.62467   0.00000  Uiso   1.00
C936   C     0.83276   0.57979   0.49991   0.00000  Uiso   1.00
C937   C     0.72279   0.44371   0.37360   0.00000  Uiso   1.00
C938   C     0.73414   0.50003   0.48851   0.00000  Uiso   1.00
C939   C     0.93256   0.49978   0.51152   0.00000  Uiso   1.00
C940   C     0.68031   0.50641   0.48347   0.00000  Uiso   1.00
C941   C     0.98647   0.49342   0.51666   0.00000  Uiso   1.00
C942   C     0.87279   0.35538   0.48120   0.00000  Uiso   1.00
C943   C     0.79167   0.64434   0.51807   0.00000  Uiso   1.00
C944   C     0.87139   0.64545   0.48151   0.00000  Uiso   1.00
H945   H     0.90187   0.62860   0.46833   0.00000  Uiso   1.00
H946   H     0.87489   0.39285   0.40126   0.00000  Uiso   1.00
H947   H     0.73870   0.59303   0.51785   0.00000  Uiso   1.00
H948   H     0.68647   0.66015   0.52479   0.00000  Uiso   1.00
H949   H     0.72433   0.66271   0.58100   0.00000  Uiso   1.00
H950   H     0.68157   0.61820   0.56488   0.00000  Uiso   1.00
H951   H     0.92768   0.56514   0.37531   0.00000  Uiso   1.00
H952   H     0.89872   0.55408   0.41906   0.00000  Uiso   1.00
H953   H     0.74285   0.43364   0.61683   0.00000  Uiso   1.00
H954   H     0.79881   0.40701   0.62319   0.00000  Uiso   1.00
H955   H     0.92573   0.56363   0.63162   0.00000  Uiso   1.00
H956   H     0.76493   0.37250   0.53219   0.00000  Uiso   1.00
H957   H     0.87403   0.61963   0.65871   0.00000  Uiso   1.00
H958   H     0.82162   0.60347   0.61519   0.00000  Uiso   1.00
H959   H     0.88169   0.62571   0.60002   0.00000  Uiso   1.00
H960   H     0.78636   0.40704   0.36697   0.00000  Uiso   1.00
H961   H     0.71066   0.43456   0.40667   0.00000  Uiso   1.00
H962   H     0.70026   0.42353   0.34705   0.00000  Uiso   1.00
H963   H     0.71301   0.47709   0.36665   0.00000  Uiso   1.00
H964   H     0.99575   0.51513   0.41580   0.00000  Uiso   1.00
H965   H     0.67909   0.55982   0.44590   0.00000  Uiso   1.00
H966   H     0.67048   0.48490   0.58447   0.00000  Uiso   1.00
H967   H     0.98834   0.44007   0.55432   0.00000  Uiso   1.00
H968   H     0.95078   0.36852   0.48038   0.00000  Uiso   1.00
H969   H     0.91587   0.34767   0.40257   0.00000  Uiso   1.00
H970   H     0.94448   0.40031   0.40728   0.00000  Uiso   1.00
N971   N     0.83332   0.49999   0.61907   0.00000  Uiso   1.00
N972   N     0.77804   0.43737   0.37499   0.00000  Uiso   1.00
N973   N     0.83335   0.50001   0.38093   0.00000  Uiso   1.00
N974   N     0.99156   0.53109   0.44564   0.00000  Uiso   1.00
N975   N     0.67543   0.46901   0.55472   0.00000  Uiso   1.00
N976   N     0.91497   0.37807   0.46531   0.00000  Uiso   1.00
N977   N     0.75046   0.62051   0.53508   0.00000  Uiso   1.00
N978   N     0.89081   0.56315   0.38574   0.00000  Uiso   1.00
N979   N     0.78201   0.43530   0.61229   0.00000  Uiso   1.00
N980   N     0.88583   0.56361   0.62362   0.00000  Uiso   1.00
O981   O     0.83333   0.43892   0.53821   0.00000  Uiso   1.00
O982   O     0.83334   0.56108   0.46179   0.00000  Uiso   1.00
O983   O     0.83333   0.43893   0.46176   0.00000  Uiso   1.00
O984   O     0.83334   0.56107   0.53824   0.00000  Uiso   1.00
O985   O     0.75725   0.50000   0.52928   0.00000  Uiso   1.00
O986   O     0.90942   0.50000   0.47072   0.00000  Uiso   1.00
O987   O     0.75725   0.50000   0.45284   0.00000  Uiso   1.00
O988   O     0.90942   0.50000   0.54716   0.00000  Uiso   1.00
Zn989  Zn    0.83333   0.49999   0.55104   0.00000  Uiso   1.00
Zn990  Zn    0.83333   0.50001   0.44896   0.00000  Uiso   1.00
C991   C     0.16729   0.75354   0.50006   0.00000  Uiso   1.00
C992   C     0.12749   0.68799   0.51859   0.00000  Uiso   1.00
C993   C     0.16466   0.95725   0.49958   0.00000  Uiso   1.00
C994   C     0.16730   0.70937   0.49999   0.00000  Uiso   1.00
C995   C     0.19412   0.86394   0.35994   0.00000  Uiso   1.00
C996   C     0.14092   0.80204   0.63964   0.00000  Uiso   1.00
C997   C     0.19236   0.86461   0.64514   0.00000  Uiso   1.00
C998   C     0.13975   0.80259   0.35430   0.00000  Uiso   1.00
C999   C     0.24556   0.71300   0.41655   0.00000  Uiso   1.00
C1000  C     0.04195   0.97515   0.55222   0.00000  Uiso   1.00
C1001  C     0.19788   0.93846   0.62467   0.00000  Uiso   1.00
C1002  C     0.16609   0.91312   0.49991   0.00000  Uiso   1.00
C1003  C     0.05613   0.77705   0.37360   0.00000  Uiso   1.00
C1004  C     0.06747   0.83337   0.48851   0.00000  Uiso   1.00
C1005  C     0.26589   0.83311   0.51152   0.00000  Uiso   1.00
C1006  C     0.01365   0.83974   0.48347   0.00000  Uiso   1.00
C1007  C     0.31981   0.82676   0.51666   0.00000  Uiso   1.00
C1008  C     0.20613   0.68872   0.48120   0.00000  Uiso   1.00
C1009  C     0.12500   0.97768   0.51807   0.00000  Uiso   1.00
C1010  C     0.20473   0.97879   0.48151   0.00000  Uiso   1.00
H1011  H     0.23520   0.96193   0.46833   0.00000  Uiso   1.00
H1012  H     0.20822   0.72618   0.40126   0.00000  Uiso   1.00
H1013  H     0.07203   0.92636   0.51785   0.00000  Uiso   1.00
H1014  H     0.01981   0.99348   0.52479   0.00000  Uiso   1.00
H1015  H     0.05766   0.99605   0.58100   0.00000  Uiso   1.00
H1016  H     0.01490   0.95154   0.56488   0.00000  Uiso   1.00
H1017  H     0.26101   0.89847   0.37531   0.00000  Uiso   1.00
H1018  H     0.23205   0.88741   0.41906   0.00000  Uiso   1.00
H1019  H     0.07618   0.76697   0.61683   0.00000  Uiso   1.00
H1020  H     0.13215   0.74034   0.62319   0.00000  Uiso   1.00
H1021  H     0.25907   0.89696   0.63162   0.00000  Uiso   1.00
H1022  H     0.09826   0.70583   0.53219   0.00000  Uiso   1.00
H1023  H     0.20737   0.95296   0.65871   0.00000  Uiso   1.00
H1024  H     0.15496   0.93680   0.61519   0.00000  Uiso   1.00
H1025  H     0.21503   0.95904   0.60002   0.00000  Uiso   1.00
H1026  H     0.11969   0.74038   0.36697   0.00000  Uiso   1.00
H1027  H     0.04399   0.76789   0.40667   0.00000  Uiso   1.00
H1028  H     0.03359   0.75686   0.34705   0.00000  Uiso   1.00
H1029  H     0.04634   0.81042   0.36665   0.00000  Uiso   1.00
H1030  H     0.32908   0.84846   0.41580   0.00000  Uiso   1.00
H1031  H     0.01242   0.89315   0.44590   0.00000  Uiso   1.00
H1032  H     0.00382   0.81824   0.58447   0.00000  Uiso   1.00
H1033  H     0.32167   0.77340   0.55432   0.00000  Uiso   1.00
H1034  H     0.28411   0.70186   0.48038   0.00000  Uiso   1.00
H1035  H     0.24920   0.68101   0.40257   0.00000  Uiso   1.00
H1036  H     0.27782   0.73364   0.40728   0.00000  Uiso   1.00
N1037  N     0.16665   0.83332   0.61907   0.00000  Uiso   1.00
N1038  N     0.11137   0.77071   0.37499   0.00000  Uiso   1.00
N1039  N     0.16668   0.83334   0.38093   0.00000  Uiso   1.00
N1040  N     0.32489   0.86443   0.44564   0.00000  Uiso   1.00
N1041  N     0.00876   0.80235   0.55472   0.00000  Uiso   1.00
N1042  N     0.24830   0.71140   0.46531   0.00000  Uiso   1.00
N1043  N     0.08379   0.95385   0.53508   0.00000  Uiso   1.00
N1044  N     0.22415   0.89649   0.38574   0.00000  Uiso   1.00
N1045  N     0.11534   0.76864   0.61229   0.00000  Uiso   1.00
N1046  N     0.21916   0.89694   0.62362   0.00000  Uiso   1.00
O1047  O     0.16666   0.77225   0.53821   0.00000  Uiso   1.00
O1048  O     0.16667   0.89442   0.46179   0.00000  Uiso   1.00
O1049  O     0.16666   0.77226   0.46176   0.00000  Uiso   1.00
O1050  O     0.16667   0.89441   0.53824   0.00000  Uiso   1.00
O1051  O     0.09058   0.83333   0.52928   0.00000  Uiso   1.00
O1052  O     0.24275   0.83334   0.47072   0.00000  Uiso   1.00
O1053  O     0.09058   0.83334   0.45284   0.00000  Uiso   1.00
O1054  O     0.24275   0.83333   0.54716   0.00000  Uiso   1.00
Zn1055 Zn    0.16667   0.83333   0.55104   0.00000  Uiso   1.00
Zn1056 Zn    0.16667   0.83334   0.44896   0.00000  Uiso   1.00
C1057  C     0.50062   0.75354   0.50006   0.00000  Uiso   1.00
C1058  C     0.46083   0.68799   0.51859   0.00000  Uiso   1.00
C1059  C     0.49800   0.95725   0.49958   0.00000  Uiso   1.00
C1060  C     0.50064   0.70937   0.49999   0.00000  Uiso   1.00
C1061  C     0.52746   0.86394   0.35994   0.00000  Uiso   1.00
C1062  C     0.47425   0.80204   0.63964   0.00000  Uiso   1.00
C1063  C     0.52569   0.86461   0.64514   0.00000  Uiso   1.00
C1064  C     0.47309   0.80259   0.35430   0.00000  Uiso   1.00
C1065  C     0.57889   0.71300   0.41655   0.00000  Uiso   1.00
C1066  C     0.37528   0.97515   0.55222   0.00000  Uiso   1.00
C1067  C     0.53122   0.93846   0.62467   0.00000  Uiso   1.00
C1068  C     0.49942   0.91312   0.49991   0.00000  Uiso   1.00
C1069  C     0.38946   0.77705   0.37360   0.00000  Uiso   1.00
C1070  C     0.40081   0.83337   0.48851   0.00000  Uiso   1.00
C1071  C     0.59922   0.83311   0.51152   0.00000  Uiso   1.00
C1072  C     0.34698   0.83974   0.48347   0.00000  Uiso   1.00
C1073  C     0.65314   0.82676   0.51666   0.00000  Uiso   1.00
C1074  C     0.53946   0.68872   0.48120   0.00000  Uiso   1.00
C1075  C     0.45833   0.97768   0.51807   0.00000  Uiso   1.00
C1076  C     0.53806   0.97879   0.48151   0.00000  Uiso   1.00
H1077  H     0.56853   0.96193   0.46833   0.00000  Uiso   1.00
H1078  H     0.54156   0.72618   0.40126   0.00000  Uiso   1.00
H1079  H     0.40537   0.92636   0.51785   0.00000  Uiso   1.00
H1080  H     0.35314   0.99348   0.52479   0.00000  Uiso   1.00
H1081  H     0.39100   0.99605   0.58100   0.00000  Uiso   1.00
H1082  H     0.34824   0.95154   0.56488   0.00000  Uiso   1.00
H1083  H     0.59434   0.89847   0.37531   0.00000  Uiso   1.00
H1084  H     0.56539   0.88741   0.41906   0.00000  Uiso   1.00
H1085  H     0.40952   0.76697   0.61683   0.00000  Uiso   1.00
H1086  H     0.46548   0.74034   0.62319   0.00000  Uiso   1.00
H1087  H     0.59240   0.89696   0.63162   0.00000  Uiso   1.00
H1088  H     0.43160   0.70583   0.53219   0.00000  Uiso   1.00
H1089  H     0.54070   0.95296   0.65871   0.00000  Uiso   1.00
H1090  H     0.48829   0.93680   0.61519   0.00000  Uiso   1.00
H1091  H     0.54836   0.95904   0.60002   0.00000  Uiso   1.00
H1092  H     0.45303   0.74038   0.36697   0.00000  Uiso   1.00
H1093  H     0.37732   0.76789   0.40667   0.00000  Uiso   1.00
H1094  H     0.36693   0.75686   0.34705   0.00000  Uiso   1.00
H1095  H     0.37968   0.81042   0.36665   0.00000  Uiso   1.00
H1096  H     0.66241   0.84846   0.41580   0.00000  Uiso   1.00
H1097  H     0.34576   0.89315   0.44590   0.00000  Uiso   1.00
H1098  H     0.33715   0.81824   0.58447   0.00000  Uiso   1.00
H1099  H     0.65500   0.77340   0.55432   0.00000  Uiso   1.00
H1100  H     0.61744   0.70186   0.48038   0.00000  Uiso   1.00
H1101  H     0.58254   0.68101   0.40257   0.00000  Uiso   1.00
H1102  H     0.61115   0.73364   0.40728   0.00000  Uiso   1.00
N1103  N     0.49999   0.83332   0.61907   0.00000  Uiso   1.00
N1104  N     0.44470   0.77071   0.37499   0.00000  Uiso   1.00
N1105  N     0.50001   0.83334   0.38093   0.00000  Uiso   1.00
N1106  N     0.65822   0.86443   0.44564   0.00000  Uiso   1.00
N1107  N     0.34209   0.80235   0.55472   0.00000  Uiso   1.00
N1108  N     0.58164   0.71140   0.46531   0.00000  Uiso   1.00
N1109  N     0.41712   0.95385   0.53508   0.00000  Uiso   1.00
N1110  N     0.55748   0.89649   0.38574   0.00000  Uiso   1.00
N1111  N     0.44868   0.76864   0.61229   0.00000  Uiso   1.00
N1112  N     0.55250   0.89694   0.62362   0.00000  Uiso   1.00
O1113  O     0.50000   0.77225   0.53821   0.00000  Uiso   1.00
O1114  O     0.50000   0.89442   0.46179   0.00000  Uiso   1.00
O1115  O     0.50000   0.77226   0.46176   0.00000  Uiso   1.00
O1116  O     0.50000   0.89441   0.53824   0.00000  Uiso   1.00
O1117  O     0.42392   0.83333   0.52928   0.00000  Uiso   1.00
O1118  O     0.57608   0.83334   0.47072   0.00000  Uiso   1.00
O1119  O     0.42392   0.83334   0.45284   0.00000  Uiso   1.00
O1120  O     0.57608   0.83333   0.54716   0.00000  Uiso   1.00
Zn1121 Zn    0.50000   0.83333   0.55104   0.00000  Uiso   1.00
Zn1122 Zn    0.50000   0.83334   0.44896   0.00000  Uiso   1.00
C1123  C     0.83395   0.75354   0.50006   0.00000  Uiso   1.00
C1124  C     0.79416   0.68799   0.51859   0.00000  Uiso   1.00
C1125  C     0.83133   0.95725   0.49958   0.00000  Uiso   1.00
C1126  C     0.83397   0.70937   0.49999   0.00000  Uiso   1.00
C1127  C     0.86079   0.86394   0.35994   0.00000  Uiso   1.00
C1128  C     0.80759   0.80204   0.63964   0.00000  Uiso   1.00
C1129  C     0.85903   0.86461   0.64514   0.00000  Uiso   1.00
C1130  C     0.80642   0.80259   0.35430   0.00000  Uiso   1.00
C1131  C     0.91222   0.71300   0.41655   0.00000  Uiso   1.00
C1132  C     0.70861   0.97515   0.55222   0.00000  Uiso   1.00
C1133  C     0.86455   0.93846   0.62467   0.00000  Uiso   1.00
C1134  C     0.83276   0.91312   0.49991   0.00000  Uiso   1.00
C1135  C     0.72279   0.77705   0.37360   0.00000  Uiso   1.00
C1136  C     0.73414   0.83337   0.48851   0.00000  Uiso   1.00
C1137  C     0.93256   0.83311   0.51152   0.00000  Uiso   1.00
C1138  C     0.68031   0.83974   0.48347   0.00000  Uiso   1.00
C1139  C     0.98647   0.82676   0.51666   0.00000  Uiso   1.00
C1140  C     0.87279   0.68872   0.48120   0.00000  Uiso   1.00
C1141  C     0.79167   0.97768   0.51807   0.00000  Uiso   1.00
C1142  C     0.87139   0.97879   0.48151   0.00000  Uiso   1.00
H1143  H     0.90187   0.96193   0.46833   0.00000  Uiso   1.00
H1144  H     0.87489   0.72618   0.40126   0.00000  Uiso   1.00
H1145  H     0.73870   0.92636   0.51785   0.00000  Uiso   1.00
H1146  H     0.68647   0.99348   0.52479   0.00000  Uiso   1.00
H1147  H     0.72433   0.99605   0.58100   0.00000  Uiso   1.00
H1148  H     0.68157   0.95154   0.56488   0.00000  Uiso   1.00
H1149  H     0.92768   0.89847   0.37531   0.00000  Uiso   1.00
H1150  H     0.89872   0.88741   0.41906   0.00000  Uiso   1.00
H1151  H     0.74285   0.76697   0.61683   0.00000  Uiso   1.00
H1152  H     0.79881   0.74034   0.62319   0.00000  Uiso   1.00
H1153  H     0.92573   0.89696   0.63162   0.00000  Uiso   1.00
H1154  H     0.76493   0.70583   0.53219   0.00000  Uiso   1.00
H1155  H     0.87403   0.95296   0.65871   0.00000  Uiso   1.00
H1156  H     0.82162   0.93680   0.61519   0.00000  Uiso   1.00
H1157  H     0.88169   0.95904   0.60002   0.00000  Uiso   1.00
H1158  H     0.78636   0.74038   0.36697   0.00000  Uiso   1.00
H1159  H     0.71066   0.76789   0.40667   0.00000  Uiso   1.00
H1160  H     0.70026   0.75686   0.34705   0.00000  Uiso   1.00
H1161  H     0.71301   0.81042   0.36665   0.00000  Uiso   1.00
H1162  H     0.99575   0.84846   0.41580   0.00000  Uiso   1.00
H1163  H     0.67909   0.89315   0.44590   0.00000  Uiso   1.00
H1164  H     0.67048   0.81824   0.58447   0.00000  Uiso   1.00
H1165  H     0.98834   0.77340   0.55432   0.00000  Uiso   1.00
H1166  H     0.95078   0.70186   0.48038   0.00000  Uiso   1.00
H1167  H     0.91587   0.68101   0.40257   0.00000  Uiso   1.00
H1168  H     0.94448   0.73364   0.40728   0.00000  Uiso   1.00
N1169  N     0.83332   0.83332   0.61907   0.00000  Uiso   1.00
N1170  N     0.77804   0.77071   0.37499   0.00000  Uiso   1.00
N1171  N     0.83335   0.83334   0.38093   0.00000  Uiso   1.00
N1172  N     0.99156   0.86443   0.44564   0.00000  Uiso   1.00
N1173  N     0.67543   0.80235   0.55472   0.00000  Uiso   1.00
N1174  N     0.91497   0.71140   0.46531   0.00000  Uiso   1.00
N1175  N     0.75046   0.95385   0.53508   0.00000  Uiso   1.00
N1176  N     0.89081   0.89649   0.38574   0.00000  Uiso   1.00
N1177  N     0.78201   0.76864   0.61229   0.00000  Uiso   1.00
N1178  N     0.88583   0.89694   0.62362   0.00000  Uiso   1.00
O1179  O     0.83333   0.77225   0.53821   0.00000  Uiso   1.00
O1180  O     0.83334   0.89442   0.46179   0.00000  Uiso   1.00
O1181  O     0.83333   0.77226   0.46176   0.00000  Uiso   1.00
O1182  O     0.83334   0.89441   0.53824   0.00000  Uiso   1.00
O1183  O     0.75725   0.83333   0.52928   0.00000  Uiso   1.00
O1184  O     0.90942   0.83334   0.47072   0.00000  Uiso   1.00
O1185  O     0.75725   0.83334   0.45284   0.00000  Uiso   1.00
O1186  O     0.90942   0.83333   0.54716   0.00000  Uiso   1.00
Zn1187 Zn    0.83333   0.83333   0.55104   0.00000  Uiso   1.00
Zn1188 Zn    0.83333   0.83334   0.44896   0.00000  Uiso   1.00
C1189  C     0.16729   0.08687   0.83339   0.00000  Uiso   1.00
C1190  C     0.12749   0.02132   0.85193   0.00000  Uiso   1.00
C1191  C     0.16466   0.29059   0.83291   0.00000  Uiso   1.00
C1192  C     0.16730   0.04270   0.83332   0.00000  Uiso   1.00
C1193  C     0.19412   0.19727   0.69327   0.00000  Uiso   1.00
C1194  C     0.14092   0.13537   0.97298   0.00000  Uiso   1.00
C1195  C     0.19236   0.19794   0.97847   0.00000  Uiso   1.00
C1196  C     0.13975   0.13593   0.68764   0.00000  Uiso   1.00
C1197  C     0.24556   0.04633   0.74989   0.00000  Uiso   1.00
C1198  C     0.04195   0.30849   0.88556   0.00000  Uiso   1.00
C1199  C     0.19788   0.27179   0.95800   0.00000  Uiso   1.00
C1200  C     0.16609   0.24646   0.83325   0.00000  Uiso   1.00
C1201  C     0.05613   0.11038   0.70693   0.00000  Uiso   1.00
C1202  C     0.06747   0.16670   0.82184   0.00000  Uiso   1.00
C1203  C     0.26589   0.16644   0.84485   0.00000  Uiso   1.00
C1204  C     0.01365   0.17307   0.81681   0.00000  Uiso   1.00
C1205  C     0.31981   0.16009   0.84999   0.00000  Uiso   1.00
C1206  C     0.20613   0.02205   0.81454   0.00000  Uiso   1.00
C1207  C     0.12500   0.31101   0.85140   0.00000  Uiso   1.00
C1208  C     0.20473   0.31212   0.81484   0.00000  Uiso   1.00
H1209  H     0.23520   0.29527   0.80167   0.00000  Uiso   1.00
H1210  H     0.20822   0.05952   0.73459   0.00000  Uiso   1.00
H1211  H     0.07203   0.25970   0.85118   0.00000  Uiso   1.00
H1212  H     0.01981   0.32681   0.85813   0.00000  Uiso   1.00
H1213  H     0.05766   0.32938   0.91433   0.00000  Uiso   1.00
H1214  H     0.01490   0.28487   0.89822   0.00000  Uiso   1.00
H1215  H     0.26101   0.23181   0.70865   0.00000  Uiso   1.00
H1216  H     0.23205   0.22074   0.75240   0.00000  Uiso   1.00
H1217  H     0.07618   0.10030   0.95016   0.00000  Uiso   1.00
H1218  H     0.13215   0.07367   0.95652   0.00000  Uiso   1.00
H1219  H     0.25907   0.23029   0.96495   0.00000  Uiso   1.00
H1220  H     0.09826   0.03917   0.86552   0.00000  Uiso   1.00
H1221  H     0.20737   0.28629   0.99204   0.00000  Uiso   1.00
H1222  H     0.15496   0.27014   0.94853   0.00000  Uiso   1.00
H1223  H     0.21503   0.29237   0.93336   0.00000  Uiso   1.00
H1224  H     0.11969   0.07371   0.70030   0.00000  Uiso   1.00
H1225  H     0.04399   0.10123   0.74000   0.00000  Uiso   1.00
H1226  H     0.03359   0.09019   0.68039   0.00000  Uiso   1.00
H1227  H     0.04634   0.14375   0.69998   0.00000  Uiso   1.00
H1228  H     0.32908   0.18179   0.74913   0.00000  Uiso   1.00
H1229  H     0.01242   0.22649   0.77923   0.00000  Uiso   1.00
H1230  H     0.00382   0.15157   0.91780   0.00000  Uiso   1.00
H1231  H     0.32167   0.10674   0.88765   0.00000  Uiso   1.00
H1232  H     0.28411   0.03519   0.81372   0.00000  Uiso   1.00
H1233  H     0.24920   0.01434   0.73591   0.00000  Uiso   1.00
H1234  H     0.27782   0.06697   0.74061   0.00000  Uiso   1.00
N1235  N     0.16665   0.16666   0.95240   0.00000  Uiso   1.00
N1236  N     0.11137   0.10404   0.70832   0.00000  Uiso   1.00
N1237  N     0.16668   0.16668   0.71427   0.00000  Uiso   1.00
N1238  N     0.32489   0.19776   0.77898   0.00000  Uiso   1.00
N1239  N     0.00876   0.13568   0.88805   0.00000  Uiso   1.00
N1240  N     0.24830   0.04473   0.79865   0.00000  Uiso   1.00
N1241  N     0.08379   0.28718   0.86841   0.00000  Uiso   1.00
N1242  N     0.22415   0.22982   0.71907   0.00000  Uiso   1.00
N1243  N     0.11534   0.10197   0.94562   0.00000  Uiso   1.00
N1244  N     0.21916   0.23028   0.95695   0.00000  Uiso   1.00
O1245  O     0.16666   0.10558   0.87154   0.00000  Uiso   1.00
O1246  O     0.16667   0.22775   0.79513   0.00000  Uiso   1.00
O1247  O     0.16666   0.10559   0.79510   0.00000  Uiso   1.00
O1248  O     0.16667   0.22774   0.87157   0.00000  Uiso   1.00
O1249  O     0.09058   0.16666   0.86261   0.00000  Uiso   1.00
O1250  O     0.24275   0.16667   0.80405   0.00000  Uiso   1.00
O1251  O     0.09058   0.16667   0.78617   0.00000  Uiso   1.00
O1252  O     0.24275   0.16666   0.88050   0.00000  Uiso   1.00
Zn1253 Zn    0.16667   0.16666   0.88437   0.00000  Uiso   1.00
Zn1254 Zn    0.16667   0.16667   0.78229   0.00000  Uiso   1.00
C1255  C     0.50062   0.08687   0.83339   0.00000  Uiso   1.00
C1256  C     0.46083   0.02132   0.85193   0.00000  Uiso   1.00
C1257  C     0.49800   0.29059   0.83291   0.00000  Uiso   1.00
C1258  C     0.50064   0.04270   0.83332   0.00000  Uiso   1.00
C1259  C     0.52746   0.19727   0.69327   0.00000  Uiso   1.00
C1260  C     0.47425   0.13537   0.97298   0.00000  Uiso   1.00
C1261  C     0.52569   0.19794   0.97847   0.00000  Uiso   1.00
C1262  C     0.47309   0.13593   0.68764   0.00000  Uiso   1.00
C1263  C     0.57889   0.04633   0.74989   0.00000  Uiso   1.00
C1264  C     0.37528   0.30849   0.88556   0.00000  Uiso   1.00
C1265  C     0.53122   0.27179   0.95800   0.00000  Uiso   1.00
C1266  C     0.49942   0.24646   0.83325   0.00000  Uiso   1.00
C1267  C     0.38946   0.11038   0.70693   0.00000  Uiso   1.00
C1268  C     0.40081   0.16670   0.82184   0.00000  Uiso   1.00
C1269  C     0.59922   0.16644   0.84485   0.00000  Uiso   1.00
C1270  C     0.34698   0.17307   0.81681   0.00000  Uiso   1.00
C1271  C     0.65314   0.16009   0.84999   0.00000  Uiso   1.00
C1272  C     0.53946   0.02205   0.81454   0.00000  Uiso   1.00
C1273  C     0.45833   0.31101   0.85140   0.00000  Uiso   1.00
C1274  C     0.53806   0.31212   0.81484   0.00000  Uiso   1.00
H1275  H     0.56853   0.29527   0.80167   0.00000  Uiso   1.00
H1276  H     0.54156   0.05952   0.73459   0.00000  Uiso   1.00
H1277  H     0.40537   0.25970   0.85118   0.00000  Uiso   1.00
H1278  H     0.35314   0.32681   0.85813   0.00000  Uiso   1.00
H1279  H     0.39100   0.32938   0.91433   0.00000  Uiso   1.00
H1280  H     0.34824   0.28487   0.89822   0.00000  Uiso   1.00
H1281  H     0.59434   0.23181   0.70865   0.00000  Uiso   1.00
H1282  H     0.56539   0.22074   0.75240   0.00000  Uiso   1.00
H1283  H     0.40952   0.10030   0.95016   0.00000  Uiso   1.00
H1284  H     0.46548   0.07367   0.95652   0.00000  Uiso   1.00
H1285  H     0.59240   0.23029   0.96495   0.00000  Uiso   1.00
H1286  H     0.43160   0.03917   0.86552   0.00000  Uiso   1.00
H1287  H     0.54070   0.28629   0.99204   0.00000  Uiso   1.00
H1288  H     0.48829   0.27014   0.94853   0.00000  Uiso   1.00
H1289  H     0.54836   0.29237   0.93336   0.00000  Uiso   1.00
H1290  H     0.45303   0.07371   0.70030   0.00000  Uiso   1.00
H1291  H     0.37732   0.10123   0.74000   0.00000  Uiso   1.00
H1292  H     0.36693   0.09019   0.68039   0.00000  Uiso   1.00
H1293  H     0.37968   0.14375   0.69998   0.00000  Uiso   1.00
H1294  H     0.66241   0.18179   0.74913   0.00000  Uiso   1.00
H1295  H     0.34576   0.22649   0.77923   0.00000  Uiso   1.00
H1296  H     0.33715   0.15157   0.91780   0.00000  Uiso   1.00
H1297  H     0.65500   0.10674   0.88765   0.00000  Uiso   1.00
H1298  H     0.61744   0.03519   0.81372   0.00000  Uiso   1.00
H1299  H     0.58254   0.01434   0.73591   0.00000  Uiso   1.00
H1300  H     0.61115   0.06697   0.74061   0.00000  Uiso   1.00
N1301  N     0.49999   0.16666   0.95240   0.00000  Uiso   1.00
N1302  N     0.44470   0.10404   0.70832   0.00000  Uiso   1.00
N1303  N     0.50001   0.16668   0.71427   0.00000  Uiso   1.00
N1304  N     0.65822   0.19776   0.77898   0.00000  Uiso   1.00
N1305  N     0.34209   0.13568   0.88805   0.00000  Uiso   1.00
N1306  N     0.58164   0.04473   0.79865   0.00000  Uiso   1.00
N1307  N     0.41712   0.28718   0.86841   0.00000  Uiso   1.00
N1308  N     0.55748   0.22982   0.71907   0.00000  Uiso   1.00
N1309  N     0.44868   0.10197   0.94562   0.00000  Uiso   1.00
N1310  N     0.55250   0.23028   0.95695   0.00000  Uiso   1.00
O1311  O     0.50000   0.10558   0.87154   0.00000  Uiso   1.00
O1312  O     0.50000   0.22775   0.79513   0.00000  Uiso   1.00
O1313  O     0.50000   0.10559   0.79510   0.00000  Uiso   1.00
O1314  O     0.50000   0.22774   0.87157   0.00000  Uiso   1.00
O1315  O     0.42392   0.16666   0.86261   0.00000  Uiso   1.00
O1316  O     0.57608   0.16667   0.80405   0.00000  Uiso   1.00
O1317  O     0.42392   0.16667   0.78617   0.00000  Uiso   1.00
O1318  O     0.57608   0.16666   0.88050   0.00000  Uiso   1.00
Zn1319 Zn    0.50000   0.16666   0.88437   0.00000  Uiso   1.00
Zn1320 Zn    0.50000   0.16667   0.78229   0.00000  Uiso   1.00
C1321  C     0.83395   0.08687   0.83339   0.00000  Uiso   1.00
C1322  C     0.79416   0.02132   0.85193   0.00000  Uiso   1.00
C1323  C     0.83133   0.29059   0.83291   0.00000  Uiso   1.00
C1324  C     0.83397   0.04270   0.83332   0.00000  Uiso   1.00
C1325  C     0.86079   0.19727   0.69327   0.00000  Uiso   1.00
C1326  C     0.80759   0.13537   0.97298   0.00000  Uiso   1.00
C1327  C     0.85903   0.19794   0.97847   0.00000  Uiso   1.00
C1328  C     0.80642   0.13593   0.68764   0.00000  Uiso   1.00
C1329  C     0.91222   0.04633   0.74989   0.00000  Uiso   1.00
C1330  C     0.70861   0.30849   0.88556   0.00000  Uiso   1.00
C1331  C     0.86455   0.27179   0.95800   0.00000  Uiso   1.00
C1332  C     0.83276   0.24646   0.83325   0.00000  Uiso   1.00
C1333  C     0.72279   0.11038   0.70693   0.00000  Uiso   1.00
C1334  C     0.73414   0.16670   0.82184   0.00000  Uiso   1.00
C1335  C     0.93256   0.16644   0.84485   0.00000  Uiso   1.00
C1336  C     0.68031   0.17307   0.81681   0.00000  Uiso   1.00
C1337  C     0.98647   0.16009   0.84999   0.00000  Uiso   1.00
C1338  C     0.87279   0.02205   0.81454   0.00000  Uiso   1.00
C1339  C     0.79167   0.31101   0.85140   0.00000  Uiso   1.00
C1340  C     0.87139   0.31212   0.81484   0.00000  Uiso   1.00
H1341  H     0.90187   0.29527   0.80167   0.00000  Uiso   1.00
H1342  H     0.87489   0.05952   0.73459   0.00000  Uiso   1.00
H1343  H     0.73870   0.25970   0.85118   0.00000  Uiso   1.00
H1344  H     0.68647   0.32681   0.85813   0.00000  Uiso   1.00
H1345  H     0.72433   0.32938   0.91433   0.00000  Uiso   1.00
H1346  H     0.68157   0.28487   0.89822   0.00000  Uiso   1.00
H1347  H     0.92768   0.23181   0.70865   0.00000  Uiso   1.00
H1348  H     0.89872   0.22074   0.75240   0.00000  Uiso   1.00
H1349  H     0.74285   0.10030   0.95016   0.00000  Uiso   1.00
H1350  H     0.79881   0.07367   0.95652   0.00000  Uiso   1.00
H1351  H     0.92573   0.23029   0.96495   0.00000  Uiso   1.00
H1352  H     0.76493   0.03917   0.86552   0.00000  Uiso   1.00
H1353  H     0.87403   0.28629   0.99204   0.00000  Uiso   1.00
H1354  H     0.82162   0.27014   0.94853   0.00000  Uiso   1.00
H1355  H     0.88169   0.29237   0.93336   0.00000  Uiso   1.00
H1356  H     0.78636   0.07371   0.70030   0.00000  Uiso   1.00
H1357  H     0.71066   0.10123   0.74000   0.00000  Uiso   1.00
H1358  H     0.70026   0.09019   0.68039   0.00000  Uiso   1.00
H1359  H     0.71301   0.14375   0.69998   0.00000  Uiso   1.00
H1360  H     0.99575   0.18179   0.74913   0.00000  Uiso   1.00
H1361  H     0.67909   0.22649   0.77923   0.00000  Uiso   1.00
H1362  H     0.67048   0.15157   0.91780   0.00000  Uiso   1.00
H1363  H     0.98834   0.10674   0.88765   0.00000  Uiso   1.00
H1364  H     0.95078   0.03519   0.81372   0.00000  Uiso   1.00
H1365  H     0.91587   0.01434   0.73591   0.00000  Uiso   1.00
H1366  H     0.94448   0.06697   0.74061   0.00000  Uiso   1.00
N1367  N     0.83332   0.16666   0.95240   0.00000  Uiso   1.00
N1368  N     0.77804   0.10404   0.70832   0.00000  Uiso   1.00
N1369  N     0.83335   0.16668   0.71427   0.00000  Uiso   1.00
N1370  N     0.99156   0.19776   0.77898   0.00000  Uiso   1.00
N1371  N     0.67543   0.13568   0.88805   0.00000  Uiso   1.00
N1372  N     0.91497   0.04473   0.79865   0.00000  Uiso   1.00
N1373  N     0.75046   0.28718   0.86841   0.00000  Uiso   1.00
N1374  N     0.89081   0.22982   0.71907   0.00000  Uiso   1.00
N1375  N     0.78201   0.10197   0.94562   0.00000  Uiso   1.00
N1376  N     0.88583   0.23028   0.95695   0.00000  Uiso   1.00
O1377  O     0.83333   0.10558   0.87154   0.00000  Uiso   1.00
O1378  O     0.83334   0.22775   0.79513   0.00000  Uiso   1.00
O1379  O     0.83333   0.10559   0.79510   0.00000  Uiso   1.00
O1380  O     0.83334   0.22774   0.87157   0.00000  Uiso   1.00
O1381  O     0.75725   0.16666   0.86261   0.00000  Uiso   1.00
O1382  O     0.90942   0.16667   0.80405   0.00000  Uiso   1.00
O1383  O     0.75725   0.16667   0.78617   0.00000  Uiso   1.00
O1384  O     0.90942   0.16666   0.88050   0.00000  Uiso   1.00
Zn1385 Zn    0.83333   0.16666   0.88437   0.00000  Uiso   1.00
Zn1386 Zn    0.83333   0.16667   0.78229   0.00000  Uiso   1.00
C1387  C     0.16729   0.42021   0.83339   0.00000  Uiso   1.00
C1388  C     0.12749   0.35465   0.85193   0.00000  Uiso   1.00
C1389  C     0.16466   0.62392   0.83291   0.00000  Uiso   1.00
C1390  C     0.16730   0.37603   0.83332   0.00000  Uiso   1.00
C1391  C     0.19412   0.53060   0.69327   0.00000  Uiso   1.00
C1392  C     0.14092   0.46871   0.97298   0.00000  Uiso   1.00
C1393  C     0.19236   0.53128   0.97847   0.00000  Uiso   1.00
C1394  C     0.13975   0.46926   0.68764   0.00000  Uiso   1.00
C1395  C     0.24556   0.37966   0.74989   0.00000  Uiso   1.00
C1396  C     0.04195   0.64182   0.88556   0.00000  Uiso   1.00
C1397  C     0.19788   0.60512   0.95800   0.00000  Uiso   1.00
C1398  C     0.16609   0.57979   0.83325   0.00000  Uiso   1.00
C1399  C     0.05613   0.44371   0.70693   0.00000  Uiso   1.00
C1400  C     0.06747   0.50003   0.82184   0.00000  Uiso   1.00
C1401  C     0.26589   0.49978   0.84485   0.00000  Uiso   1.00
C1402  C     0.01365   0.50641   0.81681   0.00000  Uiso   1.00
C1403  C     0.31981   0.49342   0.84999   0.00000  Uiso   1.00
C1404  C     0.20613   0.35538   0.81454   0.00000  Uiso   1.00
C1405  C     0.12500   0.64434   0.85140   0.00000  Uiso   1.00
C1406  C     0.20473   0.64545   0.81484   0.00000  Uiso   1.00
H1407  H     0.23520   0.62860   0.80167   0.00000  Uiso   1.00
H1408  H     0.20822   0.39285   0.73459   0.00000  Uiso   1.00
H1409  H     0.07203   0.59303   0.85118   0.00000  Uiso   1.00
H1410  H     0.01981   0.66015   0.85813   0.00000  Uiso   1.00
H1411  H     0.05766   0.66271   0.91433   0.00000  Uiso   1.00
H1412  H     0.01490   0.61820   0.89822   0.00000  Uiso   1.00
H1413  H     0.26101   0.56514   0.70865   0.00000  Uiso   1.00
H1414  H     0.23205   0.55408   0.75240   0.00000  Uiso   1.00
H1415  H     0.07618   0.43364   0.95016   0.00000  Uiso   1.00
H1416  H     0.13215   0.40701   0.95652   0.00000  Uiso   1.00
H1417  H     0.25907   0.56363   0.96495   0.00000  Uiso   1.00
H1418  H     0.09826   0.37250   0.86552   0.00000  Uiso   1.00
H1419  H     0.20737   0.61963   0.99204   0.00000  Uiso   1.00
H1420  H     0.15496   0.60347   0.94853   0.00000  Uiso   1.00
H1421  H     0.21503   0.62571   0.93336   0.00000  Uiso   1.00
H1422  H     0.11969   0.40704   0.70030   0.00000  Uiso   1.00
H1423  H     0.04399   0.43456   0.74000   0.00000  Uiso   1.00
H1424  H     0.03359   0.42353   0.68039   0.00000  Uiso   1.00
H1425  H     0.04634   0.47709   0.69998   0.00000  Uiso   1.00
H1426  H     0.32908   0.51513   0.74913   0.00000  Uiso   1.00
H1427  H     0.01242   0.55982   0.77923   0.00000  Uiso   1.00
H1428  H     0.00382   0.48490   0.91780   0.00000  Uiso   1.00
H1429  H     0.32167   0.44007   0.88765   0.00000  Uiso   1.00
H1430  H     0.28411   0.36852   0.81372   0.00000  Uiso   1.00
H1431  H     0.24920   0.34767   0.73591   0.00000  Uiso   1.00
H1432  H     0.27782   0.40031   0.74061   0.00000  Uiso   1.00
N1433  N     0.16665   0.49999   0.95240   0.00000  Uiso   1.00
N1434  N     0.11137   0.43737   0.70832   0.00000  Uiso   1.00
N1435  N     0.16668   0.50001   0.71427   0.00000  Uiso   1.00
N1436  N     0.32489   0.53109   0.77898   0.00000  Uiso   1.00
N1437  N     0.00876   0.46901   0.88805   0.00000  Uiso   1.00
N1438  N     0.24830   0.37807   0.79865   0.00000  Uiso   1.00
N1439  N     0.08379   0.62051   0.86841   0.00000  Uiso   1.00
N1440  N     0.22415   0.56315   0.71907   0.00000  Uiso   1.00
N1441  N     0.11534   0.43530   0.94562   0.00000  Uiso   1.00
N1442  N     0.21916   0.56361   0.95695   0.00000  Uiso   1.00
O1443  O     0.16666   0.43892   0.87154   0.00000  Uiso   1.00
O1444  O     0.16667   0.56108   0.79513   0.00000  Uiso   1.00
O1445  O     0.16666   0.43893   0.79510   0.00000  Uiso   1.00
O1446  O     0.16667   0.56107   0.87157   0.00000  Uiso   1.00
O1447  O     0.09058   0.50000   0.86261   0.00000  Uiso   1.00
O1448  O     0.24275   0.50000   0.80405   0.00000  Uiso   1.00
O1449  O     0.09058   0.50000   0.78617   0.00000  Uiso   1.00
O1450  O     0.24275   0.50000   0.88050   0.00000  Uiso   1.00
Zn1451 Zn    0.16667   0.49999   0.88437   0.00000  Uiso   1.00
Zn1452 Zn    0.16667   0.50001   0.78229   0.00000  Uiso   1.00
C1453  C     0.50062   0.42021   0.83339   0.00000  Uiso   1.00
C1454  C     0.46083   0.35465   0.85193   0.00000  Uiso   1.00
C1455  C     0.49800   0.62392   0.83291   0.00000  Uiso   1.00
C1456  C     0.50064   0.37603   0.83332   0.00000  Uiso   1.00
C1457  C     0.52746   0.53060   0.69327   0.00000  Uiso   1.00
C1458  C     0.47425   0.46871   0.97298   0.00000  Uiso   1.00
C1459  C     0.52569   0.53128   0.97847   0.00000  Uiso   1.00
C1460  C     0.47309   0.46926   0.68764   0.00000  Uiso   1.00
C1461  C     0.57889   0.37966   0.74989   0.00000  Uiso   1.00
C1462  C     0.37528   0.64182   0.88556   0.00000  Uiso   1.00
C1463  C     0.53122   0.60512   0.95800   0.00000  Uiso   1.00
C1464  C     0.49942   0.57979   0.83325   0.00000  Uiso   1.00
C1465  C     0.38946   0.44371   0.70693   0.00000  Uiso   1.00
C1466  C     0.40081   0.50003   0.82184   0.00000  Uiso   1.00
C1467  C     0.59922   0.49978   0.84485   0.00000  Uiso   1.00
C1468  C     0.34698   0.50641   0.81681   0.00000  Uiso   1.00
C1469  C     0.65314   0.49342   0.84999   0.00000  Uiso   1.00
C1470  C     0.53946   0.35538   0.81454   0.00000  Uiso   1.00
C1471  C     0.45833   0.64434   0.85140   0.00000  Uiso   1.00
C1472  C     0.53806   0.64545   0.81484   0.00000  Uiso   1.00
H1473  H     0.56853   0.62860   0.80167   0.00000  Uiso   1.00
H1474  H     0.54156   0.39285   0.73459   0.00000  Uiso   1.00
H1475  H     0.40537   0.59303   0.85118   0.00000  Uiso   1.00
H1476  H     0.35314   0.66015   0.85813   0.00000  Uiso   1.00
H1477  H     0.39100   0.66271   0.91433   0.00000  Uiso   1.00
H1478  H     0.34824   0.61820   0.89822   0.00000  Uiso   1.00
H1479  H     0.59434   0.56514   0.70865   0.00000  Uiso   1.00
H1480  H     0.56539   0.55408   0.75240   0.00000  Uiso   1.00
H1481  H     0.40952   0.43364   0.95016   0.00000  Uiso   1.00
H1482  H     0.46548   0.40701   0.95652   0.00000  Uiso   1.00
H1483  H     0.59240   0.56363   0.96495   0.00000  Uiso   1.00
H1484  H     0.43160   0.37250   0.86552   0.00000  Uiso   1.00
H1485  H     0.54070   0.61963   0.99204   0.00000  Uiso   1.00
H1486  H     0.48829   0.60347   0.94853   0.00000  Uiso   1.00
H1487  H     0.54836   0.62571   0.93336   0.00000  Uiso   1.00
H1488  H     0.45303   0.40704   0.70030   0.00000  Uiso   1.00
H1489  H     0.37732   0.43456   0.74000   0.00000  Uiso   1.00
H1490  H     0.36693   0.42353   0.68039   0.00000  Uiso   1.00
H1491  H     0.37968   0.47709   0.69998   0.00000  Uiso   1.00
H1492  H     0.66241   0.51513   0.74913   0.00000  Uiso   1.00
H1493  H     0.34576   0.55982   0.77923   0.00000  Uiso   1.00
H1494  H     0.33715   0.48490   0.91780   0.00000  Uiso   1.00
H1495  H     0.65500   0.44007   0.88765   0.00000  Uiso   1.00
H1496  H     0.61744   0.36852   0.81372   0.00000  Uiso   1.00
H1497  H     0.58254   0.34767   0.73591   0.00000  Uiso   1.00
H1498  H     0.61115   0.40031   0.74061   0.00000  Uiso   1.00
N1499  N     0.49999   0.49999   0.95240   0.00000  Uiso   1.00
N1500  N     0.44470   0.43737   0.70832   0.00000  Uiso   1.00
N1501  N     0.50001   0.50001   0.71427   0.00000  Uiso   1.00
N1502  N     0.65822   0.53109   0.77898   0.00000  Uiso   1.00
N1503  N     0.34209   0.46901   0.88805   0.00000  Uiso   1.00
N1504  N     0.58164   0.37807   0.79865   0.00000  Uiso   1.00
N1505  N     0.41712   0.62051   0.86841   0.00000  Uiso   1.00
N1506  N     0.55748   0.56315   0.71907   0.00000  Uiso   1.00
N1507  N     0.44868   0.43530   0.94562   0.00000  Uiso   1.00
N1508  N     0.55250   0.56361   0.95695   0.00000  Uiso   1.00
O1509  O     0.50000   0.43892   0.87154   0.00000  Uiso   1.00
O1510  O     0.50000   0.56108   0.79513   0.00000  Uiso   1.00
O1511  O     0.50000   0.43893   0.79510   0.00000  Uiso   1.00
O1512  O     0.50000   0.56107   0.87157   0.00000  Uiso   1.00
O1513  O     0.42392   0.50000   0.86261   0.00000  Uiso   1.00
O1514  O     0.57608   0.50000   0.80405   0.00000  Uiso   1.00
O1515  O     0.42392   0.50000   0.78617   0.00000  Uiso   1.00
O1516  O     0.57608   0.50000   0.88050   0.00000  Uiso   1.00
Zn1517 Zn    0.50000   0.49999   0.88437   0.00000  Uiso   1.00
Zn1518 Zn    0.50000   0.50001   0.78229   0.00000  Uiso   1.00
C1519  C     0.83395   0.42021   0.83339   0.00000  Uiso   1.00
C1520  C     0.79416   0.35465   0.85193   0.00000  Uiso   1.00
C1521  C     0.83133   0.62392   0.83291   0.00000  Uiso   1.00
C1522  C     0.83397   0.37603   0.83332   0.00000  Uiso   1.00
C1523  C     0.86079   0.53060   0.69327   0.00000  Uiso   1.00
C1524  C     0.80759   0.46871   0.97298   0.00000  Uiso   1.00
C1525  C     0.85903   0.53128   0.97847   0.00000  Uiso   1.00
C1526  C     0.80642   0.46926   0.68764   0.00000  Uiso   1.00
C1527  C     0.91222   0.37966   0.74989   0.00000  Uiso   1.00
C1528  C     0.70861   0.64182   0.88556   0.00000  Uiso   1.00
C1529  C     0.86455   0.60512   0.95800   0.00000  Uiso   1.00
C1530  C     0.83276   0.57979   0.83325   0.00000  Uiso   1.00
C1531  C     0.72279   0.44371   0.70693   0.00000  Uiso   1.00
C1532  C     0.73414   0.50003   0.82184   0.00000  Uiso   1.00
C1533  C     0.93256   0.49978   0.84485   0.00000  Uiso   1.00
C1534  C     0.68031   0.50641   0.81681   0.00000  Uiso   1.00
C1535  C     0.98647   0.49342   0.84999   0.00000  Uiso   1.00
C1536  C     0.87279   0.35538   0.81454   0.00000  Uiso   1.00
C1537  C     0.79167   0.64434   0.85140   0.00000  Uiso   1.00
C1538  C     0.87139   0.64545   0.81484   0.00000  Uiso   1.00
H1539  H     0.90187   0.62860   0.80167   0.00000  Uiso   1.00
H1540  H     0.87489   0.39285   0.73459   0.00000  Uiso   1.00
H1541  H     0.73870   0.59303   0.85118   0.00000  Uiso   1.00
H1542  H     0.68647   0.66015   0.85813   0.00000  Uiso   1.00
H1543  H     0.72433   0.66271   0.91433   0.00000  Uiso   1.00
H1544  H     0.68157   0.61820   0.89822   0.00000  Uiso   1.00
H1545  H     0.92768   0.56514   0.70865   0.00000  Uiso   1.00
H1546  H     0.89872   0.55408   0.75240   0.00000  Uiso   1.00
H1547  H     0.74285   0.43364   0.95016   0.00000  Uiso   1.00
H1548  H     0.79881   0.40701   0.95652   0.00000  Uiso   1.00
H1549  H     0.92573   0.56363   0.96495   0.00000  Uiso   1.00
H1550  H     0.76493   0.37250   0.86552   0.00000  Uiso   1.00
H1551  H     0.87403   0.61963   0.99204   0.00000  Uiso   1.00
H1552  H     0.82162   0.60347   0.94853   0.00000  Uiso   1.00
H1553  H     0.88169   0.62571   0.93336   0.00000  Uiso   1.00
H1554  H     0.78636   0.40704   0.70030   0.00000  Uiso   1.00
H1555  H     0.71066   0.43456   0.74000   0.00000  Uiso   1.00
H1556  H     0.70026   0.42353   0.68039   0.00000  Uiso   1.00
H1557  H     0.71301   0.47709   0.69998   0.00000  Uiso   1.00
H1558  H     0.99575   0.51513   0.74913   0.00000  Uiso   1.00
H1559  H     0.67909   0.55982   0.77923   0.00000  Uiso   1.00
H1560  H     0.67048   0.48490   0.91780   0.00000  Uiso   1.00
H1561  H     0.98834   0.44007   0.88765   0.00000  Uiso   1.00
H1562  H     0.95078   0.36852   0.81372   0.00000  Uiso   1.00
H1563  H     0.91587   0.34767   0.73591   0.00000  Uiso   1.00
H1564  H     0.94448   0.40031   0.74061   0.00000  Uiso   1.00
N1565  N     0.83332   0.49999   0.95240   0.00000  Uiso   1.00
N1566  N     0.77804   0.43737   0.70832   0.00000  Uiso   1.00
N1567  N     0.83335   0.50001   0.71427   0.00000  Uiso   1.00
N1568  N     0.99156   0.53109   0.77898   0.00000  Uiso   1.00
N1569  N     0.67543   0.46901   0.88805   0.00000  Uiso   1.00
N1570  N     0.91497   0.37807   0.79865   0.00000  Uiso   1.00
N1571  N     0.75046   0.62051   0.86841   0.00000  Uiso   1.00
N1572  N     0.89081   0.56315   0.71907   0.00000  Uiso   1.00
N1573  N     0.78201   0.43530   0.94562   0.00000  Uiso   1.00
N1574  N     0.88583   0.56361   0.95695   0.00000  Uiso   1.00
O1575  O     0.83333   0.43892   0.87154   0.00000  Uiso   1.00
O1576  O     0.83334   0.56108   0.79513   0.00000  Uiso   1.00
O1577  O     0.83333   0.43893   0.79510   0.00000  Uiso   1.00
O1578  O     0.83334   0.56107   0.87157   0.00000  Uiso   1.00
O1579  O     0.75725   0.50000   0.86261   0.00000  Uiso   1.00
O1580  O     0.90942   0.50000   0.80405   0.00000  Uiso   1.00
O1581  O     0.75725   0.50000   0.78617   0.00000  Uiso   1.00
O1582  O     0.90942   0.50000   0.88050   0.00000  Uiso   1.00
Zn1583 Zn    0.83333   0.49999   0.88437   0.00000  Uiso   1.00
Zn1584 Zn    0.83333   0.50001   0.78229   0.00000  Uiso   1.00
C1585  C     0.16729   0.75354   0.83339   0.00000  Uiso   1.00
C1586  C     0.12749   0.68799   0.85193   0.00000  Uiso   1.00
C1587  C     0.16466   0.95725   0.83291   0.00000  Uiso   1.00
C1588  C     0.16730   0.70937   0.83332   0.00000  Uiso   1.00
C1589  C     0.19412   0.86394   0.69327   0.00000  Uiso   1.00
C1590  C     0.14092   0.80204   0.97298   0.00000  Uiso   1.00
C1591  C     0.19236   0.86461   0.97847   0.00000  Uiso   1.00
C1592  C     0.13975   0.80259   0.68764   0.00000  Uiso   1.00
C1593  C     0.24556   0.71300   0.74989   0.00000  Uiso   1.00
C1594  C     0.04195   0.97515   0.88556   0.00000  Uiso   1.00
C1595  C     0.19788   0.93846   0.95800   0.00000  Uiso   1.00
C1596  C     0.16609   0.91312   0.83325   0.00000  Uiso   1.00
C1597  C     0.05613   0.77705   0.70693   0.00000  Uiso   1.00
C1598  C     0.06747   0.83337   0.82184   0.00000  Uiso   1.00
C1599  C     0.26589   0.83311   0.84485   0.00000  Uiso   1.00
C1600  C     0.01365   0.83974   0.81681   0.00000  Uiso   1.00
C1601  C     0.31981   0.82676   0.84999   0.00000  Uiso   1.00
C1602  C     0.20613   0.68872   0.81454   0.00000  Uiso   1.00
C1603  C     0.12500   0.97768   0.85140   0.00000  Uiso   1.00
C1604  C     0.20473   0.97879   0.81484   0.00000  Uiso   1.00
H1605  H     0.23520   0.96193   0.80167   0.00000  Uiso   1.00
H1606  H     0.20822   0.72618   0.73459   0.00000  Uiso   1.00
H1607  H     0.07203   0.92636   0.85118   0.00000  Uiso   1.00
H1608  H     0.01981   0.99348   0.85813   0.00000  Uiso   1.00
H1609  H     0.05766   0.99605   0.91433   0.00000  Uiso   1.00
H1610  H     0.01490   0.95154   0.89822   0.00000  Uiso   1.00
H1611  H     0.26101   0.89847   0.70865   0.00000  Uiso   1.00
H1612  H     0.23205   0.88741   0.75240   0.00000  Uiso   1.00
H1613  H     0.07618   0.76697   0.95016   0.00000  Uiso   1.00
H1614  H     0.13215   0.74034   0.95652   0.00000  Uiso   1.00
H1615  H     0.25907   0.89696   0.96495   0.00000  Uiso   1.00
H1616  H     0.09826   0.70583   0.86552   0.00000  Uiso   1.00
H1617  H     0.20737   0.95296   0.99204   0.00000  Uiso   1.00
H1618  H     0.15496   0.93680   0.94853   0.00000  Uiso   1.00
H1619  H     0.21503   0.95904   0.93336   0.00000  Uiso   1.00
H1620  H     0.11969   0.74038   0.70030   0.00000  Uiso   1.00
H1621  H     0.04399   0.76789   0.74000   0.00000  Uiso   1.00
H1622  H     0.03359   0.75686   0.68039   0.00000  Uiso   1.00
H1623  H     0.04634   0.81042   0.69998   0.00000  Uiso   1.00
H1624  H     0.32908   0.84846   0.74913   0.00000  Uiso   1.00
H1625  H     0.01242   0.89315   0.77923   0.00000  Uiso   1.00
H1626  H     0.00382   0.81824   0.91780   0.00000  Uiso   1.00
H1627  H     0.32167   0.77340   0.88765   0.00000  Uiso   1.00
H1628  H     0.28411   0.70186   0.81372   0.00000  Uiso   1.00
H1629  H     0.24920   0.68101   0.73591   0.00000  Uiso   1.00
H1630  H     0.27782   0.73364   0.74061   0.00000  Uiso   1.00
N1631  N     0.16665   0.83332   0.95240   0.00000  Uiso   1.00
N1632  N     0.11137   0.77071   0.70832   0.00000  Uiso   1.00
N1633  N     0.16668   0.83334   0.71427   0.00000  Uiso   1.00
N1634  N     0.32489   0.86443   0.77898   0.00000  Uiso   1.00
N1635  N     0.00876   0.80235   0.88805   0.00000  Uiso   1.00
N1636  N     0.24830   0.71140   0.79865   0.00000  Uiso   1.00
N1637  N     0.08379   0.95385   0.86841   0.00000  Uiso   1.00
N1638  N     0.22415   0.89649   0.71907   0.00000  Uiso   1.00
N1639  N     0.11534   0.76864   0.94562   0.00000  Uiso   1.00
N1640  N     0.21916   0.89694   0.95695   0.00000  Uiso   1.00
O1641  O     0.16666   0.77225   0.87154   0.00000  Uiso   1.00
O1642  O     0.16667   0.89442   0.79513   0.00000  Uiso   1.00
O1643  O     0.16666   0.77226   0.79510   0.00000  Uiso   1.00
O1644  O     0.16667   0.89441   0.87157   0.00000  Uiso   1.00
O1645  O     0.09058   0.83333   0.86261   0.00000  Uiso   1.00
O1646  O     0.24275   0.83334   0.80405   0.00000  Uiso   1.00
O1647  O     0.09058   0.83334   0.78617   0.00000  Uiso   1.00
O1648  O     0.24275   0.83333   0.88050   0.00000  Uiso   1.00
Zn1649 Zn    0.16667   0.83333   0.88437   0.00000  Uiso   1.00
Zn1650 Zn    0.16667   0.83334   0.78229   0.00000  Uiso   1.00
C1651  C     0.50062   0.75354   0.83339   0.00000  Uiso   1.00
C1652  C     0.46083   0.68799   0.85193   0.00000  Uiso   1.00
C1653  C     0.49800   0.95725   0.83291   0.00000  Uiso   1.00
C1654  C     0.50064   0.70937   0.83332   0.00000  Uiso   1.00
C1655  C     0.52746   0.86394   0.69327   0.00000  Uiso   1.00
C1656  C     0.47425   0.80204   0.97298   0.00000  Uiso   1.00
C1657  C     0.52569   0.86461   0.97847   0.00000  Uiso   1.00
C1658  C     0.47309   0.80259   0.68764   0.00000  Uiso   1.00
C1659  C     0.57889   0.71300   0.74989   0.00000  Uiso   1.00
C1660  C     0.37528   0.97515   0.88556   0.00000  Uiso   1.00
C1661  C     0.53122   0.93846   0.95800   0.00000  Uiso   1.00
C1662  C     0.49942   0.91312   0.83325   0.00000  Uiso   1.00
C1663  C     0.38946   0.77705   0.70693   0.00000  Uiso   1.00
C1664  C     0.40081   0.83337   0.82184   0.00000  Uiso   1.00
C1665  C     0.59922   0.83311   0.84485   0.00000  Uiso   1.00
C1666  C     0.34698   0.83974   0.81681   0.00000  Uiso   1.00
C1667  C     0.65314   0.82676   0.84999   0.00000  Uiso   1.00
C1668  C     0.53946   0.68872   0.81454   0.00000  Uiso   1.00
C1669  C     0.45833   0.97768   0.85140   0.00000  Uiso   1.00
C1670  C     0.53806   0.97879   0.81484   0.00000  Uiso   1.00
H1671  H     0.56853   0.96193   0.80167   0.00000  Uiso   1.00
H1672  H     0.54156   0.72618   0.73459   0.00000  Uiso   1.00
H1673  H     0.40537   0.92636   0.85118   0.00000  Uiso   1.00
H1674  H     0.35314   0.99348   0.85813   0.00000  Uiso   1.00
H1675  H     0.39100   0.99605   0.91433   0.00000  Uiso   1.00
H1676  H     0.34824   0.95154   0.89822   0.00000  Uiso   1.00
H1677  H     0.59434   0.89847   0.70865   0.00000  Uiso   1.00
H1678  H     0.56539   0.88741   0.75240   0.00000  Uiso   1.00
H1679  H     0.40952   0.76697   0.95016   0.00000  Uiso   1.00
H1680  H     0.46548   0.74034   0.95652   0.00000  Uiso   1.00
H1681  H     0.59240   0.89696   0.96495   0.00000  Uiso   1.00
H1682  H     0.43160   0.70583   0.86552   0.00000  Uiso   1.00
H1683  H     0.54070   0.95296   0.99204   0.00000  Uiso   1.00
H1684  H     0.48829   0.93680   0.94853   0.00000  Uiso   1.00
H1685  H     0.54836   0.95904   0.93336   0.00000  Uiso   1.00
H1686  H     0.45303   0.74038   0.70030   0.00000  Uiso   1.00
H1687  H     0.37732   0.76789   0.74000   0.00000  Uiso   1.00
H1688  H     0.36693   0.75686   0.68039   0.00000  Uiso   1.00
H1689  H     0.37968   0.81042   0.69998   0.00000  Uiso   1.00
H1690  H     0.66241   0.84846   0.74913   0.00000  Uiso   1.00
H1691  H     0.34576   0.89315   0.77923   0.00000  Uiso   1.00
H1692  H     0.33715   0.81824   0.91780   0.00000  Uiso   1.00
H1693  H     0.65500   0.77340   0.88765   0.00000  Uiso   1.00
H1694  H     0.61744   0.70186   0.81372   0.00000  Uiso   1.00
H1695  H     0.58254   0.68101   0.73591   0.00000  Uiso   1.00
H1696  H     0.61115   0.73364   0.74061   0.00000  Uiso   1.00
N1697  N     0.49999   0.83332   0.95240   0.00000  Uiso   1.00
N1698  N     0.44470   0.77071   0.70832   0.00000  Uiso   1.00
N1699  N     0.50001   0.83334   0.71427   0.00000  Uiso   1.00
N1700  N     0.65822   0.86443   0.77898   0.00000  Uiso   1.00
N1701  N     0.34209   0.80235   0.88805   0.00000  Uiso   1.00
N1702  N     0.58164   0.71140   0.79865   0.00000  Uiso   1.00
N1703  N     0.41712   0.95385   0.86841   0.00000  Uiso   1.00
N1704  N     0.55748   0.89649   0.71907   0.00000  Uiso   1.00
N1705  N     0.44868   0.76864   0.94562   0.00000  Uiso   1.00
N1706  N     0.55250   0.89694   0.95695   0.00000  Uiso   1.00
O1707  O     0.50000   0.77225   0.87154   0.00000  Uiso   1.00
O1708  O     0.50000   0.89442   0.79513   0.00000  Uiso   1.00
O1709  O     0.50000   0.77226   0.79510   0.00000  Uiso   1.00
O1710  O     0.50000   0.89441   0.87157   0.00000  Uiso   1.00
O1711  O     0.42392   0.83333   0.86261   0.00000  Uiso   1.00
O1712  O     0.57608   0.83334   0.80405   0.00000  Uiso   1.00
O1713  O     0.42392   0.83334   0.78617   0.00000  Uiso   1.00
O1714  O     0.57608   0.83333   0.88050   0.00000  Uiso   1.00
Zn1715 Zn    0.50000   0.83333   0.88437   0.00000  Uiso   1.00
Zn1716 Zn    0.50000   0.83334   0.78229   0.00000  Uiso   1.00
C1717  C     0.83395   0.75354   0.83339   0.00000  Uiso   1.00
C1718  C     0.79416   0.68799   0.85193   0.00000  Uiso   1.00
C1719  C     0.83133   0.95725   0.83291   0.00000  Uiso   1.00
C1720  C     0.83397   0.70937   0.83332   0.00000  Uiso   1.00
C1721  C     0.86079   0.86394   0.69327   0.00000  Uiso   1.00
C1722  C     0.80759   0.80204   0.97298   0.00000  Uiso   1.00
C1723  C     0.85903   0.86461   0.97847   0.00000  Uiso   1.00
C1724  C     0.80642   0.80259   0.68764   0.00000  Uiso   1.00
C1725  C     0.91222   0.71300   0.74989   0.00000  Uiso   1.00
C1726  C     0.70861   0.97515   0.88556   0.00000  Uiso   1.00
C1727  C     0.86455   0.93846   0.95800   0.00000  Uiso   1.00
C1728  C     0.83276   0.91312   0.83325   0.00000  Uiso   1.00
C1729  C     0.72279   0.77705   0.70693   0.00000  Uiso   1.00
C1730  C     0.73414   0.83337   0.82184   0.00000  Uiso   1.00
C1731  C     0.93256   0.83311   0.84485   0.00000  Uiso   1.00
C1732  C     0.68031   0.83974   0.81681   0.00000  Uiso   1.00
C1733  C     0.98647   0.82676   0.84999   0.00000  Uiso   1.00
C1734  C     0.87279   0.68872   0.81454   0.00000  Uiso   1.00
C1735  C     0.79167   0.97768   0.85140   0.00000  Uiso   1.00
C1736  C     0.87139   0.97879   0.81484   0.00000  Uiso   1.00
H1737  H     0.90187   0.96193   0.80167   0.00000  Uiso   1.00
H1738  H     0.87489   0.72618   0.73459   0.00000  Uiso   1.00
H1739  H     0.73870   0.92636   0.85118   0.00000  Uiso   1.00
H1740  H     0.68647   0.99348   0.85813   0.00000  Uiso   1.00
H1741  H     0.72433   0.99605   0.91433   0.00000  Uiso   1.00
H1742  H     0.68157   0.95154   0.89822   0.00000  Uiso   1.00
H1743  H     0.92768   0.89847   0.70865   0.00000  Uiso   1.00
H1744  H     0.89872   0.88741   0.75240   0.00000  Uiso   1.00
H1745  H     0.74285   0.76697   0.95016   0.00000  Uiso   1.00
H1746  H     0.79881   0.74034   0.95652   0.00000  Uiso   1.00
H1747  H     0.92573   0.89696   0.96495   0.00000  Uiso   1.00
H1748  H     0.76493   0.70583   0.86552   0.00000  Uiso   1.00
H1749  H     0.87403   0.95296   0.99204   0.00000  Uiso   1.00
H1750  H     0.82162   0.93680   0.94853   0.00000  Uiso   1.00
H1751  H     0.88169   0.95904   0.93336   0.00000  Uiso   1.00
H1752  H     0.78636   0.74038   0.70030   0.00000  Uiso   1.00
H1753  H     0.71066   0.76789   0.74000   0.00000  Uiso   1.00
H1754  H     0.70026   0.75686   0.68039   0.00000  Uiso   1.00
H1755  H     0.71301   0.81042   0.69998   0.00000  Uiso   1.00
H1756  H     0.99575   0.84846   0.74913   0.00000  Uiso   1.00
H1757  H     0.67909   0.89315   0.77923   0.00000  Uiso   1.00
H1758  H     0.67048   0.81824   0.91780   0.00000  Uiso   1.00
H1759  H     0.98834   0.77340   0.88765   0.00000  Uiso   1.00
H1760  H     0.95078   0.70186   0.81372   0.00000  Uiso   1.00
H1761  H     0.91587   0.68101   0.73591   0.00000  Uiso   1.00
H1762  H     0.94448   0.73364   0.74061   0.00000  Uiso   1.00
N1763  N     0.83332   0.83332   0.95240   0.00000  Uiso   1.00
N1764  N     0.77804   0.77071   0.70832   0.00000  Uiso   1.00
N1765  N     0.83335   0.83334   0.71427   0.00000  Uiso   1.00
N1766  N     0.99156   0.86443   0.77898   0.00000  Uiso   1.00
N1767  N     0.67543   0.80235   0.88805   0.00000  Uiso   1.00
N1768  N     0.91497   0.71140   0.79865   0.00000  Uiso   1.00
N1769  N     0.75046   0.95385   0.86841   0.00000  Uiso   1.00
N1770  N     0.89081   0.89649   0.71907   0.00000  Uiso   1.00
N1771  N     0.78201   0.76864   0.94562   0.00000  Uiso   1.00
N1772  N     0.88583   0.89694   0.95695   0.00000  Uiso   1.00
O1773  O     0.83333   0.77225   0.87154   0.00000  Uiso   1.00
O1774  O     0.83334   0.89442   0.79513   0.00000  Uiso   1.00
O1775  O     0.83333   0.77226   0.79510   0.00000  Uiso   1.00
O1776  O     0.83334   0.89441   0.87157   0.00000  Uiso   1.00
O1777  O     0.75725   0.83333   0.86261   0.00000  Uiso   1.00
O1778  O     0.90942   0.83334   0.80405   0.00000  Uiso   1.00
O1779  O     0.75725   0.83334   0.78617   0.00000  Uiso   1.00
O1780  O     0.90942   0.83333   0.88050   0.00000  Uiso   1.00
Zn1781 Zn    0.83333   0.83333   0.88437   0.00000  Uiso   1.00
Zn1782 Zn    0.83333   0.83334   0.78229   0.00000  Uiso   1.00
loop_
_geom_bond_atom_site_label_1
_geom_bond_atom_site_label_2
_geom_bond_distance
_geom_bond_site_symmetry_2
_ccdc_geom_bond_type
C1     O57     1.286   .     A
C1     C4      1.405   .     S
C1     O59     1.285   .     A
C2     C4      1.394   .     A
C2     H32     1.083   .     S
C2     C415    1.387   1_545 S
C3     C20     1.393   .     A
C3     C19     1.407   .     A
C3     C12     1.405   .     S
C4     C18     1.398   .     A
C5     N49     1.384   .     A
C5     N54     1.435   .     S
C5     C1195   1.429   1_554 S
C6     N55     1.430   .     S
C6     N47     1.369   .     A
C6     C602    1.435   .     S
C7     N56     1.422   .     S
C7     N47     1.363   .     A
C7     C599    1.429   .     S
C8     N48     1.422   .     S
C8     N49     1.372   .     A
C8     C1194   1.435   1_554 S
C9     H45     1.112   .     S
C9     N52     1.446   .     S
C9     H22     1.109   .     S
C9     H46     1.110   .     S
C10    H26     1.111   .     S
C10    H25     1.111   .     S
C10    N53     1.448   .     S
C10    H24     1.110   .     S
C11    H35     1.110   .     S
C11    H33     1.109   .     S
C11    H34     1.111   .     S
C11    N56     1.450   .     S
C12    O58     1.285   .     A
C12    O60     1.286   .     A
C13    N48     1.449   .     S
C13    H37     1.110   .     S
C13    H38     1.110   .     S
C13    H39     1.112   .     S
C14    O63     1.288   .     A
C14    C16     1.406   .     S
C14    O61     1.281   .     A
C15    O64     1.288   .     A
C15    O62     1.282   .     A
C15    C17     1.408   .     S
C16    C149    1.346   1_455 S
C16    N182    1.439   1_455 S
C17    C82     1.346   .     S
C17    N117    1.441   .     S
C18    N52     1.424   .     S
C18    C416    1.375   1_545 S
C19    N53     1.437   .     S
C19    C200    1.387   .     S
C20    H21     1.085   .     S
C20    C216    1.375   .     S
H23    N53     1.031   .     S
H27    N54     1.044   .     S
H28    N54     1.030   .     S
H29    N55     1.042   .     S
H30    N55     1.045   .     S
H31    N56     1.031   .     S
H36    N48     1.031   .     S
H40    N50     1.045   .     S
H41    N182    1.046   1_455 S
H42    N51     1.046   .     S
H43    N117    1.046   .     S
H44    N52     1.031   .     S
N47    Zn65    2.027   .     S
N49    Zn66    2.027   .     S
N50    H107    1.046   .     S
N50    C82     1.439   .     S
N51    H175    1.046   1_455 S
N51    C149    1.441   1_455 S
O57    Zn65    1.980   .     S
O58    Zn66    1.980   .     S
O59    Zn66    1.979   .     S
O60    Zn65    1.979   .     S
O61    Zn65    1.994   .     S
O62    Zn66    1.994   .     S
O63    Zn66    1.993   .     S
O64    Zn65    1.993   .     S
C67    O123    1.286   .     A
C67    C70     1.405   .     S
C67    O125    1.285   .     A
C68    C70     1.394   .     A
C68    H98     1.083   .     S
C68    C481    1.387   1_545 S
C69    C86     1.393   .     A
C69    C85     1.407   .     A
C69    C78     1.405   .     S
C70    C84     1.398   .     A
C71    N115    1.384   .     A
C71    N120    1.435   .     S
C71    C1261   1.429   1_554 S
C72    N121    1.430   .     S
C72    N113    1.369   .     A
C72    C668    1.435   .     S
C73    N122    1.422   .     S
C73    N113    1.363   .     A
C73    C665    1.429   .     S
C74    N114    1.422   .     S
C74    N115    1.372   .     A
C74    C1260   1.435   1_554 S
C75    H111    1.112   .     S
C75    N118    1.446   .     S
C75    H88     1.109   .     S
C75    H112    1.110   .     S
C76    H92     1.111   .     S
C76    H91     1.111   .     S
C76    N119    1.448   .     S
C76    H90     1.110   .     S
C77    H101    1.110   .     S
C77    H99     1.109   .     S
C77    H100    1.111   .     S
C77    N122    1.450   .     S
C78    O124    1.285   .     A
C78    O126    1.286   .     A
C79    N114    1.449   .     S
C79    H103    1.110   .     S
C79    H104    1.110   .     S
C79    H105    1.112   .     S
C80    O129    1.288   .     A
C80    C82     1.406   .     S
C80    O127    1.281   .     A
C81    O130    1.288   .     A
C81    O128    1.282   .     A
C81    C83     1.408   .     S
C83    C148    1.346   .     S
C83    N183    1.441   .     S
C84    N118    1.424   .     S
C84    C482    1.375   1_545 S
C85    N119    1.437   .     S
C85    C266    1.387   .     S
C86    H87     1.085   .     S
C86    C282    1.375   .     S
H89    N119    1.031   .     S
H93    N120    1.044   .     S
H94    N120    1.030   .     S
H95    N121    1.042   .     S
H96    N121    1.045   .     S
H97    N122    1.031   .     S
H102   N114    1.031   .     S
H106   N116    1.045   .     S
H108   N117    1.046   .     S
H109   N183    1.046   .     S
H110   N118    1.031   .     S
N113   Zn131   2.027   .     S
N115   Zn132   2.027   .     S
N116   H173    1.046   .     S
N116   C148    1.439   .     S
O123   Zn131   1.980   .     S
O124   Zn132   1.980   .     S
O125   Zn132   1.979   .     S
O126   Zn131   1.979   .     S
O127   Zn131   1.994   .     S
O128   Zn132   1.994   .     S
O129   Zn132   1.993   .     S
O130   Zn131   1.993   .     S
C133   O189    1.286   .     A
C133   C136    1.405   .     S
C133   O191    1.285   .     A
C134   C136    1.394   .     A
C134   H164    1.083   .     S
C134   C547    1.387   1_545 S
C135   C152    1.393   .     A
C135   C151    1.407   .     A
C135   C144    1.405   .     S
C136   C150    1.398   .     A
C137   N181    1.384   .     A
C137   N186    1.435   .     S
C137   C1327   1.429   1_554 S
C138   N187    1.430   .     S
C138   N179    1.369   .     A
C138   C734    1.435   .     S
C139   N188    1.422   .     S
C139   N179    1.363   .     A
C139   C731    1.429   .     S
C140   N180    1.422   .     S
C140   N181    1.372   .     A
C140   C1326   1.435   1_554 S
C141   H177    1.112   .     S
C141   N184    1.446   .     S
C141   H154    1.109   .     S
C141   H178    1.110   .     S
C142   H158    1.111   .     S
C142   H157    1.111   .     S
C142   N185    1.448   .     S
C142   H156    1.110   .     S
C143   H167    1.110   .     S
C143   H165    1.109   .     S
C143   H166    1.111   .     S
C143   N188    1.450   .     S
C144   O190    1.285   .     A
C144   O192    1.286   .     A
C145   N180    1.449   .     S
C145   H169    1.110   .     S
C145   H170    1.110   .     S
C145   H171    1.112   .     S
C146   O195    1.288   .     A
C146   C148    1.406   .     S
C146   O193    1.281   .     A
C147   O196    1.288   .     A
C147   O194    1.282   .     A
C147   C149    1.408   .     S
C149   C16     1.346   1_655 S
C149   N51     1.441   1_655 S
C150   N184    1.424   .     S
C150   C548    1.375   1_545 S
C151   N185    1.437   .     S
C151   C332    1.387   .     S
C152   H153    1.085   .     S
C152   C348    1.375   .     S
H155   N185    1.031   .     S
H159   N186    1.044   .     S
H160   N186    1.030   .     S
H161   N187    1.042   .     S
H162   N187    1.045   .     S
H163   N188    1.031   .     S
H168   N180    1.031   .     S
H172   N182    1.045   .     S
H174   N183    1.046   .     S
H175   N51     1.046   1_655 S
H176   N184    1.031   .     S
N179   Zn197   2.027   .     S
N181   Zn198   2.027   .     S
N182   H41     1.046   1_655 S
N182   C16     1.439   1_655 S
O189   Zn197   1.980   .     S
O190   Zn198   1.980   .     S
O191   Zn198   1.979   .     S
O192   Zn197   1.979   .     S
O193   Zn197   1.994   .     S
O194   Zn198   1.994   .     S
O195   Zn198   1.993   .     S
O196   Zn197   1.993   .     S
C199   O255    1.286   .     A
C199   C202    1.405   .     S
C199   O257    1.285   .     A
C200   C202    1.394   .     A
C200   H230    1.083   .     S
C201   C218    1.393   .     A
C201   C217    1.407   .     A
C201   C210    1.405   .     S
C202   C216    1.398   .     A
C203   N247    1.384   .     A
C203   N252    1.435   .     S
C203   C1393   1.429   1_554 S
C204   N253    1.430   .     S
C204   N245    1.369   .     A
C204   C800    1.435   .     S
C205   N254    1.422   .     S
C205   N245    1.363   .     A
C205   C797    1.429   .     S
C206   N246    1.422   .     S
C206   N247    1.372   .     A
C206   C1392   1.435   1_554 S
C207   H243    1.112   .     S
C207   N250    1.446   .     S
C207   H220    1.109   .     S
C207   H244    1.110   .     S
C208   H224    1.111   .     S
C208   H223    1.111   .     S
C208   N251    1.448   .     S
C208   H222    1.110   .     S
C209   H233    1.110   .     S
C209   H231    1.109   .     S
C209   H232    1.111   .     S
C209   N254    1.450   .     S
C210   O256    1.285   .     A
C210   O258    1.286   .     A
C211   N246    1.449   .     S
C211   H235    1.110   .     S
C211   H236    1.110   .     S
C211   H237    1.112   .     S
C212   O261    1.288   .     A
C212   C214    1.406   .     S
C212   O259    1.281   .     A
C213   O262    1.288   .     A
C213   O260    1.282   .     A
C213   C215    1.408   .     S
C214   C347    1.346   1_455 S
C214   N380    1.439   1_455 S
C215   C280    1.346   .     S
C215   N315    1.441   .     S
C216   N250    1.424   .     S
C217   N251    1.437   .     S
C217   C398    1.387   .     S
C218   H219    1.085   .     S
C218   C414    1.375   .     S
H221   N251    1.031   .     S
H225   N252    1.044   .     S
H226   N252    1.030   .     S
H227   N253    1.042   .     S
H228   N253    1.045   .     S
H229   N254    1.031   .     S
H234   N246    1.031   .     S
H238   N248    1.045   .     S
H239   N380    1.046   1_455 S
H240   N249    1.046   .     S
H241   N315    1.046   .     S
H242   N250    1.031   .     S
N245   Zn263   2.027   .     S
N247   Zn264   2.027   .     S
N248   H305    1.046   .     S
N248   C280    1.439   .     S
N249   H373    1.046   1_455 S
N249   C347    1.441   1_455 S
O255   Zn263   1.980   .     S
O256   Zn264   1.980   .     S
O257   Zn264   1.979   .     S
O258   Zn263   1.979   .     S
O259   Zn263   1.994   .     S
O260   Zn264   1.994   .     S
O261   Zn264   1.993   .     S
O262   Zn263   1.993   .     S
C265   O321    1.286   .     A
C265   C268    1.405   .     S
C265   O323    1.285   .     A
C266   C268    1.394   .     A
C266   H296    1.083   .     S
C267   C284    1.393   .     A
C267   C283    1.407   .     A
C267   C276    1.405   .     S
C268   C282    1.398   .     A
C269   N313    1.384   .     A
C269   N318    1.435   .     S
C269   C1459   1.429   1_554 S
C270   N319    1.430   .     S
C270   N311    1.369   .     A
C270   C866    1.435   .     S
C271   N320    1.422   .     S
C271   N311    1.363   .     A
C271   C863    1.429   .     S
C272   N312    1.422   .     S
C272   N313    1.372   .     A
C272   C1458   1.435   1_554 S
C273   H309    1.112   .     S
C273   N316    1.446   .     S
C273   H286    1.109   .     S
C273   H310    1.110   .     S
C274   H290    1.111   .     S
C274   H289    1.111   .     S
C274   N317    1.448   .     S
C274   H288    1.110   .     S
C275   H299    1.110   .     S
C275   H297    1.109   .     S
C275   H298    1.111   .     S
C275   N320    1.450   .     S
C276   O322    1.285   .     A
C276   O324    1.286   .     A
C277   N312    1.449   .     S
C277   H301    1.110   .     S
C277   H302    1.110   .     S
C277   H303    1.112   .     S
C278   O327    1.288   .     A
C278   C280    1.406   .     S
C278   O325    1.281   .     A
C279   O328    1.288   .     A
C279   O326    1.282   .     A
C279   C281    1.408   .     S
C281   C346    1.346   .     S
C281   N381    1.441   .     S
C282   N316    1.424   .     S
C283   N317    1.437   .     S
C283   C464    1.387   .     S
C284   H285    1.085   .     S
C284   C480    1.375   .     S
H287   N317    1.031   .     S
H291   N318    1.044   .     S
H292   N318    1.030   .     S
H293   N319    1.042   .     S
H294   N319    1.045   .     S
H295   N320    1.031   .     S
H300   N312    1.031   .     S
H304   N314    1.045   .     S
H306   N315    1.046   .     S
H307   N381    1.046   .     S
H308   N316    1.031   .     S
N311   Zn329   2.027   .     S
N313   Zn330   2.027   .     S
N314   H371    1.046   .     S
N314   C346    1.439   .     S
O321   Zn329   1.980   .     S
O322   Zn330   1.980   .     S
O323   Zn330   1.979   .     S
O324   Zn329   1.979   .     S
O325   Zn329   1.994   .     S
O326   Zn330   1.994   .     S
O327   Zn330   1.993   .     S
O328   Zn329   1.993   .     S
C331   O387    1.286   .     A
C331   C334    1.405   .     S
C331   O389    1.285   .     A
C332   C334    1.394   .     A
C332   H362    1.083   .     S
C333   C350    1.393   .     A
C333   C349    1.407   .     A
C333   C342    1.405   .     S
C334   C348    1.398   .     A
C335   N379    1.384   .     A
C335   N384    1.435   .     S
C335   C1525   1.429   1_554 S
C336   N385    1.430   .     S
C336   N377    1.369   .     A
C336   C932    1.435   .     S
C337   N386    1.422   .     S
C337   N377    1.363   .     A
C337   C929    1.429   .     S
C338   N378    1.422   .     S
C338   N379    1.372   .     A
C338   C1524   1.435   1_554 S
C339   H375    1.112   .     S
C339   N382    1.446   .     S
C339   H352    1.109   .     S
C339   H376    1.110   .     S
C340   H356    1.111   .     S
C340   H355    1.111   .     S
C340   N383    1.448   .     S
C340   H354    1.110   .     S
C341   H365    1.110   .     S
C341   H363    1.109   .     S
C341   H364    1.111   .     S
C341   N386    1.450   .     S
C342   O388    1.285   .     A
C342   O390    1.286   .     A
C343   N378    1.449   .     S
C343   H367    1.110   .     S
C343   H368    1.110   .     S
C343   H369    1.112   .     S
C344   O393    1.288   .     A
C344   C346    1.406   .     S
C344   O391    1.281   .     A
C345   O394    1.288   .     A
C345   O392    1.282   .     A
C345   C347    1.408   .     S
C347   C214    1.346   1_655 S
C347   N249    1.441   1_655 S
C348   N382    1.424   .     S
C349   N383    1.437   .     S
C349   C530    1.387   .     S
C350   H351    1.085   .     S
C350   C546    1.375   .     S
H353   N383    1.031   .     S
H357   N384    1.044   .     S
H358   N384    1.030   .     S
H359   N385    1.042   .     S
H360   N385    1.045   .     S
H361   N386    1.031   .     S
H366   N378    1.031   .     S
H370   N380    1.045   .     S
H372   N381    1.046   .     S
H373   N249    1.046   1_655 S
H374   N382    1.031   .     S
N377   Zn395   2.027   .     S
N379   Zn396   2.027   .     S
N380   H239    1.046   1_655 S
N380   C214    1.439   1_655 S
O387   Zn395   1.980   .     S
O388   Zn396   1.980   .     S
O389   Zn396   1.979   .     S
O390   Zn395   1.979   .     S
O391   Zn395   1.994   .     S
O392   Zn396   1.994   .     S
O393   Zn396   1.993   .     S
O394   Zn395   1.993   .     S
C397   O453    1.286   .     A
C397   C400    1.405   .     S
C397   O455    1.285   .     A
C398   C400    1.394   .     A
C398   H428    1.083   .     S
C399   C416    1.393   .     A
C399   C415    1.407   .     A
C399   C408    1.405   .     S
C400   C414    1.398   .     A
C401   N445    1.384   .     A
C401   N450    1.435   .     S
C401   C1591   1.429   1_554 S
C402   N451    1.430   .     S
C402   N443    1.369   .     A
C402   C998    1.435   .     S
C403   N452    1.422   .     S
C403   N443    1.363   .     A
C403   C995    1.429   .     S
C404   N444    1.422   .     S
C404   N445    1.372   .     A
C404   C1590   1.435   1_554 S
C405   H441    1.112   .     S
C405   N448    1.446   .     S
C405   H418    1.109   .     S
C405   H442    1.110   .     S
C406   H422    1.111   .     S
C406   H421    1.111   .     S
C406   N449    1.448   .     S
C406   H420    1.110   .     S
C407   H431    1.110   .     S
C407   H429    1.109   .     S
C407   H430    1.111   .     S
C407   N452    1.450   .     S
C408   O454    1.285   .     A
C408   O456    1.286   .     A
C409   N444    1.449   .     S
C409   H433    1.110   .     S
C409   H434    1.110   .     S
C409   H435    1.112   .     S
C410   O459    1.288   .     A
C410   C412    1.406   .     S
C410   O457    1.281   .     A
C411   O460    1.288   .     A
C411   O458    1.282   .     A
C411   C413    1.408   .     S
C412   C545    1.346   1_455 S
C412   N578    1.439   1_455 S
C413   C478    1.346   .     S
C413   N513    1.441   .     S
C414   N448    1.424   .     S
C415   N449    1.437   .     S
C415   C2      1.387   1_565 S
C416   H417    1.085   .     S
C416   C18     1.375   1_565 S
H419   N449    1.031   .     S
H423   N450    1.044   .     S
H424   N450    1.030   .     S
H425   N451    1.042   .     S
H426   N451    1.045   .     S
H427   N452    1.031   .     S
H432   N444    1.031   .     S
H436   N446    1.045   .     S
H437   N578    1.046   1_455 S
H438   N447    1.046   .     S
H439   N513    1.046   .     S
H440   N448    1.031   .     S
N443   Zn461   2.027   .     S
N445   Zn462   2.027   .     S
N446   H503    1.046   .     S
N446   C478    1.439   .     S
N447   H571    1.046   1_455 S
N447   C545    1.441   1_455 S
O453   Zn461   1.980   .     S
O454   Zn462   1.980   .     S
O455   Zn462   1.979   .     S
O456   Zn461   1.979   .     S
O457   Zn461   1.994   .     S
O458   Zn462   1.994   .     S
O459   Zn462   1.993   .     S
O460   Zn461   1.993   .     S
C463   O519    1.286   .     A
C463   C466    1.405   .     S
C463   O521    1.285   .     A
C464   C466    1.394   .     A
C464   H494    1.083   .     S
C465   C482    1.393   .     A
C465   C481    1.407   .     A
C465   C474    1.405   .     S
C466   C480    1.398   .     A
C467   N511    1.384   .     A
C467   N516    1.435   .     S
C467   C1657   1.429   1_554 S
C468   N517    1.430   .     S
C468   N509    1.369   .     A
C468   C1064   1.435   .     S
C469   N518    1.422   .     S
C469   N509    1.363   .     A
C469   C1061   1.429   .     S
C470   N510    1.422   .     S
C470   N511    1.372   .     A
C470   C1656   1.435   1_554 S
C471   H507    1.112   .     S
C471   N514    1.446   .     S
C471   H484    1.109   .     S
C471   H508    1.110   .     S
C472   H488    1.111   .     S
C472   H487    1.111   .     S
C472   N515    1.448   .     S
C472   H486    1.110   .     S
C473   H497    1.110   .     S
C473   H495    1.109   .     S
C473   H496    1.111   .     S
C473   N518    1.450   .     S
C474   O520    1.285   .     A
C474   O522    1.286   .     A
C475   N510    1.449   .     S
C475   H499    1.110   .     S
C475   H500    1.110   .     S
C475   H501    1.112   .     S
C476   O525    1.288   .     A
C476   C478    1.406   .     S
C476   O523    1.281   .     A
C477   O526    1.288   .     A
C477   O524    1.282   .     A
C477   C479    1.408   .     S
C479   C544    1.346   .     S
C479   N579    1.441   .     S
C480   N514    1.424   .     S
C481   N515    1.437   .     S
C481   C68     1.387   1_565 S
C482   H483    1.085   .     S
C482   C84     1.375   1_565 S
H485   N515    1.031   .     S
H489   N516    1.044   .     S
H490   N516    1.030   .     S
H491   N517    1.042   .     S
H492   N517    1.045   .     S
H493   N518    1.031   .     S
H498   N510    1.031   .     S
H502   N512    1.045   .     S
H504   N513    1.046   .     S
H505   N579    1.046   .     S
H506   N514    1.031   .     S
N509   Zn527   2.027   .     S
N511   Zn528   2.027   .     S
N512   H569    1.046   .     S
N512   C544    1.439   .     S
O519   Zn527   1.980   .     S
O520   Zn528   1.980   .     S
O521   Zn528   1.979   .     S
O522   Zn527   1.979   .     S
O523   Zn527   1.994   .     S
O524   Zn528   1.994   .     S
O525   Zn528   1.993   .     S
O526   Zn527   1.993   .     S
C529   O585    1.286   .     A
C529   C532    1.405   .     S
C529   O587    1.285   .     A
C530   C532    1.394   .     A
C530   H560    1.083   .     S
C531   C548    1.393   .     A
C531   C547    1.407   .     A
C531   C540    1.405   .     S
C532   C546    1.398   .     A
C533   N577    1.384   .     A
C533   N582    1.435   .     S
C533   C1723   1.429   1_554 S
C534   N583    1.430   .     S
C534   N575    1.369   .     A
C534   C1130   1.435   .     S
C535   N584    1.422   .     S
C535   N575    1.363   .     A
C535   C1127   1.429   .     S
C536   N576    1.422   .     S
C536   N577    1.372   .     A
C536   C1722   1.435   1_554 S
C537   H573    1.112   .     S
C537   N580    1.446   .     S
C537   H550    1.109   .     S
C537   H574    1.110   .     S
C538   H554    1.111   .     S
C538   H553    1.111   .     S
C538   N581    1.448   .     S
C538   H552    1.110   .     S
C539   H563    1.110   .     S
C539   H561    1.109   .     S
C539   H562    1.111   .     S
C539   N584    1.450   .     S
C540   O586    1.285   .     A
C540   O588    1.286   .     A
C541   N576    1.449   .     S
C541   H565    1.110   .     S
C541   H566    1.110   .     S
C541   H567    1.112   .     S
C542   O591    1.288   .     A
C542   C544    1.406   .     S
C542   O589    1.281   .     A
C543   O592    1.288   .     A
C543   O590    1.282   .     A
C543   C545    1.408   .     S
C545   C412    1.346   1_655 S
C545   N447    1.441   1_655 S
C546   N580    1.424   .     S
C547   N581    1.437   .     S
C547   C134    1.387   1_565 S
C548   H549    1.085   .     S
C548   C150    1.375   1_565 S
H551   N581    1.031   .     S
H555   N582    1.044   .     S
H556   N582    1.030   .     S
H557   N583    1.042   .     S
H558   N583    1.045   .     S
H559   N584    1.031   .     S
H564   N576    1.031   .     S
H568   N578    1.045   .     S
H570   N579    1.046   .     S
H571   N447    1.046   1_655 S
H572   N580    1.031   .     S
N575   Zn593   2.027   .     S
N577   Zn594   2.027   .     S
N578   H437    1.046   1_655 S
N578   C412    1.439   1_655 S
O585   Zn593   1.980   .     S
O586   Zn594   1.980   .     S
O587   Zn594   1.979   .     S
O588   Zn593   1.979   .     S
O589   Zn593   1.994   .     S
O590   Zn594   1.994   .     S
O591   Zn594   1.993   .     S
O592   Zn593   1.993   .     S
C595   O651    1.286   .     A
C595   C598    1.405   .     S
C595   O653    1.285   .     A
C596   C598    1.394   .     A
C596   H626    1.083   .     S
C596   C1009   1.387   1_545 S
C597   C614    1.393   .     A
C597   C613    1.407   .     A
C597   C606    1.405   .     S
C598   C612    1.398   .     A
C599   N643    1.384   .     A
C599   N648    1.435   .     S
C600   N649    1.430   .     S
C600   N641    1.369   .     A
C600   C1196   1.435   .     S
C601   N650    1.422   .     S
C601   N641    1.363   .     A
C601   C1193   1.429   .     S
C602   N642    1.422   .     S
C602   N643    1.372   .     A
C603   H639    1.112   .     S
C603   N646    1.446   .     S
C603   H616    1.109   .     S
C603   H640    1.110   .     S
C604   H620    1.111   .     S
C604   H619    1.111   .     S
C604   N647    1.448   .     S
C604   H618    1.110   .     S
C605   H629    1.110   .     S
C605   H627    1.109   .     S
C605   H628    1.111   .     S
C605   N650    1.450   .     S
C606   O652    1.285   .     A
C606   O654    1.286   .     A
C607   N642    1.449   .     S
C607   H631    1.110   .     S
C607   H632    1.110   .     S
C607   H633    1.112   .     S
C608   O657    1.288   .     A
C608   C610    1.406   .     S
C608   O655    1.281   .     A
C609   O658    1.288   .     A
C609   O656    1.282   .     A
C609   C611    1.408   .     S
C610   C743    1.346   1_455 S
C610   N776    1.439   1_455 S
C611   C676    1.346   .     S
C611   N711    1.441   .     S
C612   N646    1.424   .     S
C612   C1010   1.375   1_545 S
C613   N647    1.437   .     S
C613   C794    1.387   .     S
C614   H615    1.085   .     S
C614   C810    1.375   .     S
H617   N647    1.031   .     S
H621   N648    1.044   .     S
H622   N648    1.030   .     S
H623   N649    1.042   .     S
H624   N649    1.045   .     S
H625   N650    1.031   .     S
H630   N642    1.031   .     S
H634   N644    1.045   .     S
H635   N776    1.046   1_455 S
H636   N645    1.046   .     S
H637   N711    1.046   .     S
H638   N646    1.031   .     S
N641   Zn659   2.027   .     S
N643   Zn660   2.027   .     S
N644   H701    1.046   .     S
N644   C676    1.439   .     S
N645   H769    1.046   1_455 S
N645   C743    1.441   1_455 S
O651   Zn659   1.980   .     S
O652   Zn660   1.980   .     S
O653   Zn660   1.979   .     S
O654   Zn659   1.979   .     S
O655   Zn659   1.994   .     S
O656   Zn660   1.994   .     S
O657   Zn660   1.993   .     S
O658   Zn659   1.993   .     S
C661   O717    1.286   .     A
C661   C664    1.405   .     S
C661   O719    1.285   .     A
C662   C664    1.394   .     A
C662   H692    1.083   .     S
C662   C1075   1.387   1_545 S
C663   C680    1.393   .     A
C663   C679    1.407   .     A
C663   C672    1.405   .     S
C664   C678    1.398   .     A
C665   N709    1.384   .     A
C665   N714    1.435   .     S
C666   N715    1.430   .     S
C666   N707    1.369   .     A
C666   C1262   1.435   .     S
C667   N716    1.422   .     S
C667   N707    1.363   .     A
C667   C1259   1.429   .     S
C668   N708    1.422   .     S
C668   N709    1.372   .     A
C669   H705    1.112   .     S
C669   N712    1.446   .     S
C669   H682    1.109   .     S
C669   H706    1.110   .     S
C670   H686    1.111   .     S
C670   H685    1.111   .     S
C670   N713    1.448   .     S
C670   H684    1.110   .     S
C671   H695    1.110   .     S
C671   H693    1.109   .     S
C671   H694    1.111   .     S
C671   N716    1.450   .     S
C672   O718    1.285   .     A
C672   O720    1.286   .     A
C673   N708    1.449   .     S
C673   H697    1.110   .     S
C673   H698    1.110   .     S
C673   H699    1.112   .     S
C674   O723    1.288   .     A
C674   C676    1.406   .     S
C674   O721    1.281   .     A
C675   O724    1.288   .     A
C675   O722    1.282   .     A
C675   C677    1.408   .     S
C677   C742    1.346   .     S
C677   N777    1.441   .     S
C678   N712    1.424   .     S
C678   C1076   1.375   1_545 S
C679   N713    1.437   .     S
C679   C860    1.387   .     S
C680   H681    1.085   .     S
C680   C876    1.375   .     S
H683   N713    1.031   .     S
H687   N714    1.044   .     S
H688   N714    1.030   .     S
H689   N715    1.042   .     S
H690   N715    1.045   .     S
H691   N716    1.031   .     S
H696   N708    1.031   .     S
H700   N710    1.045   .     S
H702   N711    1.046   .     S
H703   N777    1.046   .     S
H704   N712    1.031   .     S
N707   Zn725   2.027   .     S
N709   Zn726   2.027   .     S
N710   H767    1.046   .     S
N710   C742    1.439   .     S
O717   Zn725   1.980   .     S
O718   Zn726   1.980   .     S
O719   Zn726   1.979   .     S
O720   Zn725   1.979   .     S
O721   Zn725   1.994   .     S
O722   Zn726   1.994   .     S
O723   Zn726   1.993   .     S
O724   Zn725   1.993   .     S
C727   O783    1.286   .     A
C727   C730    1.405   .     S
C727   O785    1.285   .     A
C728   C730    1.394   .     A
C728   H758    1.083   .     S
C728   C1141   1.387   1_545 S
C729   C746    1.393   .     A
C729   C745    1.407   .     A
C729   C738    1.405   .     S
C730   C744    1.398   .     A
C731   N775    1.384   .     A
C731   N780    1.435   .     S
C732   N781    1.430   .     S
C732   N773    1.369   .     A
C732   C1328   1.435   .     S
C733   N782    1.422   .     S
C733   N773    1.363   .     A
C733   C1325   1.429   .     S
C734   N774    1.422   .     S
C734   N775    1.372   .     A
C735   H771    1.112   .     S
C735   N778    1.446   .     S
C735   H748    1.109   .     S
C735   H772    1.110   .     S
C736   H752    1.111   .     S
C736   H751    1.111   .     S
C736   N779    1.448   .     S
C736   H750    1.110   .     S
C737   H761    1.110   .     S
C737   H759    1.109   .     S
C737   H760    1.111   .     S
C737   N782    1.450   .     S
C738   O784    1.285   .     A
C738   O786    1.286   .     A
C739   N774    1.449   .     S
C739   H763    1.110   .     S
C739   H764    1.110   .     S
C739   H765    1.112   .     S
C740   O789    1.288   .     A
C740   C742    1.406   .     S
C740   O787    1.281   .     A
C741   O790    1.288   .     A
C741   O788    1.282   .     A
C741   C743    1.408   .     S
C743   C610    1.346   1_655 S
C743   N645    1.441   1_655 S
C744   N778    1.424   .     S
C744   C1142   1.375   1_545 S
C745   N779    1.437   .     S
C745   C926    1.387   .     S
C746   H747    1.085   .     S
C746   C942    1.375   .     S
H749   N779    1.031   .     S
H753   N780    1.044   .     S
H754   N780    1.030   .     S
H755   N781    1.042   .     S
H756   N781    1.045   .     S
H757   N782    1.031   .     S
H762   N774    1.031   .     S
H766   N776    1.045   .     S
H768   N777    1.046   .     S
H769   N645    1.046   1_655 S
H770   N778    1.031   .     S
N773   Zn791   2.027   .     S
N775   Zn792   2.027   .     S
N776   H635    1.046   1_655 S
N776   C610    1.439   1_655 S
O783   Zn791   1.980   .     S
O784   Zn792   1.980   .     S
O785   Zn792   1.979   .     S
O786   Zn791   1.979   .     S
O787   Zn791   1.994   .     S
O788   Zn792   1.994   .     S
O789   Zn792   1.993   .     S
O790   Zn791   1.993   .     S
C793   O849    1.286   .     A
C793   C796    1.405   .     S
C793   O851    1.285   .     A
C794   C796    1.394   .     A
C794   H824    1.083   .     S
C795   C812    1.393   .     A
C795   C811    1.407   .     A
C795   C804    1.405   .     S
C796   C810    1.398   .     A
C797   N841    1.384   .     A
C797   N846    1.435   .     S
C798   N847    1.430   .     S
C798   N839    1.369   .     A
C798   C1394   1.435   .     S
C799   N848    1.422   .     S
C799   N839    1.363   .     A
C799   C1391   1.429   .     S
C800   N840    1.422   .     S
C800   N841    1.372   .     A
C801   H837    1.112   .     S
C801   N844    1.446   .     S
C801   H814    1.109   .     S
C801   H838    1.110   .     S
C802   H818    1.111   .     S
C802   H817    1.111   .     S
C802   N845    1.448   .     S
C802   H816    1.110   .     S
C803   H827    1.110   .     S
C803   H825    1.109   .     S
C803   H826    1.111   .     S
C803   N848    1.450   .     S
C804   O850    1.285   .     A
C804   O852    1.286   .     A
C805   N840    1.449   .     S
C805   H829    1.110   .     S
C805   H830    1.110   .     S
C805   H831    1.112   .     S
C806   O855    1.288   .     A
C806   C808    1.406   .     S
C806   O853    1.281   .     A
C807   O856    1.288   .     A
C807   O854    1.282   .     A
C807   C809    1.408   .     S
C808   C941    1.346   1_455 S
C808   N974    1.439   1_455 S
C809   C874    1.346   .     S
C809   N909    1.441   .     S
C810   N844    1.424   .     S
C811   N845    1.437   .     S
C811   C992    1.387   .     S
C812   H813    1.085   .     S
C812   C1008   1.375   .     S
H815   N845    1.031   .     S
H819   N846    1.044   .     S
H820   N846    1.030   .     S
H821   N847    1.042   .     S
H822   N847    1.045   .     S
H823   N848    1.031   .     S
H828   N840    1.031   .     S
H832   N842    1.045   .     S
H833   N974    1.046   1_455 S
H834   N843    1.046   .     S
H835   N909    1.046   .     S
H836   N844    1.031   .     S
N839   Zn857   2.027   .     S
N841   Zn858   2.027   .     S
N842   H899    1.046   .     S
N842   C874    1.439   .     S
N843   H967    1.046   1_455 S
N843   C941    1.441   1_455 S
O849   Zn857   1.980   .     S
O850   Zn858   1.980   .     S
O851   Zn858   1.979   .     S
O852   Zn857   1.979   .     S
O853   Zn857   1.994   .     S
O854   Zn858   1.994   .     S
O855   Zn858   1.993   .     S
O856   Zn857   1.993   .     S
C859   O915    1.286   .     A
C859   C862    1.405   .     S
C859   O917    1.285   .     A
C860   C862    1.394   .     A
C860   H890    1.083   .     S
C861   C878    1.393   .     A
C861   C877    1.407   .     A
C861   C870    1.405   .     S
C862   C876    1.398   .     A
C863   N907    1.384   .     A
C863   N912    1.435   .     S
C864   N913    1.430   .     S
C864   N905    1.369   .     A
C864   C1460   1.435   .     S
C865   N914    1.422   .     S
C865   N905    1.363   .     A
C865   C1457   1.429   .     S
C866   N906    1.422   .     S
C866   N907    1.372   .     A
C867   H903    1.112   .     S
C867   N910    1.446   .     S
C867   H880    1.109   .     S
C867   H904    1.110   .     S
C868   H884    1.111   .     S
C868   H883    1.111   .     S
C868   N911    1.448   .     S
C868   H882    1.110   .     S
C869   H893    1.110   .     S
C869   H891    1.109   .     S
C869   H892    1.111   .     S
C869   N914    1.450   .     S
C870   O916    1.285   .     A
C870   O918    1.286   .     A
C871   N906    1.449   .     S
C871   H895    1.110   .     S
C871   H896    1.110   .     S
C871   H897    1.112   .     S
C872   O921    1.288   .     A
C872   C874    1.406   .     S
C872   O919    1.281   .     A
C873   O922    1.288   .     A
C873   O920    1.282   .     A
C873   C875    1.408   .     S
C875   C940    1.346   .     S
C875   N975    1.441   .     S
C876   N910    1.424   .     S
C877   N911    1.437   .     S
C877   C1058   1.387   .     S
C878   H879    1.085   .     S
C878   C1074   1.375   .     S
H881   N911    1.031   .     S
H885   N912    1.044   .     S
H886   N912    1.030   .     S
H887   N913    1.042   .     S
H888   N913    1.045   .     S
H889   N914    1.031   .     S
H894   N906    1.031   .     S
H898   N908    1.045   .     S
H900   N909    1.046   .     S
H901   N975    1.046   .     S
H902   N910    1.031   .     S
N905   Zn923   2.027   .     S
N907   Zn924   2.027   .     S
N908   H965    1.046   .     S
N908   C940    1.439   .     S
O915   Zn923   1.980   .     S
O916   Zn924   1.980   .     S
O917   Zn924   1.979   .     S
O918   Zn923   1.979   .     S
O919   Zn923   1.994   .     S
O920   Zn924   1.994   .     S
O921   Zn924   1.993   .     S
O922   Zn923   1.993   .     S
C925   O981    1.286   .     A
C925   C928    1.405   .     S
C925   O983    1.285   .     A
C926   C928    1.394   .     A
C926   H956    1.083   .     S
C927   C944    1.393   .     A
C927   C943    1.407   .     A
C927   C936    1.405   .     S
C928   C942    1.398   .     A
C929   N973    1.384   .     A
C929   N978    1.435   .     S
C930   N979    1.430   .     S
C930   N971    1.369   .     A
C930   C1526   1.435   .     S
C931   N980    1.422   .     S
C931   N971    1.363   .     A
C931   C1523   1.429   .     S
C932   N972    1.422   .     S
C932   N973    1.372   .     A
C933   H969    1.112   .     S
C933   N976    1.446   .     S
C933   H946    1.109   .     S
C933   H970    1.110   .     S
C934   H950    1.111   .     S
C934   H949    1.111   .     S
C934   N977    1.448   .     S
C934   H948    1.110   .     S
C935   H959    1.110   .     S
C935   H957    1.109   .     S
C935   H958    1.111   .     S
C935   N980    1.450   .     S
C936   O982    1.285   .     A
C936   O984    1.286   .     A
C937   N972    1.449   .     S
C937   H961    1.110   .     S
C937   H962    1.110   .     S
C937   H963    1.112   .     S
C938   O987    1.288   .     A
C938   C940    1.406   .     S
C938   O985    1.281   .     A
C939   O988    1.288   .     A
C939   O986    1.282   .     A
C939   C941    1.408   .     S
C941   C808    1.346   1_655 S
C941   N843    1.441   1_655 S
C942   N976    1.424   .     S
C943   N977    1.437   .     S
C943   C1124   1.387   .     S
C944   H945    1.085   .     S
C944   C1140   1.375   .     S
H947   N977    1.031   .     S
H951   N978    1.044   .     S
H952   N978    1.030   .     S
H953   N979    1.042   .     S
H954   N979    1.045   .     S
H955   N980    1.031   .     S
H960   N972    1.031   .     S
H964   N974    1.045   .     S
H966   N975    1.046   .     S
H967   N843    1.046   1_655 S
H968   N976    1.031   .     S
N971   Zn989   2.027   .     S
N973   Zn990   2.027   .     S
N974   H833    1.046   1_655 S
N974   C808    1.439   1_655 S
O981   Zn989   1.980   .     S
O982   Zn990   1.980   .     S
O983   Zn990   1.979   .     S
O984   Zn989   1.979   .     S
O985   Zn989   1.994   .     S
O986   Zn990   1.994   .     S
O987   Zn990   1.993   .     S
O988   Zn989   1.993   .     S
C991   O1047   1.286   .     A
C991   C994    1.405   .     S
C991   O1049   1.285   .     A
C992   C994    1.394   .     A
C992   H1022   1.083   .     S
C993   C1010   1.393   .     A
C993   C1009   1.407   .     A
C993   C1002   1.405   .     S
C994   C1008   1.398   .     A
C995   N1039   1.384   .     A
C995   N1044   1.435   .     S
C996   N1045   1.430   .     S
C996   N1037   1.369   .     A
C996   C1592   1.435   .     S
C997   N1046   1.422   .     S
C997   N1037   1.363   .     A
C997   C1589   1.429   .     S
C998   N1038   1.422   .     S
C998   N1039   1.372   .     A
C999   H1035   1.112   .     S
C999   N1042   1.446   .     S
C999   H1012   1.109   .     S
C999   H1036   1.110   .     S
C1000  H1016   1.111   .     S
C1000  H1015   1.111   .     S
C1000  N1043   1.448   .     S
C1000  H1014   1.110   .     S
C1001  H1025   1.110   .     S
C1001  H1023   1.109   .     S
C1001  H1024   1.111   .     S
C1001  N1046   1.450   .     S
C1002  O1048   1.285   .     A
C1002  O1050   1.286   .     A
C1003  N1038   1.449   .     S
C1003  H1027   1.110   .     S
C1003  H1028   1.110   .     S
C1003  H1029   1.112   .     S
C1004  O1053   1.288   .     A
C1004  C1006   1.406   .     S
C1004  O1051   1.281   .     A
C1005  O1054   1.288   .     A
C1005  O1052   1.282   .     A
C1005  C1007   1.408   .     S
C1006  C1139   1.346   1_455 S
C1006  N1172   1.439   1_455 S
C1007  C1072   1.346   .     S
C1007  N1107   1.441   .     S
C1008  N1042   1.424   .     S
C1009  N1043   1.437   .     S
C1009  C596    1.387   1_565 S
C1010  H1011   1.085   .     S
C1010  C612    1.375   1_565 S
H1013  N1043   1.031   .     S
H1017  N1044   1.044   .     S
H1018  N1044   1.030   .     S
H1019  N1045   1.042   .     S
H1020  N1045   1.045   .     S
H1021  N1046   1.031   .     S
H1026  N1038   1.031   .     S
H1030  N1040   1.045   .     S
H1031  N1172   1.046   1_455 S
H1032  N1041   1.046   .     S
H1033  N1107   1.046   .     S
H1034  N1042   1.031   .     S
N1037  Zn1055  2.027   .     S
N1039  Zn1056  2.027   .     S
N1040  H1097   1.046   .     S
N1040  C1072   1.439   .     S
N1041  H1165   1.046   1_455 S
N1041  C1139   1.441   1_455 S
O1047  Zn1055  1.980   .     S
O1048  Zn1056  1.980   .     S
O1049  Zn1056  1.979   .     S
O1050  Zn1055  1.979   .     S
O1051  Zn1055  1.994   .     S
O1052  Zn1056  1.994   .     S
O1053  Zn1056  1.993   .     S
O1054  Zn1055  1.993   .     S
C1057  O1113   1.286   .     A
C1057  C1060   1.405   .     S
C1057  O1115   1.285   .     A
C1058  C1060   1.394   .     A
C1058  H1088   1.083   .     S
C1059  C1076   1.393   .     A
C1059  C1075   1.407   .     A
C1059  C1068   1.405   .     S
C1060  C1074   1.398   .     A
C1061  N1105   1.384   .     A
C1061  N1110   1.435   .     S
C1062  N1111   1.430   .     S
C1062  N1103   1.369   .     A
C1062  C1658   1.435   .     S
C1063  N1112   1.422   .     S
C1063  N1103   1.363   .     A
C1063  C1655   1.429   .     S
C1064  N1104   1.422   .     S
C1064  N1105   1.372   .     A
C1065  H1101   1.112   .     S
C1065  N1108   1.446   .     S
C1065  H1078   1.109   .     S
C1065  H1102   1.110   .     S
C1066  H1082   1.111   .     S
C1066  H1081   1.111   .     S
C1066  N1109   1.448   .     S
C1066  H1080   1.110   .     S
C1067  H1091   1.110   .     S
C1067  H1089   1.109   .     S
C1067  H1090   1.111   .     S
C1067  N1112   1.450   .     S
C1068  O1114   1.285   .     A
C1068  O1116   1.286   .     A
C1069  N1104   1.449   .     S
C1069  H1093   1.110   .     S
C1069  H1094   1.110   .     S
C1069  H1095   1.112   .     S
C1070  O1119   1.288   .     A
C1070  C1072   1.406   .     S
C1070  O1117   1.281   .     A
C1071  O1120   1.288   .     A
C1071  O1118   1.282   .     A
C1071  C1073   1.408   .     S
C1073  C1138   1.346   .     S
C1073  N1173   1.441   .     S
C1074  N1108   1.424   .     S
C1075  N1109   1.437   .     S
C1075  C662    1.387   1_565 S
C1076  H1077   1.085   .     S
C1076  C678    1.375   1_565 S
H1079  N1109   1.031   .     S
H1083  N1110   1.044   .     S
H1084  N1110   1.030   .     S
H1085  N1111   1.042   .     S
H1086  N1111   1.045   .     S
H1087  N1112   1.031   .     S
H1092  N1104   1.031   .     S
H1096  N1106   1.045   .     S
H1098  N1107   1.046   .     S
H1099  N1173   1.046   .     S
H1100  N1108   1.031   .     S
N1103  Zn1121  2.027   .     S
N1105  Zn1122  2.027   .     S
N1106  H1163   1.046   .     S
N1106  C1138   1.439   .     S
O1113  Zn1121  1.980   .     S
O1114  Zn1122  1.980   .     S
O1115  Zn1122  1.979   .     S
O1116  Zn1121  1.979   .     S
O1117  Zn1121  1.994   .     S
O1118  Zn1122  1.994   .     S
O1119  Zn1122  1.993   .     S
O1120  Zn1121  1.993   .     S
C1123  O1179   1.286   .     A
C1123  C1126   1.405   .     S
C1123  O1181   1.285   .     A
C1124  C1126   1.394   .     A
C1124  H1154   1.083   .     S
C1125  C1142   1.393   .     A
C1125  C1141   1.407   .     A
C1125  C1134   1.405   .     S
C1126  C1140   1.398   .     A
C1127  N1171   1.384   .     A
C1127  N1176   1.435   .     S
C1128  N1177   1.430   .     S
C1128  N1169   1.369   .     A
C1128  C1724   1.435   .     S
C1129  N1178   1.422   .     S
C1129  N1169   1.363   .     A
C1129  C1721   1.429   .     S
C1130  N1170   1.422   .     S
C1130  N1171   1.372   .     A
C1131  H1167   1.112   .     S
C1131  N1174   1.446   .     S
C1131  H1144   1.109   .     S
C1131  H1168   1.110   .     S
C1132  H1148   1.111   .     S
C1132  H1147   1.111   .     S
C1132  N1175   1.448   .     S
C1132  H1146   1.110   .     S
C1133  H1157   1.110   .     S
C1133  H1155   1.109   .     S
C1133  H1156   1.111   .     S
C1133  N1178   1.450   .     S
C1134  O1180   1.285   .     A
C1134  O1182   1.286   .     A
C1135  N1170   1.449   .     S
C1135  H1159   1.110   .     S
C1135  H1160   1.110   .     S
C1135  H1161   1.112   .     S
C1136  O1185   1.288   .     A
C1136  C1138   1.406   .     S
C1136  O1183   1.281   .     A
C1137  O1186   1.288   .     A
C1137  O1184   1.282   .     A
C1137  C1139   1.408   .     S
C1139  C1006   1.346   1_655 S
C1139  N1041   1.441   1_655 S
C1140  N1174   1.424   .     S
C1141  N1175   1.437   .     S
C1141  C728    1.387   1_565 S
C1142  H1143   1.085   .     S
C1142  C744    1.375   1_565 S
H1145  N1175   1.031   .     S
H1149  N1176   1.044   .     S
H1150  N1176   1.030   .     S
H1151  N1177   1.042   .     S
H1152  N1177   1.045   .     S
H1153  N1178   1.031   .     S
H1158  N1170   1.031   .     S
H1162  N1172   1.045   .     S
H1164  N1173   1.046   .     S
H1165  N1041   1.046   1_655 S
H1166  N1174   1.031   .     S
N1169  Zn1187  2.027   .     S
N1171  Zn1188  2.027   .     S
N1172  H1031   1.046   1_655 S
N1172  C1006   1.439   1_655 S
O1179  Zn1187  1.980   .     S
O1180  Zn1188  1.980   .     S
O1181  Zn1188  1.979   .     S
O1182  Zn1187  1.979   .     S
O1183  Zn1187  1.994   .     S
O1184  Zn1188  1.994   .     S
O1185  Zn1188  1.993   .     S
O1186  Zn1187  1.993   .     S
C1189  O1245   1.286   .     A
C1189  C1192   1.405   .     S
C1189  O1247   1.285   .     A
C1190  C1192   1.394   .     A
C1190  H1220   1.083   .     S
C1190  C1603   1.387   1_545 S
C1191  C1208   1.393   .     A
C1191  C1207   1.407   .     A
C1191  C1200   1.405   .     S
C1192  C1206   1.398   .     A
C1193  N1237   1.384   .     A
C1193  N1242   1.435   .     S
C1194  N1243   1.430   .     S
C1194  N1235   1.369   .     A
C1194  C8      1.435   1_556 S
C1195  N1244   1.422   .     S
C1195  N1235   1.363   .     A
C1195  C5      1.429   1_556 S
C1196  N1236   1.422   .     S
C1196  N1237   1.372   .     A
C1197  H1233   1.112   .     S
C1197  N1240   1.446   .     S
C1197  H1210   1.109   .     S
C1197  H1234   1.110   .     S
C1198  H1214   1.111   .     S
C1198  H1213   1.111   .     S
C1198  N1241   1.448   .     S
C1198  H1212   1.110   .     S
C1199  H1223   1.110   .     S
C1199  H1221   1.109   .     S
C1199  H1222   1.111   .     S
C1199  N1244   1.450   .     S
C1200  O1246   1.285   .     A
C1200  O1248   1.286   .     A
C1201  N1236   1.449   .     S
C1201  H1225   1.110   .     S
C1201  H1226   1.110   .     S
C1201  H1227   1.112   .     S
C1202  O1251   1.288   .     A
C1202  C1204   1.406   .     S
C1202  O1249   1.281   .     A
C1203  O1252   1.288   .     A
C1203  O1250   1.282   .     A
C1203  C1205   1.408   .     S
C1204  C1337   1.346   1_455 S
C1204  N1370   1.439   1_455 S
C1205  C1270   1.346   .     S
C1205  N1305   1.441   .     S
C1206  N1240   1.424   .     S
C1206  C1604   1.375   1_545 S
C1207  N1241   1.437   .     S
C1207  C1388   1.387   .     S
C1208  H1209   1.085   .     S
C1208  C1404   1.375   .     S
H1211  N1241   1.031   .     S
H1215  N1242   1.044   .     S
H1216  N1242   1.030   .     S
H1217  N1243   1.042   .     S
H1218  N1243   1.045   .     S
H1219  N1244   1.031   .     S
H1224  N1236   1.031   .     S
H1228  N1238   1.045   .     S
H1229  N1370   1.046   1_455 S
H1230  N1239   1.046   .     S
H1231  N1305   1.046   .     S
H1232  N1240   1.031   .     S
N1235  Zn1253  2.027   .     S
N1237  Zn1254  2.027   .     S
N1238  H1295   1.046   .     S
N1238  C1270   1.439   .     S
N1239  H1363   1.046   1_455 S
N1239  C1337   1.441   1_455 S
O1245  Zn1253  1.980   .     S
O1246  Zn1254  1.980   .     S
O1247  Zn1254  1.979   .     S
O1248  Zn1253  1.979   .     S
O1249  Zn1253  1.994   .     S
O1250  Zn1254  1.994   .     S
O1251  Zn1254  1.993   .     S
O1252  Zn1253  1.993   .     S
C1255  O1311   1.286   .     A
C1255  C1258   1.405   .     S
C1255  O1313   1.285   .     A
C1256  C1258   1.394   .     A
C1256  H1286   1.083   .     S
C1256  C1669   1.387   1_545 S
C1257  C1274   1.393   .     A
C1257  C1273   1.407   .     A
C1257  C1266   1.405   .     S
C1258  C1272   1.398   .     A
C1259  N1303   1.384   .     A
C1259  N1308   1.435   .     S
C1260  N1309   1.430   .     S
C1260  N1301   1.369   .     A
C1260  C74     1.435   1_556 S
C1261  N1310   1.422   .     S
C1261  N1301   1.363   .     A
C1261  C71     1.429   1_556 S
C1262  N1302   1.422   .     S
C1262  N1303   1.372   .     A
C1263  H1299   1.112   .     S
C1263  N1306   1.446   .     S
C1263  H1276   1.109   .     S
C1263  H1300   1.110   .     S
C1264  H1280   1.111   .     S
C1264  H1279   1.111   .     S
C1264  N1307   1.448   .     S
C1264  H1278   1.110   .     S
C1265  H1289   1.110   .     S
C1265  H1287   1.109   .     S
C1265  H1288   1.111   .     S
C1265  N1310   1.450   .     S
C1266  O1312   1.285   .     A
C1266  O1314   1.286   .     A
C1267  N1302   1.449   .     S
C1267  H1291   1.110   .     S
C1267  H1292   1.110   .     S
C1267  H1293   1.112   .     S
C1268  O1317   1.288   .     A
C1268  C1270   1.406   .     S
C1268  O1315   1.281   .     A
C1269  O1318   1.288   .     A
C1269  O1316   1.282   .     A
C1269  C1271   1.408   .     S
C1271  C1336   1.346   .     S
C1271  N1371   1.441   .     S
C1272  N1306   1.424   .     S
C1272  C1670   1.375   1_545 S
C1273  N1307   1.437   .     S
C1273  C1454   1.387   .     S
C1274  H1275   1.085   .     S
C1274  C1470   1.375   .     S
H1277  N1307   1.031   .     S
H1281  N1308   1.044   .     S
H1282  N1308   1.030   .     S
H1283  N1309   1.042   .     S
H1284  N1309   1.045   .     S
H1285  N1310   1.031   .     S
H1290  N1302   1.031   .     S
H1294  N1304   1.045   .     S
H1296  N1305   1.046   .     S
H1297  N1371   1.046   .     S
H1298  N1306   1.031   .     S
N1301  Zn1319  2.027   .     S
N1303  Zn1320  2.027   .     S
N1304  H1361   1.046   .     S
N1304  C1336   1.439   .     S
O1311  Zn1319  1.980   .     S
O1312  Zn1320  1.980   .     S
O1313  Zn1320  1.979   .     S
O1314  Zn1319  1.979   .     S
O1315  Zn1319  1.994   .     S
O1316  Zn1320  1.994   .     S
O1317  Zn1320  1.993   .     S
O1318  Zn1319  1.993   .     S
C1321  O1377   1.286   .     A
C1321  C1324   1.405   .     S
C1321  O1379   1.285   .     A
C1322  C1324   1.394   .     A
C1322  H1352   1.083   .     S
C1322  C1735   1.387   1_545 S
C1323  C1340   1.393   .     A
C1323  C1339   1.407   .     A
C1323  C1332   1.405   .     S
C1324  C1338   1.398   .     A
C1325  N1369   1.384   .     A
C1325  N1374   1.435   .     S
C1326  N1375   1.430   .     S
C1326  N1367   1.369   .     A
C1326  C140    1.435   1_556 S
C1327  N1376   1.422   .     S
C1327  N1367   1.363   .     A
C1327  C137    1.429   1_556 S
C1328  N1368   1.422   .     S
C1328  N1369   1.372   .     A
C1329  H1365   1.112   .     S
C1329  N1372   1.446   .     S
C1329  H1342   1.109   .     S
C1329  H1366   1.110   .     S
C1330  H1346   1.111   .     S
C1330  H1345   1.111   .     S
C1330  N1373   1.448   .     S
C1330  H1344   1.110   .     S
C1331  H1355   1.110   .     S
C1331  H1353   1.109   .     S
C1331  H1354   1.111   .     S
C1331  N1376   1.450   .     S
C1332  O1378   1.285   .     A
C1332  O1380   1.286   .     A
C1333  N1368   1.449   .     S
C1333  H1357   1.110   .     S
C1333  H1358   1.110   .     S
C1333  H1359   1.112   .     S
C1334  O1383   1.288   .     A
C1334  C1336   1.406   .     S
C1334  O1381   1.281   .     A
C1335  O1384   1.288   .     A
C1335  O1382   1.282   .     A
C1335  C1337   1.408   .     S
C1337  C1204   1.346   1_655 S
C1337  N1239   1.441   1_655 S
C1338  N1372   1.424   .     S
C1338  C1736   1.375   1_545 S
C1339  N1373   1.437   .     S
C1339  C1520   1.387   .     S
C1340  H1341   1.085   .     S
C1340  C1536   1.375   .     S
H1343  N1373   1.031   .     S
H1347  N1374   1.044   .     S
H1348  N1374   1.030   .     S
H1349  N1375   1.042   .     S
H1350  N1375   1.045   .     S
H1351  N1376   1.031   .     S
H1356  N1368   1.031   .     S
H1360  N1370   1.045   .     S
H1362  N1371   1.046   .     S
H1363  N1239   1.046   1_655 S
H1364  N1372   1.031   .     S
N1367  Zn1385  2.027   .     S
N1369  Zn1386  2.027   .     S
N1370  H1229   1.046   1_655 S
N1370  C1204   1.439   1_655 S
O1377  Zn1385  1.980   .     S
O1378  Zn1386  1.980   .     S
O1379  Zn1386  1.979   .     S
O1380  Zn1385  1.979   .     S
O1381  Zn1385  1.994   .     S
O1382  Zn1386  1.994   .     S
O1383  Zn1386  1.993   .     S
O1384  Zn1385  1.993   .     S
C1387  O1443   1.286   .     A
C1387  C1390   1.405   .     S
C1387  O1445   1.285   .     A
C1388  C1390   1.394   .     A
C1388  H1418   1.083   .     S
C1389  C1406   1.393   .     A
C1389  C1405   1.407   .     A
C1389  C1398   1.405   .     S
C1390  C1404   1.398   .     A
C1391  N1435   1.384   .     A
C1391  N1440   1.435   .     S
C1392  N1441   1.430   .     S
C1392  N1433   1.369   .     A
C1392  C206    1.435   1_556 S
C1393  N1442   1.422   .     S
C1393  N1433   1.363   .     A
C1393  C203    1.429   1_556 S
C1394  N1434   1.422   .     S
C1394  N1435   1.372   .     A
C1395  H1431   1.112   .     S
C1395  N1438   1.446   .     S
C1395  H1408   1.109   .     S
C1395  H1432   1.110   .     S
C1396  H1412   1.111   .     S
C1396  H1411   1.111   .     S
C1396  N1439   1.448   .     S
C1396  H1410   1.110   .     S
C1397  H1421   1.110   .     S
C1397  H1419   1.109   .     S
C1397  H1420   1.111   .     S
C1397  N1442   1.450   .     S
C1398  O1444   1.285   .     A
C1398  O1446   1.286   .     A
C1399  N1434   1.449   .     S
C1399  H1423   1.110   .     S
C1399  H1424   1.110   .     S
C1399  H1425   1.112   .     S
C1400  O1449   1.288   .     A
C1400  C1402   1.406   .     S
C1400  O1447   1.281   .     A
C1401  O1450   1.288   .     A
C1401  O1448   1.282   .     A
C1401  C1403   1.408   .     S
C1402  C1535   1.346   1_455 S
C1402  N1568   1.439   1_455 S
C1403  C1468   1.346   .     S
C1403  N1503   1.441   .     S
C1404  N1438   1.424   .     S
C1405  N1439   1.437   .     S
C1405  C1586   1.387   .     S
C1406  H1407   1.085   .     S
C1406  C1602   1.375   .     S
H1409  N1439   1.031   .     S
H1413  N1440   1.044   .     S
H1414  N1440   1.030   .     S
H1415  N1441   1.042   .     S
H1416  N1441   1.045   .     S
H1417  N1442   1.031   .     S
H1422  N1434   1.031   .     S
H1426  N1436   1.045   .     S
H1427  N1568   1.046   1_455 S
H1428  N1437   1.046   .     S
H1429  N1503   1.046   .     S
H1430  N1438   1.031   .     S
N1433  Zn1451  2.027   .     S
N1435  Zn1452  2.027   .     S
N1436  H1493   1.046   .     S
N1436  C1468   1.439   .     S
N1437  H1561   1.046   1_455 S
N1437  C1535   1.441   1_455 S
O1443  Zn1451  1.980   .     S
O1444  Zn1452  1.980   .     S
O1445  Zn1452  1.979   .     S
O1446  Zn1451  1.979   .     S
O1447  Zn1451  1.994   .     S
O1448  Zn1452  1.994   .     S
O1449  Zn1452  1.993   .     S
O1450  Zn1451  1.993   .     S
C1453  O1509   1.286   .     A
C1453  C1456   1.405   .     S
C1453  O1511   1.285   .     A
C1454  C1456   1.394   .     A
C1454  H1484   1.083   .     S
C1455  C1472   1.393   .     A
C1455  C1471   1.407   .     A
C1455  C1464   1.405   .     S
C1456  C1470   1.398   .     A
C1457  N1501   1.384   .     A
C1457  N1506   1.435   .     S
C1458  N1507   1.430   .     S
C1458  N1499   1.369   .     A
C1458  C272    1.435   1_556 S
C1459  N1508   1.422   .     S
C1459  N1499   1.363   .     A
C1459  C269    1.429   1_556 S
C1460  N1500   1.422   .     S
C1460  N1501   1.372   .     A
C1461  H1497   1.112   .     S
C1461  N1504   1.446   .     S
C1461  H1474   1.109   .     S
C1461  H1498   1.110   .     S
C1462  H1478   1.111   .     S
C1462  H1477   1.111   .     S
C1462  N1505   1.448   .     S
C1462  H1476   1.110   .     S
C1463  H1487   1.110   .     S
C1463  H1485   1.109   .     S
C1463  H1486   1.111   .     S
C1463  N1508   1.450   .     S
C1464  O1510   1.285   .     A
C1464  O1512   1.286   .     A
C1465  N1500   1.449   .     S
C1465  H1489   1.110   .     S
C1465  H1490   1.110   .     S
C1465  H1491   1.112   .     S
C1466  O1515   1.288   .     A
C1466  C1468   1.406   .     S
C1466  O1513   1.281   .     A
C1467  O1516   1.288   .     A
C1467  O1514   1.282   .     A
C1467  C1469   1.408   .     S
C1469  C1534   1.346   .     S
C1469  N1569   1.441   .     S
C1470  N1504   1.424   .     S
C1471  N1505   1.437   .     S
C1471  C1652   1.387   .     S
C1472  H1473   1.085   .     S
C1472  C1668   1.375   .     S
H1475  N1505   1.031   .     S
H1479  N1506   1.044   .     S
H1480  N1506   1.030   .     S
H1481  N1507   1.042   .     S
H1482  N1507   1.045   .     S
H1483  N1508   1.031   .     S
H1488  N1500   1.031   .     S
H1492  N1502   1.045   .     S
H1494  N1503   1.046   .     S
H1495  N1569   1.046   .     S
H1496  N1504   1.031   .     S
N1499  Zn1517  2.027   .     S
N1501  Zn1518  2.027   .     S
N1502  H1559   1.046   .     S
N1502  C1534   1.439   .     S
O1509  Zn1517  1.980   .     S
O1510  Zn1518  1.980   .     S
O1511  Zn1518  1.979   .     S
O1512  Zn1517  1.979   .     S
O1513  Zn1517  1.994   .     S
O1514  Zn1518  1.994   .     S
O1515  Zn1518  1.993   .     S
O1516  Zn1517  1.993   .     S
C1519  O1575   1.286   .     A
C1519  C1522   1.405   .     S
C1519  O1577   1.285   .     A
C1520  C1522   1.394   .     A
C1520  H1550   1.083   .     S
C1521  C1538   1.393   .     A
C1521  C1537   1.407   .     A
C1521  C1530   1.405   .     S
C1522  C1536   1.398   .     A
C1523  N1567   1.384   .     A
C1523  N1572   1.435   .     S
C1524  N1573   1.430   .     S
C1524  N1565   1.369   .     A
C1524  C338    1.435   1_556 S
C1525  N1574   1.422   .     S
C1525  N1565   1.363   .     A
C1525  C335    1.429   1_556 S
C1526  N1566   1.422   .     S
C1526  N1567   1.372   .     A
C1527  H1563   1.112   .     S
C1527  N1570   1.446   .     S
C1527  H1540   1.109   .     S
C1527  H1564   1.110   .     S
C1528  H1544   1.111   .     S
C1528  H1543   1.111   .     S
C1528  N1571   1.448   .     S
C1528  H1542   1.110   .     S
C1529  H1553   1.110   .     S
C1529  H1551   1.109   .     S
C1529  H1552   1.111   .     S
C1529  N1574   1.450   .     S
C1530  O1576   1.285   .     A
C1530  O1578   1.286   .     A
C1531  N1566   1.449   .     S
C1531  H1555   1.110   .     S
C1531  H1556   1.110   .     S
C1531  H1557   1.112   .     S
C1532  O1581   1.288   .     A
C1532  C1534   1.406   .     S
C1532  O1579   1.281   .     A
C1533  O1582   1.288   .     A
C1533  O1580   1.282   .     A
C1533  C1535   1.408   .     S
C1535  C1402   1.346   1_655 S
C1535  N1437   1.441   1_655 S
C1536  N1570   1.424   .     S
C1537  N1571   1.437   .     S
C1537  C1718   1.387   .     S
C1538  H1539   1.085   .     S
C1538  C1734   1.375   .     S
H1541  N1571   1.031   .     S
H1545  N1572   1.044   .     S
H1546  N1572   1.030   .     S
H1547  N1573   1.042   .     S
H1548  N1573   1.045   .     S
H1549  N1574   1.031   .     S
H1554  N1566   1.031   .     S
H1558  N1568   1.045   .     S
H1560  N1569   1.046   .     S
H1561  N1437   1.046   1_655 S
H1562  N1570   1.031   .     S
N1565  Zn1583  2.027   .     S
N1567  Zn1584  2.027   .     S
N1568  H1427   1.046   1_655 S
N1568  C1402   1.439   1_655 S
O1575  Zn1583  1.980   .     S
O1576  Zn1584  1.980   .     S
O1577  Zn1584  1.979   .     S
O1578  Zn1583  1.979   .     S
O1579  Zn1583  1.994   .     S
O1580  Zn1584  1.994   .     S
O1581  Zn1584  1.993   .     S
O1582  Zn1583  1.993   .     S
C1585  O1641   1.286   .     A
C1585  C1588   1.405   .     S
C1585  O1643   1.285   .     A
C1586  C1588   1.394   .     A
C1586  H1616   1.083   .     S
C1587  C1604   1.393   .     A
C1587  C1603   1.407   .     A
C1587  C1596   1.405   .     S
C1588  C1602   1.398   .     A
C1589  N1633   1.384   .     A
C1589  N1638   1.435   .     S
C1590  N1639   1.430   .     S
C1590  N1631   1.369   .     A
C1590  C404    1.435   1_556 S
C1591  N1640   1.422   .     S
C1591  N1631   1.363   .     A
C1591  C401    1.429   1_556 S
C1592  N1632   1.422   .     S
C1592  N1633   1.372   .     A
C1593  H1629   1.112   .     S
C1593  N1636   1.446   .     S
C1593  H1606   1.109   .     S
C1593  H1630   1.110   .     S
C1594  H1610   1.111   .     S
C1594  H1609   1.111   .     S
C1594  N1637   1.448   .     S
C1594  H1608   1.110   .     S
C1595  H1619   1.110   .     S
C1595  H1617   1.109   .     S
C1595  H1618   1.111   .     S
C1595  N1640   1.450   .     S
C1596  O1642   1.285   .     A
C1596  O1644   1.286   .     A
C1597  N1632   1.449   .     S
C1597  H1621   1.110   .     S
C1597  H1622   1.110   .     S
C1597  H1623   1.112   .     S
C1598  O1647   1.288   .     A
C1598  C1600   1.406   .     S
C1598  O1645   1.281   .     A
C1599  O1648   1.288   .     A
C1599  O1646   1.282   .     A
C1599  C1601   1.408   .     S
C1600  C1733   1.346   1_455 S
C1600  N1766   1.439   1_455 S
C1601  C1666   1.346   .     S
C1601  N1701   1.441   .     S
C1602  N1636   1.424   .     S
C1603  N1637   1.437   .     S
C1603  C1190   1.387   1_565 S
C1604  H1605   1.085   .     S
C1604  C1206   1.375   1_565 S
H1607  N1637   1.031   .     S
H1611  N1638   1.044   .     S
H1612  N1638   1.030   .     S
H1613  N1639   1.042   .     S
H1614  N1639   1.045   .     S
H1615  N1640   1.031   .     S
H1620  N1632   1.031   .     S
H1624  N1634   1.045   .     S
H1625  N1766   1.046   1_455 S
H1626  N1635   1.046   .     S
H1627  N1701   1.046   .     S
H1628  N1636   1.031   .     S
N1631  Zn1649  2.027   .     S
N1633  Zn1650  2.027   .     S
N1634  H1691   1.046   .     S
N1634  C1666   1.439   .     S
N1635  H1759   1.046   1_455 S
N1635  C1733   1.441   1_455 S
O1641  Zn1649  1.980   .     S
O1642  Zn1650  1.980   .     S
O1643  Zn1650  1.979   .     S
O1644  Zn1649  1.979   .     S
O1645  Zn1649  1.994   .     S
O1646  Zn1650  1.994   .     S
O1647  Zn1650  1.993   .     S
O1648  Zn1649  1.993   .     S
C1651  O1707   1.286   .     A
C1651  C1654   1.405   .     S
C1651  O1709   1.285   .     A
C1652  C1654   1.394   .     A
C1652  H1682   1.083   .     S
C1653  C1670   1.393   .     A
C1653  C1669   1.407   .     A
C1653  C1662   1.405   .     S
C1654  C1668   1.398   .     A
C1655  N1699   1.384   .     A
C1655  N1704   1.435   .     S
C1656  N1705   1.430   .     S
C1656  N1697   1.369   .     A
C1656  C470    1.435   1_556 S
C1657  N1706   1.422   .     S
C1657  N1697   1.363   .     A
C1657  C467    1.429   1_556 S
C1658  N1698   1.422   .     S
C1658  N1699   1.372   .     A
C1659  H1695   1.112   .     S
C1659  N1702   1.446   .     S
C1659  H1672   1.109   .     S
C1659  H1696   1.110   .     S
C1660  H1676   1.111   .     S
C1660  H1675   1.111   .     S
C1660  N1703   1.448   .     S
C1660  H1674   1.110   .     S
C1661  H1685   1.110   .     S
C1661  H1683   1.109   .     S
C1661  H1684   1.111   .     S
C1661  N1706   1.450   .     S
C1662  O1708   1.285   .     A
C1662  O1710   1.286   .     A
C1663  N1698   1.449   .     S
C1663  H1687   1.110   .     S
C1663  H1688   1.110   .     S
C1663  H1689   1.112   .     S
C1664  O1713   1.288   .     A
C1664  C1666   1.406   .     S
C1664  O1711   1.281   .     A
C1665  O1714   1.288   .     A
C1665  O1712   1.282   .     A
C1665  C1667   1.408   .     S
C1667  C1732   1.346   .     S
C1667  N1767   1.441   .     S
C1668  N1702   1.424   .     S
C1669  N1703   1.437   .     S
C1669  C1256   1.387   1_565 S
C1670  H1671   1.085   .     S
C1670  C1272   1.375   1_565 S
H1673  N1703   1.031   .     S
H1677  N1704   1.044   .     S
H1678  N1704   1.030   .     S
H1679  N1705   1.042   .     S
H1680  N1705   1.045   .     S
H1681  N1706   1.031   .     S
H1686  N1698   1.031   .     S
H1690  N1700   1.045   .     S
H1692  N1701   1.046   .     S
H1693  N1767   1.046   .     S
H1694  N1702   1.031   .     S
N1697  Zn1715  2.027   .     S
N1699  Zn1716  2.027   .     S
N1700  H1757   1.046   .     S
N1700  C1732   1.439   .     S
O1707  Zn1715  1.980   .     S
O1708  Zn1716  1.980   .     S
O1709  Zn1716  1.979   .     S
O1710  Zn1715  1.979   .     S
O1711  Zn1715  1.994   .     S
O1712  Zn1716  1.994   .     S
O1713  Zn1716  1.993   .     S
O1714  Zn1715  1.993   .     S
C1717  O1773   1.286   .     A
C1717  C1720   1.405   .     S
C1717  O1775   1.285   .     A
C1718  C1720   1.394   .     A
C1718  H1748   1.083   .     S
C1719  C1736   1.393   .     A
C1719  C1735   1.407   .     A
C1719  C1728   1.405   .     S
C1720  C1734   1.398   .     A
C1721  N1765   1.384   .     A
C1721  N1770   1.435   .     S
C1722  N1771   1.430   .     S
C1722  N1763   1.369   .     A
C1722  C536    1.435   1_556 S
C1723  N1772   1.422   .     S
C1723  N1763   1.363   .     A
C1723  C533    1.429   1_556 S
C1724  N1764   1.422   .     S
C1724  N1765   1.372   .     A
C1725  H1761   1.112   .     S
C1725  N1768   1.446   .     S
C1725  H1738   1.109   .     S
C1725  H1762   1.110   .     S
C1726  H1742   1.111   .     S
C1726  H1741   1.111   .     S
C1726  N1769   1.448   .     S
C1726  H1740   1.110   .     S
C1727  H1751   1.110   .     S
C1727  H1749   1.109   .     S
C1727  H1750   1.111   .     S
C1727  N1772   1.450   .     S
C1728  O1774   1.285   .     A
C1728  O1776   1.286   .     A
C1729  N1764   1.449   .     S
C1729  H1753   1.110   .     S
C1729  H1754   1.110   .     S
C1729  H1755   1.112   .     S
C1730  O1779   1.288   .     A
C1730  C1732   1.406   .     S
C1730  O1777   1.281   .     A
C1731  O1780   1.288   .     A
C1731  O1778   1.282   .     A
C1731  C1733   1.408   .     S
C1733  C1600   1.346   1_655 S
C1733  N1635   1.441   1_655 S
C1734  N1768   1.424   .     S
C1735  N1769   1.437   .     S
C1735  C1322   1.387   1_565 S
C1736  H1737   1.085   .     S
C1736  C1338   1.375   1_565 S
H1739  N1769   1.031   .     S
H1743  N1770   1.044   .     S
H1744  N1770   1.030   .     S
H1745  N1771   1.042   .     S
H1746  N1771   1.045   .     S
H1747  N1772   1.031   .     S
H1752  N1764   1.031   .     S
H1756  N1766   1.045   .     S
H1758  N1767   1.046   .     S
H1759  N1635   1.046   1_655 S
H1760  N1768   1.031   .     S
N1763  Zn1781  2.027   .     S
N1765  Zn1782  2.027   .     S
N1766  H1625   1.046   1_655 S
N1766  C1600   1.439   1_655 S
O1773  Zn1781  1.980   .     S
O1774  Zn1782  1.980   .     S
O1775  Zn1782  1.979   .     S
O1776  Zn1781  1.979   .     S
O1777  Zn1781  1.994   .     S
O1778  Zn1782  1.994   .     S
O1779  Zn1782  1.993   .     S
O1780  Zn1781  1.993   .     S
