data_str_m3_o1_o5_pcu_sym.34
_audit_creation_date              2020-01-03
_audit_creation_method            'Materials Studio'
_symmetry_space_group_name_H-M    'P1'
_symmetry_Int_Tables_number       1
_symmetry_cell_setting            triclinic
loop_
_symmetry_equiv_pos_as_xyz
  x,y,z
_cell_length_a                    32.0876
_cell_length_b                    29.9682
_cell_length_c                    26.7146
_cell_angle_alpha                 89.1679
_cell_angle_beta                  92.8780
_cell_angle_gamma                 86.3363
loop_
_atom_site_label
_atom_site_type_symbol
_atom_site_fract_x
_atom_site_fract_y
_atom_site_fract_z
_atom_site_U_iso_or_equiv
_atom_site_adp_type
_atom_site_occupancy
O1     O     0.10559   0.20487   0.16666   0.00000  Uiso   1.00
O2     O     0.22774   0.12846   0.16667   0.00000  Uiso   1.00
O3     O     0.22774   0.20487   0.16667   0.00000  Uiso   1.00
O4     O     0.10559   0.12846   0.16666   0.00000  Uiso   1.00
C5     C     0.08714   0.16798   0.17113   0.00000  Uiso   1.00
C6     C     0.24711   0.16527   0.16718   0.00000  Uiso   1.00
O7     O     0.16667   0.20488   0.09511   0.00000  Uiso   1.00
O8     O     0.16666   0.12845   0.23822   0.00000  Uiso   1.00
O9     O     0.16666   0.20488   0.23822   0.00000  Uiso   1.00
O10    O     0.16667   0.12845   0.09511   0.00000  Uiso   1.00
C11    C     0.16604   0.16690   0.07300   0.00000  Uiso   1.00
C12    C     0.16587   0.16653   0.26025   0.00000  Uiso   1.00
Zn13   Zn    0.16667   0.21771   0.16667   0.00000  Uiso   1.00
Zn14   Zn    0.16667   0.11563   0.16667   0.00000  Uiso   1.00
C15    C     0.16558   0.16699   0.02176   0.00000  Uiso   1.00
C16    C     0.16550   0.16643   0.31144   0.00000  Uiso   1.00
C17    C     0.02697   0.13568   0.20847   0.00000  Uiso   1.00
C18    C     0.31228   0.19721   0.14432   0.00000  Uiso   1.00
C19    C     0.31660   0.13263   0.20370   0.00000  Uiso   1.00
C20    C     0.01831   0.20675   0.16293   0.00000  Uiso   1.00
C21    C     0.29260   0.16282   0.16941   0.00000  Uiso   1.00
C22    C     0.04383   0.17084   0.18262   0.00000  Uiso   1.00
C23    C     0.18748   0.02156   0.20402   0.00000  Uiso   1.00
C24    C     0.14475   0.31145   0.12998   0.00000  Uiso   1.00
C25    C     0.14518   0.02544   0.12952   0.00000  Uiso   1.00
C26    C     0.18799   0.30773   0.20375   0.00000  Uiso   1.00
N27    N     0.16667   0.28573   0.16667   0.00000  Uiso   1.00
N28    N     0.16667   0.04760   0.16667   0.00000  Uiso   1.00
C29    C     0.05478   0.10844   0.24782   0.00000  Uiso   1.00
C30    C     0.06741   0.06059   0.23135   0.00000  Uiso   1.00
C31    C     0.09274   0.03446   0.27328   0.00000  Uiso   1.00
H32    H     0.12174   0.05133   0.28348   0.00000  Uiso   1.00
H33    H     0.07401   0.03188   0.30694   0.00000  Uiso   1.00
H34    H     0.10164   0.00023   0.26047   0.00000  Uiso   1.00
H35    H     0.03976   0.04254   0.21981   0.00000  Uiso   1.00
H36    H     0.08643   0.06069   0.19816   0.00000  Uiso   1.00
H37    H     0.08364   0.12572   0.25734   0.00000  Uiso   1.00
H38    H     0.03917   0.10774   0.28397   0.00000  Uiso   1.00
C39    C     0.29149   0.22788   0.10293   0.00000  Uiso   1.00
C40    C     0.27620   0.20156   0.05766   0.00000  Uiso   1.00
C41    C     0.25571   0.23290   0.01671   0.00000  Uiso   1.00
H42    H     0.22808   0.25204   0.03090   0.00000  Uiso   1.00
H43    H     0.27837   0.25656   0.00404   0.00000  Uiso   1.00
H44    H     0.24522   0.21326   0.31744   0.00000  Uiso   1.00
H45    H     0.30325   0.18213   0.04249   0.00000  Uiso   1.00
H46    H     0.25315   0.17782   0.06882   0.00000  Uiso   1.00
H47    H     0.26595   0.25012   0.11710   0.00000  Uiso   1.00
H48    H     0.31452   0.25066   0.08896   0.00000  Uiso   1.00
C49    C     0.29642   0.10002   0.23752   0.00000  Uiso   1.00
C50    C     0.27678   0.12432   0.28157   0.00000  Uiso   1.00
C51    C     0.27196   0.09286   0.32619   0.00000  Uiso   1.00
H52    H     0.25607   0.06270   0.31451   0.00000  Uiso   1.00
H53    H     0.30319   0.08222   0.01043   0.00000  Uiso   1.00
H54    H     0.25315   0.11033   0.02122   0.00000  Uiso   1.00
H55    H     0.29689   0.15118   0.29440   0.00000  Uiso   1.00
H56    H     0.24601   0.14022   0.26908   0.00000  Uiso   1.00
H57    H     0.27474   0.08056   0.21509   0.00000  Uiso   1.00
H58    H     0.31873   0.07349   0.25326   0.00000  Uiso   1.00
C59    C     0.02263   0.25278   0.18528   0.00000  Uiso   1.00
C60    C     0.32680   0.25894   0.22927   0.00000  Uiso   1.00
C61    C     0.32686   0.30573   0.25033   0.00000  Uiso   1.00
H62    H     0.02507   0.31165   0.26662   0.00000  Uiso   1.00
H63    H     0.31712   0.33071   0.22025   0.00000  Uiso   1.00
H64    H     0.30427   0.30937   0.28035   0.00000  Uiso   1.00
H65    H     0.29410   0.25324   0.21668   0.00000  Uiso   1.00
H66    H     0.00333   0.23418   0.25968   0.00000  Uiso   1.00
H67    H     0.05507   0.25726   0.19972   0.00000  Uiso   1.00
H68    H     0.01478   0.27935   0.15635   0.00000  Uiso   1.00
O69    O     0.20901   0.04003   0.24313   0.00000  Uiso   1.00
H70    H     0.21303   0.07087   0.23327   0.00000  Uiso   1.00
O71    O     0.12048   0.29244   0.09322   0.00000  Uiso   1.00
H72    H     0.11411   0.26261   0.10539   0.00000  Uiso   1.00
O73    O     0.12218   0.04797   0.09115   0.00000  Uiso   1.00
H74    H     0.11466   0.07833   0.10226   0.00000  Uiso   1.00
O75    O     0.21073   0.28515   0.24228   0.00000  Uiso   1.00
H76    H     0.21851   0.25488   0.23107   0.00000  Uiso   1.00
O77    O     0.43892   0.20487   0.16666   0.00000  Uiso   1.00
O78    O     0.56108   0.12846   0.16667   0.00000  Uiso   1.00
O79    O     0.56108   0.20487   0.16667   0.00000  Uiso   1.00
O80    O     0.43892   0.12846   0.16666   0.00000  Uiso   1.00
C81    C     0.42047   0.16798   0.17113   0.00000  Uiso   1.00
C82    C     0.58045   0.16527   0.16718   0.00000  Uiso   1.00
O83    O     0.50000   0.20488   0.09511   0.00000  Uiso   1.00
O84    O     0.50000   0.12845   0.23822   0.00000  Uiso   1.00
O85    O     0.50000   0.20488   0.23822   0.00000  Uiso   1.00
O86    O     0.50000   0.12845   0.09511   0.00000  Uiso   1.00
C87    C     0.49937   0.16690   0.07300   0.00000  Uiso   1.00
C88    C     0.49921   0.16653   0.26025   0.00000  Uiso   1.00
Zn89   Zn    0.50000   0.21771   0.16667   0.00000  Uiso   1.00
Zn90   Zn    0.50000   0.11563   0.16667   0.00000  Uiso   1.00
C91    C     0.49891   0.16699   0.02176   0.00000  Uiso   1.00
C92    C     0.49883   0.16643   0.31144   0.00000  Uiso   1.00
C93    C     0.36030   0.13568   0.20847   0.00000  Uiso   1.00
C94    C     0.64562   0.19721   0.14432   0.00000  Uiso   1.00
C95    C     0.64994   0.13263   0.20370   0.00000  Uiso   1.00
C96    C     0.35164   0.20675   0.16293   0.00000  Uiso   1.00
C97    C     0.62594   0.16282   0.16941   0.00000  Uiso   1.00
C98    C     0.37716   0.17084   0.18262   0.00000  Uiso   1.00
C99    C     0.52081   0.02156   0.20402   0.00000  Uiso   1.00
C100   C     0.47808   0.31145   0.12998   0.00000  Uiso   1.00
C101   C     0.47851   0.02544   0.12952   0.00000  Uiso   1.00
C102   C     0.52133   0.30773   0.20375   0.00000  Uiso   1.00
N103   N     0.50000   0.28573   0.16667   0.00000  Uiso   1.00
N104   N     0.50000   0.04760   0.16667   0.00000  Uiso   1.00
C105   C     0.38812   0.10844   0.24782   0.00000  Uiso   1.00
C106   C     0.40074   0.06059   0.23135   0.00000  Uiso   1.00
C107   C     0.42607   0.03446   0.27328   0.00000  Uiso   1.00
H108   H     0.45507   0.05133   0.28348   0.00000  Uiso   1.00
H109   H     0.40734   0.03188   0.30694   0.00000  Uiso   1.00
H110   H     0.43497   0.00023   0.26047   0.00000  Uiso   1.00
H111   H     0.37310   0.04254   0.21981   0.00000  Uiso   1.00
H112   H     0.41977   0.06069   0.19816   0.00000  Uiso   1.00
H113   H     0.41698   0.12572   0.25734   0.00000  Uiso   1.00
H114   H     0.37250   0.10774   0.28397   0.00000  Uiso   1.00
C115   C     0.62482   0.22788   0.10293   0.00000  Uiso   1.00
C116   C     0.60953   0.20156   0.05766   0.00000  Uiso   1.00
C117   C     0.58905   0.23290   0.01671   0.00000  Uiso   1.00
H118   H     0.56141   0.25204   0.03090   0.00000  Uiso   1.00
H119   H     0.61171   0.25656   0.00404   0.00000  Uiso   1.00
H120   H     0.57855   0.21326   0.31744   0.00000  Uiso   1.00
H121   H     0.63658   0.18213   0.04249   0.00000  Uiso   1.00
H122   H     0.58649   0.17782   0.06882   0.00000  Uiso   1.00
H123   H     0.59928   0.25012   0.11710   0.00000  Uiso   1.00
H124   H     0.64786   0.25066   0.08896   0.00000  Uiso   1.00
C125   C     0.62975   0.10002   0.23752   0.00000  Uiso   1.00
C126   C     0.61011   0.12432   0.28157   0.00000  Uiso   1.00
C127   C     0.60529   0.09286   0.32619   0.00000  Uiso   1.00
H128   H     0.58941   0.06270   0.31451   0.00000  Uiso   1.00
H129   H     0.63653   0.08222   0.01043   0.00000  Uiso   1.00
H130   H     0.58648   0.11033   0.02122   0.00000  Uiso   1.00
H131   H     0.63023   0.15118   0.29440   0.00000  Uiso   1.00
H132   H     0.57934   0.14022   0.26908   0.00000  Uiso   1.00
H133   H     0.60808   0.08056   0.21509   0.00000  Uiso   1.00
H134   H     0.65207   0.07349   0.25326   0.00000  Uiso   1.00
C135   C     0.35596   0.25278   0.18528   0.00000  Uiso   1.00
C136   C     0.66013   0.25894   0.22927   0.00000  Uiso   1.00
C137   C     0.66019   0.30573   0.25033   0.00000  Uiso   1.00
H138   H     0.35840   0.31165   0.26662   0.00000  Uiso   1.00
H139   H     0.65045   0.33071   0.22025   0.00000  Uiso   1.00
H140   H     0.63761   0.30937   0.28035   0.00000  Uiso   1.00
H141   H     0.62744   0.25324   0.21668   0.00000  Uiso   1.00
H142   H     0.33667   0.23418   0.25968   0.00000  Uiso   1.00
H143   H     0.38841   0.25726   0.19972   0.00000  Uiso   1.00
H144   H     0.34811   0.27935   0.15635   0.00000  Uiso   1.00
O145   O     0.54235   0.04003   0.24313   0.00000  Uiso   1.00
H146   H     0.54637   0.07087   0.23327   0.00000  Uiso   1.00
O147   O     0.45382   0.29244   0.09322   0.00000  Uiso   1.00
H148   H     0.44745   0.26261   0.10539   0.00000  Uiso   1.00
O149   O     0.45551   0.04797   0.09115   0.00000  Uiso   1.00
H150   H     0.44799   0.07833   0.10226   0.00000  Uiso   1.00
O151   O     0.54407   0.28515   0.24228   0.00000  Uiso   1.00
H152   H     0.55184   0.25488   0.23107   0.00000  Uiso   1.00
O153   O     0.77226   0.20487   0.16666   0.00000  Uiso   1.00
O154   O     0.89441   0.12846   0.16667   0.00000  Uiso   1.00
O155   O     0.89441   0.20487   0.16667   0.00000  Uiso   1.00
O156   O     0.77226   0.12846   0.16666   0.00000  Uiso   1.00
C157   C     0.75380   0.16798   0.17113   0.00000  Uiso   1.00
C158   C     0.91378   0.16527   0.16718   0.00000  Uiso   1.00
O159   O     0.83334   0.20488   0.09511   0.00000  Uiso   1.00
O160   O     0.83333   0.12845   0.23822   0.00000  Uiso   1.00
O161   O     0.83333   0.20488   0.23822   0.00000  Uiso   1.00
O162   O     0.83334   0.12845   0.09511   0.00000  Uiso   1.00
C163   C     0.83270   0.16690   0.07300   0.00000  Uiso   1.00
C164   C     0.83254   0.16653   0.26025   0.00000  Uiso   1.00
Zn165  Zn    0.83333   0.21771   0.16667   0.00000  Uiso   1.00
Zn166  Zn    0.83333   0.11563   0.16667   0.00000  Uiso   1.00
C167   C     0.83224   0.16699   0.02176   0.00000  Uiso   1.00
C168   C     0.83217   0.16643   0.31144   0.00000  Uiso   1.00
C169   C     0.69364   0.13568   0.20847   0.00000  Uiso   1.00
C170   C     0.97895   0.19721   0.14432   0.00000  Uiso   1.00
C171   C     0.98327   0.13263   0.20370   0.00000  Uiso   1.00
C172   C     0.68497   0.20675   0.16293   0.00000  Uiso   1.00
C173   C     0.95927   0.16282   0.16941   0.00000  Uiso   1.00
C174   C     0.71050   0.17084   0.18262   0.00000  Uiso   1.00
C175   C     0.85415   0.02156   0.20402   0.00000  Uiso   1.00
C176   C     0.81141   0.31145   0.12998   0.00000  Uiso   1.00
C177   C     0.81185   0.02544   0.12952   0.00000  Uiso   1.00
C178   C     0.85466   0.30773   0.20375   0.00000  Uiso   1.00
N179   N     0.83333   0.28573   0.16667   0.00000  Uiso   1.00
N180   N     0.83333   0.04760   0.16667   0.00000  Uiso   1.00
C181   C     0.72145   0.10844   0.24782   0.00000  Uiso   1.00
C182   C     0.73407   0.06059   0.23135   0.00000  Uiso   1.00
C183   C     0.75941   0.03446   0.27328   0.00000  Uiso   1.00
H184   H     0.78841   0.05133   0.28348   0.00000  Uiso   1.00
H185   H     0.74068   0.03188   0.30694   0.00000  Uiso   1.00
H186   H     0.76831   0.00023   0.26047   0.00000  Uiso   1.00
H187   H     0.70643   0.04254   0.21981   0.00000  Uiso   1.00
H188   H     0.75310   0.06069   0.19816   0.00000  Uiso   1.00
H189   H     0.75031   0.12572   0.25734   0.00000  Uiso   1.00
H190   H     0.70584   0.10774   0.28397   0.00000  Uiso   1.00
C191   C     0.95815   0.22788   0.10293   0.00000  Uiso   1.00
C192   C     0.94286   0.20156   0.05766   0.00000  Uiso   1.00
C193   C     0.92238   0.23290   0.01671   0.00000  Uiso   1.00
H194   H     0.89475   0.25204   0.03090   0.00000  Uiso   1.00
H195   H     0.94504   0.25656   0.00404   0.00000  Uiso   1.00
H196   H     0.91188   0.21326   0.31744   0.00000  Uiso   1.00
H197   H     0.96992   0.18213   0.04249   0.00000  Uiso   1.00
H198   H     0.91982   0.17782   0.06882   0.00000  Uiso   1.00
H199   H     0.93261   0.25012   0.11710   0.00000  Uiso   1.00
H200   H     0.98119   0.25066   0.08896   0.00000  Uiso   1.00
C201   C     0.96309   0.10002   0.23752   0.00000  Uiso   1.00
C202   C     0.94345   0.12432   0.28157   0.00000  Uiso   1.00
C203   C     0.93863   0.09286   0.32619   0.00000  Uiso   1.00
H204   H     0.92274   0.06270   0.31451   0.00000  Uiso   1.00
H205   H     0.96986   0.08222   0.01043   0.00000  Uiso   1.00
H206   H     0.91982   0.11033   0.02122   0.00000  Uiso   1.00
H207   H     0.96356   0.15118   0.29440   0.00000  Uiso   1.00
H208   H     0.91267   0.14022   0.26908   0.00000  Uiso   1.00
H209   H     0.94141   0.08056   0.21509   0.00000  Uiso   1.00
H210   H     0.98540   0.07349   0.25326   0.00000  Uiso   1.00
C211   C     0.68929   0.25278   0.18528   0.00000  Uiso   1.00
C212   C     0.99346   0.25894   0.22927   0.00000  Uiso   1.00
C213   C     0.99352   0.30573   0.25033   0.00000  Uiso   1.00
H214   H     0.69174   0.31165   0.26662   0.00000  Uiso   1.00
H215   H     0.98378   0.33071   0.22025   0.00000  Uiso   1.00
H216   H     0.97094   0.30937   0.28035   0.00000  Uiso   1.00
H217   H     0.96077   0.25324   0.21668   0.00000  Uiso   1.00
H218   H     0.67000   0.23418   0.25968   0.00000  Uiso   1.00
H219   H     0.72174   0.25726   0.19972   0.00000  Uiso   1.00
H220   H     0.68144   0.27935   0.15635   0.00000  Uiso   1.00
O221   O     0.87568   0.04003   0.24313   0.00000  Uiso   1.00
H222   H     0.87970   0.07087   0.23327   0.00000  Uiso   1.00
O223   O     0.78715   0.29244   0.09322   0.00000  Uiso   1.00
H224   H     0.78078   0.26261   0.10539   0.00000  Uiso   1.00
O225   O     0.78885   0.04797   0.09115   0.00000  Uiso   1.00
H226   H     0.78132   0.07833   0.10226   0.00000  Uiso   1.00
O227   O     0.87740   0.28515   0.24228   0.00000  Uiso   1.00
H228   H     0.88517   0.25488   0.23107   0.00000  Uiso   1.00
O229   O     0.10559   0.53821   0.16666   0.00000  Uiso   1.00
O230   O     0.22774   0.46179   0.16667   0.00000  Uiso   1.00
O231   O     0.22774   0.53821   0.16667   0.00000  Uiso   1.00
O232   O     0.10559   0.46179   0.16666   0.00000  Uiso   1.00
C233   C     0.08714   0.50131   0.17113   0.00000  Uiso   1.00
C234   C     0.24711   0.49860   0.16718   0.00000  Uiso   1.00
O235   O     0.16667   0.53821   0.09511   0.00000  Uiso   1.00
O236   O     0.16666   0.46179   0.23822   0.00000  Uiso   1.00
O237   O     0.16666   0.53821   0.23822   0.00000  Uiso   1.00
O238   O     0.16667   0.46179   0.09511   0.00000  Uiso   1.00
C239   C     0.16604   0.50024   0.07300   0.00000  Uiso   1.00
C240   C     0.16587   0.49986   0.26025   0.00000  Uiso   1.00
Zn241  Zn    0.16667   0.55104   0.16667   0.00000  Uiso   1.00
Zn242  Zn    0.16667   0.44896   0.16667   0.00000  Uiso   1.00
C243   C     0.16558   0.50033   0.02176   0.00000  Uiso   1.00
C244   C     0.16550   0.49977   0.31144   0.00000  Uiso   1.00
C245   C     0.02697   0.46901   0.20847   0.00000  Uiso   1.00
C246   C     0.31228   0.53055   0.14432   0.00000  Uiso   1.00
C247   C     0.31660   0.46597   0.20370   0.00000  Uiso   1.00
C248   C     0.01831   0.54008   0.16293   0.00000  Uiso   1.00
C249   C     0.29260   0.49616   0.16941   0.00000  Uiso   1.00
C250   C     0.04383   0.50417   0.18262   0.00000  Uiso   1.00
C251   C     0.18748   0.35489   0.20402   0.00000  Uiso   1.00
C252   C     0.14475   0.64478   0.12998   0.00000  Uiso   1.00
C253   C     0.14518   0.35877   0.12952   0.00000  Uiso   1.00
C254   C     0.18799   0.64106   0.20375   0.00000  Uiso   1.00
N255   N     0.16667   0.61907   0.16667   0.00000  Uiso   1.00
N256   N     0.16667   0.38093   0.16667   0.00000  Uiso   1.00
C257   C     0.05478   0.44178   0.24782   0.00000  Uiso   1.00
C258   C     0.06741   0.39393   0.23135   0.00000  Uiso   1.00
C259   C     0.09274   0.36780   0.27328   0.00000  Uiso   1.00
H260   H     0.12174   0.38467   0.28348   0.00000  Uiso   1.00
H261   H     0.07401   0.36522   0.30694   0.00000  Uiso   1.00
H262   H     0.10164   0.33356   0.26047   0.00000  Uiso   1.00
H263   H     0.03976   0.37587   0.21981   0.00000  Uiso   1.00
H264   H     0.08643   0.39402   0.19816   0.00000  Uiso   1.00
H265   H     0.08364   0.45906   0.25734   0.00000  Uiso   1.00
H266   H     0.03917   0.44107   0.28397   0.00000  Uiso   1.00
C267   C     0.29149   0.56121   0.10293   0.00000  Uiso   1.00
C268   C     0.27620   0.53489   0.05766   0.00000  Uiso   1.00
C269   C     0.25571   0.56623   0.01671   0.00000  Uiso   1.00
H270   H     0.22808   0.58537   0.03090   0.00000  Uiso   1.00
H271   H     0.27837   0.58990   0.00404   0.00000  Uiso   1.00
H272   H     0.24522   0.54659   0.31744   0.00000  Uiso   1.00
H273   H     0.30325   0.51547   0.04249   0.00000  Uiso   1.00
H274   H     0.25315   0.51116   0.06882   0.00000  Uiso   1.00
H275   H     0.26595   0.58345   0.11710   0.00000  Uiso   1.00
H276   H     0.31452   0.58400   0.08896   0.00000  Uiso   1.00
C277   C     0.29642   0.43336   0.23752   0.00000  Uiso   1.00
C278   C     0.27678   0.45766   0.28157   0.00000  Uiso   1.00
C279   C     0.27196   0.42620   0.32619   0.00000  Uiso   1.00
H280   H     0.25607   0.39604   0.31451   0.00000  Uiso   1.00
H281   H     0.30319   0.41555   0.01043   0.00000  Uiso   1.00
H282   H     0.25315   0.44366   0.02122   0.00000  Uiso   1.00
H283   H     0.29689   0.48452   0.29440   0.00000  Uiso   1.00
H284   H     0.24601   0.47355   0.26908   0.00000  Uiso   1.00
H285   H     0.27474   0.41390   0.21509   0.00000  Uiso   1.00
H286   H     0.31873   0.40683   0.25326   0.00000  Uiso   1.00
C287   C     0.02263   0.58611   0.18528   0.00000  Uiso   1.00
C288   C     0.32680   0.59227   0.22927   0.00000  Uiso   1.00
C289   C     0.32686   0.63906   0.25033   0.00000  Uiso   1.00
H290   H     0.02507   0.64498   0.26662   0.00000  Uiso   1.00
H291   H     0.31712   0.66405   0.22025   0.00000  Uiso   1.00
H292   H     0.30427   0.64271   0.28035   0.00000  Uiso   1.00
H293   H     0.29410   0.58657   0.21668   0.00000  Uiso   1.00
H294   H     0.00333   0.56751   0.25968   0.00000  Uiso   1.00
H295   H     0.05507   0.59059   0.19972   0.00000  Uiso   1.00
H296   H     0.01478   0.61268   0.15635   0.00000  Uiso   1.00
O297   O     0.20901   0.37336   0.24313   0.00000  Uiso   1.00
H298   H     0.21303   0.40421   0.23327   0.00000  Uiso   1.00
O299   O     0.12048   0.62578   0.09322   0.00000  Uiso   1.00
H300   H     0.11411   0.59594   0.10539   0.00000  Uiso   1.00
O301   O     0.12218   0.38130   0.09115   0.00000  Uiso   1.00
H302   H     0.11466   0.41167   0.10226   0.00000  Uiso   1.00
O303   O     0.21073   0.61848   0.24228   0.00000  Uiso   1.00
H304   H     0.21851   0.58822   0.23107   0.00000  Uiso   1.00
O305   O     0.43892   0.53821   0.16666   0.00000  Uiso   1.00
O306   O     0.56108   0.46179   0.16667   0.00000  Uiso   1.00
O307   O     0.56108   0.53821   0.16667   0.00000  Uiso   1.00
O308   O     0.43892   0.46179   0.16666   0.00000  Uiso   1.00
C309   C     0.42047   0.50131   0.17113   0.00000  Uiso   1.00
C310   C     0.58045   0.49860   0.16718   0.00000  Uiso   1.00
O311   O     0.50000   0.53821   0.09511   0.00000  Uiso   1.00
O312   O     0.50000   0.46179   0.23822   0.00000  Uiso   1.00
O313   O     0.50000   0.53821   0.23822   0.00000  Uiso   1.00
O314   O     0.50000   0.46179   0.09511   0.00000  Uiso   1.00
C315   C     0.49937   0.50024   0.07300   0.00000  Uiso   1.00
C316   C     0.49921   0.49986   0.26025   0.00000  Uiso   1.00
Zn317  Zn    0.50000   0.55104   0.16667   0.00000  Uiso   1.00
Zn318  Zn    0.50000   0.44896   0.16667   0.00000  Uiso   1.00
C319   C     0.49891   0.50033   0.02176   0.00000  Uiso   1.00
C320   C     0.49883   0.49977   0.31144   0.00000  Uiso   1.00
C321   C     0.36030   0.46901   0.20847   0.00000  Uiso   1.00
C322   C     0.64562   0.53055   0.14432   0.00000  Uiso   1.00
C323   C     0.64994   0.46597   0.20370   0.00000  Uiso   1.00
C324   C     0.35164   0.54008   0.16293   0.00000  Uiso   1.00
C325   C     0.62594   0.49616   0.16941   0.00000  Uiso   1.00
C326   C     0.37716   0.50417   0.18262   0.00000  Uiso   1.00
C327   C     0.52081   0.35489   0.20402   0.00000  Uiso   1.00
C328   C     0.47808   0.64478   0.12998   0.00000  Uiso   1.00
C329   C     0.47851   0.35877   0.12952   0.00000  Uiso   1.00
C330   C     0.52133   0.64106   0.20375   0.00000  Uiso   1.00
N331   N     0.50000   0.61907   0.16667   0.00000  Uiso   1.00
N332   N     0.50000   0.38093   0.16667   0.00000  Uiso   1.00
C333   C     0.38812   0.44178   0.24782   0.00000  Uiso   1.00
C334   C     0.40074   0.39393   0.23135   0.00000  Uiso   1.00
C335   C     0.42607   0.36780   0.27328   0.00000  Uiso   1.00
H336   H     0.45507   0.38467   0.28348   0.00000  Uiso   1.00
H337   H     0.40734   0.36522   0.30694   0.00000  Uiso   1.00
H338   H     0.43497   0.33356   0.26047   0.00000  Uiso   1.00
H339   H     0.37310   0.37587   0.21981   0.00000  Uiso   1.00
H340   H     0.41977   0.39402   0.19816   0.00000  Uiso   1.00
H341   H     0.41698   0.45906   0.25734   0.00000  Uiso   1.00
H342   H     0.37250   0.44107   0.28397   0.00000  Uiso   1.00
C343   C     0.62482   0.56121   0.10293   0.00000  Uiso   1.00
C344   C     0.60953   0.53489   0.05766   0.00000  Uiso   1.00
C345   C     0.58905   0.56623   0.01671   0.00000  Uiso   1.00
H346   H     0.56141   0.58537   0.03090   0.00000  Uiso   1.00
H347   H     0.61171   0.58990   0.00404   0.00000  Uiso   1.00
H348   H     0.57855   0.54659   0.31744   0.00000  Uiso   1.00
H349   H     0.63658   0.51547   0.04249   0.00000  Uiso   1.00
H350   H     0.58649   0.51116   0.06882   0.00000  Uiso   1.00
H351   H     0.59928   0.58345   0.11710   0.00000  Uiso   1.00
H352   H     0.64786   0.58400   0.08896   0.00000  Uiso   1.00
C353   C     0.62975   0.43336   0.23752   0.00000  Uiso   1.00
C354   C     0.61011   0.45766   0.28157   0.00000  Uiso   1.00
C355   C     0.60529   0.42620   0.32619   0.00000  Uiso   1.00
H356   H     0.58941   0.39604   0.31451   0.00000  Uiso   1.00
H357   H     0.63653   0.41555   0.01043   0.00000  Uiso   1.00
H358   H     0.58648   0.44366   0.02122   0.00000  Uiso   1.00
H359   H     0.63023   0.48452   0.29440   0.00000  Uiso   1.00
H360   H     0.57934   0.47355   0.26908   0.00000  Uiso   1.00
H361   H     0.60808   0.41390   0.21509   0.00000  Uiso   1.00
H362   H     0.65207   0.40683   0.25326   0.00000  Uiso   1.00
C363   C     0.35596   0.58611   0.18528   0.00000  Uiso   1.00
C364   C     0.66013   0.59227   0.22927   0.00000  Uiso   1.00
C365   C     0.66019   0.63906   0.25033   0.00000  Uiso   1.00
H366   H     0.35840   0.64498   0.26662   0.00000  Uiso   1.00
H367   H     0.65045   0.66405   0.22025   0.00000  Uiso   1.00
H368   H     0.63761   0.64271   0.28035   0.00000  Uiso   1.00
H369   H     0.62744   0.58657   0.21668   0.00000  Uiso   1.00
H370   H     0.33667   0.56751   0.25968   0.00000  Uiso   1.00
H371   H     0.38841   0.59059   0.19972   0.00000  Uiso   1.00
H372   H     0.34811   0.61268   0.15635   0.00000  Uiso   1.00
O373   O     0.54235   0.37336   0.24313   0.00000  Uiso   1.00
H374   H     0.54637   0.40421   0.23327   0.00000  Uiso   1.00
O375   O     0.45382   0.62578   0.09322   0.00000  Uiso   1.00
H376   H     0.44745   0.59594   0.10539   0.00000  Uiso   1.00
O377   O     0.45551   0.38130   0.09115   0.00000  Uiso   1.00
H378   H     0.44799   0.41167   0.10226   0.00000  Uiso   1.00
O379   O     0.54407   0.61848   0.24228   0.00000  Uiso   1.00
H380   H     0.55184   0.58822   0.23107   0.00000  Uiso   1.00
O381   O     0.77226   0.53821   0.16666   0.00000  Uiso   1.00
O382   O     0.89441   0.46179   0.16667   0.00000  Uiso   1.00
O383   O     0.89441   0.53821   0.16667   0.00000  Uiso   1.00
O384   O     0.77226   0.46179   0.16666   0.00000  Uiso   1.00
C385   C     0.75380   0.50131   0.17113   0.00000  Uiso   1.00
C386   C     0.91378   0.49860   0.16718   0.00000  Uiso   1.00
O387   O     0.83334   0.53821   0.09511   0.00000  Uiso   1.00
O388   O     0.83333   0.46179   0.23822   0.00000  Uiso   1.00
O389   O     0.83333   0.53821   0.23822   0.00000  Uiso   1.00
O390   O     0.83334   0.46179   0.09511   0.00000  Uiso   1.00
C391   C     0.83270   0.50024   0.07300   0.00000  Uiso   1.00
C392   C     0.83254   0.49986   0.26025   0.00000  Uiso   1.00
Zn393  Zn    0.83333   0.55104   0.16667   0.00000  Uiso   1.00
Zn394  Zn    0.83333   0.44896   0.16667   0.00000  Uiso   1.00
C395   C     0.83224   0.50033   0.02176   0.00000  Uiso   1.00
C396   C     0.83217   0.49977   0.31144   0.00000  Uiso   1.00
C397   C     0.69364   0.46901   0.20847   0.00000  Uiso   1.00
C398   C     0.97895   0.53055   0.14432   0.00000  Uiso   1.00
C399   C     0.98327   0.46597   0.20370   0.00000  Uiso   1.00
C400   C     0.68497   0.54008   0.16293   0.00000  Uiso   1.00
C401   C     0.95927   0.49616   0.16941   0.00000  Uiso   1.00
C402   C     0.71050   0.50417   0.18262   0.00000  Uiso   1.00
C403   C     0.85415   0.35489   0.20402   0.00000  Uiso   1.00
C404   C     0.81141   0.64478   0.12998   0.00000  Uiso   1.00
C405   C     0.81185   0.35877   0.12952   0.00000  Uiso   1.00
C406   C     0.85466   0.64106   0.20375   0.00000  Uiso   1.00
N407   N     0.83333   0.61907   0.16667   0.00000  Uiso   1.00
N408   N     0.83333   0.38093   0.16667   0.00000  Uiso   1.00
C409   C     0.72145   0.44178   0.24782   0.00000  Uiso   1.00
C410   C     0.73407   0.39393   0.23135   0.00000  Uiso   1.00
C411   C     0.75941   0.36780   0.27328   0.00000  Uiso   1.00
H412   H     0.78841   0.38467   0.28348   0.00000  Uiso   1.00
H413   H     0.74068   0.36522   0.30694   0.00000  Uiso   1.00
H414   H     0.76831   0.33356   0.26047   0.00000  Uiso   1.00
H415   H     0.70643   0.37587   0.21981   0.00000  Uiso   1.00
H416   H     0.75310   0.39402   0.19816   0.00000  Uiso   1.00
H417   H     0.75031   0.45906   0.25734   0.00000  Uiso   1.00
H418   H     0.70584   0.44107   0.28397   0.00000  Uiso   1.00
C419   C     0.95815   0.56121   0.10293   0.00000  Uiso   1.00
C420   C     0.94286   0.53489   0.05766   0.00000  Uiso   1.00
C421   C     0.92238   0.56623   0.01671   0.00000  Uiso   1.00
H422   H     0.89475   0.58537   0.03090   0.00000  Uiso   1.00
H423   H     0.94504   0.58990   0.00404   0.00000  Uiso   1.00
H424   H     0.91188   0.54659   0.31744   0.00000  Uiso   1.00
H425   H     0.96992   0.51547   0.04249   0.00000  Uiso   1.00
H426   H     0.91982   0.51116   0.06882   0.00000  Uiso   1.00
H427   H     0.93261   0.58345   0.11710   0.00000  Uiso   1.00
H428   H     0.98119   0.58400   0.08896   0.00000  Uiso   1.00
C429   C     0.96309   0.43336   0.23752   0.00000  Uiso   1.00
C430   C     0.94345   0.45766   0.28157   0.00000  Uiso   1.00
C431   C     0.93863   0.42620   0.32619   0.00000  Uiso   1.00
H432   H     0.92274   0.39604   0.31451   0.00000  Uiso   1.00
H433   H     0.96986   0.41555   0.01043   0.00000  Uiso   1.00
H434   H     0.91982   0.44366   0.02122   0.00000  Uiso   1.00
H435   H     0.96356   0.48452   0.29440   0.00000  Uiso   1.00
H436   H     0.91267   0.47355   0.26908   0.00000  Uiso   1.00
H437   H     0.94141   0.41390   0.21509   0.00000  Uiso   1.00
H438   H     0.98540   0.40683   0.25326   0.00000  Uiso   1.00
C439   C     0.68929   0.58611   0.18528   0.00000  Uiso   1.00
C440   C     0.99346   0.59227   0.22927   0.00000  Uiso   1.00
C441   C     0.99352   0.63906   0.25033   0.00000  Uiso   1.00
H442   H     0.69174   0.64498   0.26662   0.00000  Uiso   1.00
H443   H     0.98378   0.66405   0.22025   0.00000  Uiso   1.00
H444   H     0.97094   0.64271   0.28035   0.00000  Uiso   1.00
H445   H     0.96077   0.58657   0.21668   0.00000  Uiso   1.00
H446   H     0.67000   0.56751   0.25968   0.00000  Uiso   1.00
H447   H     0.72174   0.59059   0.19972   0.00000  Uiso   1.00
H448   H     0.68144   0.61268   0.15635   0.00000  Uiso   1.00
O449   O     0.87568   0.37336   0.24313   0.00000  Uiso   1.00
H450   H     0.87970   0.40421   0.23327   0.00000  Uiso   1.00
O451   O     0.78715   0.62578   0.09322   0.00000  Uiso   1.00
H452   H     0.78078   0.59594   0.10539   0.00000  Uiso   1.00
O453   O     0.78885   0.38130   0.09115   0.00000  Uiso   1.00
H454   H     0.78132   0.41167   0.10226   0.00000  Uiso   1.00
O455   O     0.87740   0.61848   0.24228   0.00000  Uiso   1.00
H456   H     0.88517   0.58822   0.23107   0.00000  Uiso   1.00
O457   O     0.10559   0.87154   0.16666   0.00000  Uiso   1.00
O458   O     0.22774   0.79513   0.16667   0.00000  Uiso   1.00
O459   O     0.22774   0.87154   0.16667   0.00000  Uiso   1.00
O460   O     0.10559   0.79513   0.16666   0.00000  Uiso   1.00
C461   C     0.08714   0.83464   0.17113   0.00000  Uiso   1.00
C462   C     0.24711   0.83194   0.16718   0.00000  Uiso   1.00
O463   O     0.16667   0.87155   0.09511   0.00000  Uiso   1.00
O464   O     0.16666   0.79512   0.23822   0.00000  Uiso   1.00
O465   O     0.16666   0.87155   0.23822   0.00000  Uiso   1.00
O466   O     0.16667   0.79512   0.09511   0.00000  Uiso   1.00
C467   C     0.16604   0.83357   0.07300   0.00000  Uiso   1.00
C468   C     0.16587   0.83319   0.26025   0.00000  Uiso   1.00
Zn469  Zn    0.16667   0.88437   0.16667   0.00000  Uiso   1.00
Zn470  Zn    0.16667   0.78229   0.16667   0.00000  Uiso   1.00
C471   C     0.16558   0.83366   0.02176   0.00000  Uiso   1.00
C472   C     0.16550   0.83310   0.31144   0.00000  Uiso   1.00
C473   C     0.02697   0.80235   0.20847   0.00000  Uiso   1.00
C474   C     0.31228   0.86388   0.14432   0.00000  Uiso   1.00
C475   C     0.31660   0.79930   0.20370   0.00000  Uiso   1.00
C476   C     0.01831   0.87342   0.16293   0.00000  Uiso   1.00
C477   C     0.29260   0.82949   0.16941   0.00000  Uiso   1.00
C478   C     0.04383   0.83751   0.18262   0.00000  Uiso   1.00
C479   C     0.18748   0.68822   0.20402   0.00000  Uiso   1.00
C480   C     0.14475   0.97812   0.12998   0.00000  Uiso   1.00
C481   C     0.14518   0.69210   0.12952   0.00000  Uiso   1.00
C482   C     0.18799   0.97440   0.20375   0.00000  Uiso   1.00
N483   N     0.16667   0.95240   0.16667   0.00000  Uiso   1.00
N484   N     0.16667   0.71427   0.16667   0.00000  Uiso   1.00
C485   C     0.05478   0.77511   0.24782   0.00000  Uiso   1.00
C486   C     0.06741   0.72726   0.23135   0.00000  Uiso   1.00
C487   C     0.09274   0.70113   0.27328   0.00000  Uiso   1.00
H488   H     0.12174   0.71800   0.28348   0.00000  Uiso   1.00
H489   H     0.07401   0.69855   0.30694   0.00000  Uiso   1.00
H490   H     0.10164   0.66689   0.26047   0.00000  Uiso   1.00
H491   H     0.03976   0.70920   0.21981   0.00000  Uiso   1.00
H492   H     0.08643   0.72735   0.19816   0.00000  Uiso   1.00
H493   H     0.08364   0.79239   0.25734   0.00000  Uiso   1.00
H494   H     0.03917   0.77441   0.28397   0.00000  Uiso   1.00
C495   C     0.29149   0.89455   0.10293   0.00000  Uiso   1.00
C496   C     0.27620   0.86823   0.05766   0.00000  Uiso   1.00
C497   C     0.25571   0.89957   0.01671   0.00000  Uiso   1.00
H498   H     0.22808   0.91871   0.03090   0.00000  Uiso   1.00
H499   H     0.27837   0.92323   0.00404   0.00000  Uiso   1.00
H500   H     0.24522   0.87993   0.31744   0.00000  Uiso   1.00
H501   H     0.30325   0.84880   0.04249   0.00000  Uiso   1.00
H502   H     0.25315   0.84449   0.06882   0.00000  Uiso   1.00
H503   H     0.26595   0.91678   0.11710   0.00000  Uiso   1.00
H504   H     0.31452   0.91733   0.08896   0.00000  Uiso   1.00
C505   C     0.29642   0.76669   0.23752   0.00000  Uiso   1.00
C506   C     0.27678   0.79099   0.28157   0.00000  Uiso   1.00
C507   C     0.27196   0.75953   0.32619   0.00000  Uiso   1.00
H508   H     0.25607   0.72937   0.31451   0.00000  Uiso   1.00
H509   H     0.30319   0.74888   0.01043   0.00000  Uiso   1.00
H510   H     0.25315   0.77700   0.02122   0.00000  Uiso   1.00
H511   H     0.29689   0.81785   0.29440   0.00000  Uiso   1.00
H512   H     0.24601   0.80689   0.26908   0.00000  Uiso   1.00
H513   H     0.27474   0.74723   0.21509   0.00000  Uiso   1.00
H514   H     0.31873   0.74016   0.25326   0.00000  Uiso   1.00
C515   C     0.02263   0.91945   0.18528   0.00000  Uiso   1.00
C516   C     0.32680   0.92560   0.22927   0.00000  Uiso   1.00
C517   C     0.32686   0.97239   0.25033   0.00000  Uiso   1.00
H518   H     0.02507   0.97832   0.26662   0.00000  Uiso   1.00
H519   H     0.31712   0.99738   0.22025   0.00000  Uiso   1.00
H520   H     0.30427   0.97604   0.28035   0.00000  Uiso   1.00
H521   H     0.29410   0.91991   0.21668   0.00000  Uiso   1.00
H522   H     0.00333   0.90084   0.25968   0.00000  Uiso   1.00
H523   H     0.05507   0.92393   0.19972   0.00000  Uiso   1.00
H524   H     0.01478   0.94602   0.15635   0.00000  Uiso   1.00
O525   O     0.20901   0.70670   0.24313   0.00000  Uiso   1.00
H526   H     0.21303   0.73754   0.23327   0.00000  Uiso   1.00
O527   O     0.12048   0.95911   0.09322   0.00000  Uiso   1.00
H528   H     0.11411   0.92928   0.10539   0.00000  Uiso   1.00
O529   O     0.12218   0.71463   0.09115   0.00000  Uiso   1.00
H530   H     0.11466   0.74500   0.10226   0.00000  Uiso   1.00
O531   O     0.21073   0.95181   0.24228   0.00000  Uiso   1.00
H532   H     0.21851   0.92155   0.23107   0.00000  Uiso   1.00
O533   O     0.43892   0.87154   0.16666   0.00000  Uiso   1.00
O534   O     0.56108   0.79513   0.16667   0.00000  Uiso   1.00
O535   O     0.56108   0.87154   0.16667   0.00000  Uiso   1.00
O536   O     0.43892   0.79513   0.16666   0.00000  Uiso   1.00
C537   C     0.42047   0.83464   0.17113   0.00000  Uiso   1.00
C538   C     0.58045   0.83194   0.16718   0.00000  Uiso   1.00
O539   O     0.50000   0.87155   0.09511   0.00000  Uiso   1.00
O540   O     0.50000   0.79512   0.23822   0.00000  Uiso   1.00
O541   O     0.50000   0.87155   0.23822   0.00000  Uiso   1.00
O542   O     0.50000   0.79512   0.09511   0.00000  Uiso   1.00
C543   C     0.49937   0.83357   0.07300   0.00000  Uiso   1.00
C544   C     0.49921   0.83319   0.26025   0.00000  Uiso   1.00
Zn545  Zn    0.50000   0.88437   0.16667   0.00000  Uiso   1.00
Zn546  Zn    0.50000   0.78229   0.16667   0.00000  Uiso   1.00
C547   C     0.49891   0.83366   0.02176   0.00000  Uiso   1.00
C548   C     0.49883   0.83310   0.31144   0.00000  Uiso   1.00
C549   C     0.36030   0.80235   0.20847   0.00000  Uiso   1.00
C550   C     0.64562   0.86388   0.14432   0.00000  Uiso   1.00
C551   C     0.64994   0.79930   0.20370   0.00000  Uiso   1.00
C552   C     0.35164   0.87342   0.16293   0.00000  Uiso   1.00
C553   C     0.62594   0.82949   0.16941   0.00000  Uiso   1.00
C554   C     0.37716   0.83751   0.18262   0.00000  Uiso   1.00
C555   C     0.52081   0.68822   0.20402   0.00000  Uiso   1.00
C556   C     0.47808   0.97812   0.12998   0.00000  Uiso   1.00
C557   C     0.47851   0.69210   0.12952   0.00000  Uiso   1.00
C558   C     0.52133   0.97440   0.20375   0.00000  Uiso   1.00
N559   N     0.50000   0.95240   0.16667   0.00000  Uiso   1.00
N560   N     0.50000   0.71427   0.16667   0.00000  Uiso   1.00
C561   C     0.38812   0.77511   0.24782   0.00000  Uiso   1.00
C562   C     0.40074   0.72726   0.23135   0.00000  Uiso   1.00
C563   C     0.42607   0.70113   0.27328   0.00000  Uiso   1.00
H564   H     0.45507   0.71800   0.28348   0.00000  Uiso   1.00
H565   H     0.40734   0.69855   0.30694   0.00000  Uiso   1.00
H566   H     0.43497   0.66689   0.26047   0.00000  Uiso   1.00
H567   H     0.37310   0.70920   0.21981   0.00000  Uiso   1.00
H568   H     0.41977   0.72735   0.19816   0.00000  Uiso   1.00
H569   H     0.41698   0.79239   0.25734   0.00000  Uiso   1.00
H570   H     0.37250   0.77441   0.28397   0.00000  Uiso   1.00
C571   C     0.62482   0.89455   0.10293   0.00000  Uiso   1.00
C572   C     0.60953   0.86823   0.05766   0.00000  Uiso   1.00
C573   C     0.58905   0.89957   0.01671   0.00000  Uiso   1.00
H574   H     0.56141   0.91871   0.03090   0.00000  Uiso   1.00
H575   H     0.61171   0.92323   0.00404   0.00000  Uiso   1.00
H576   H     0.57855   0.87993   0.31744   0.00000  Uiso   1.00
H577   H     0.63658   0.84880   0.04249   0.00000  Uiso   1.00
H578   H     0.58649   0.84449   0.06882   0.00000  Uiso   1.00
H579   H     0.59928   0.91678   0.11710   0.00000  Uiso   1.00
H580   H     0.64786   0.91733   0.08896   0.00000  Uiso   1.00
C581   C     0.62975   0.76669   0.23752   0.00000  Uiso   1.00
C582   C     0.61011   0.79099   0.28157   0.00000  Uiso   1.00
C583   C     0.60529   0.75953   0.32619   0.00000  Uiso   1.00
H584   H     0.58941   0.72937   0.31451   0.00000  Uiso   1.00
H585   H     0.63653   0.74888   0.01043   0.00000  Uiso   1.00
H586   H     0.58648   0.77700   0.02122   0.00000  Uiso   1.00
H587   H     0.63023   0.81785   0.29440   0.00000  Uiso   1.00
H588   H     0.57934   0.80689   0.26908   0.00000  Uiso   1.00
H589   H     0.60808   0.74723   0.21509   0.00000  Uiso   1.00
H590   H     0.65207   0.74016   0.25326   0.00000  Uiso   1.00
C591   C     0.35596   0.91945   0.18528   0.00000  Uiso   1.00
C592   C     0.66013   0.92560   0.22927   0.00000  Uiso   1.00
C593   C     0.66019   0.97239   0.25033   0.00000  Uiso   1.00
H594   H     0.35840   0.97832   0.26662   0.00000  Uiso   1.00
H595   H     0.65045   0.99738   0.22025   0.00000  Uiso   1.00
H596   H     0.63761   0.97604   0.28035   0.00000  Uiso   1.00
H597   H     0.62744   0.91991   0.21668   0.00000  Uiso   1.00
H598   H     0.33667   0.90084   0.25968   0.00000  Uiso   1.00
H599   H     0.38841   0.92393   0.19972   0.00000  Uiso   1.00
H600   H     0.34811   0.94602   0.15635   0.00000  Uiso   1.00
O601   O     0.54235   0.70670   0.24313   0.00000  Uiso   1.00
H602   H     0.54637   0.73754   0.23327   0.00000  Uiso   1.00
O603   O     0.45382   0.95911   0.09322   0.00000  Uiso   1.00
H604   H     0.44745   0.92928   0.10539   0.00000  Uiso   1.00
O605   O     0.45551   0.71463   0.09115   0.00000  Uiso   1.00
H606   H     0.44799   0.74500   0.10226   0.00000  Uiso   1.00
O607   O     0.54407   0.95181   0.24228   0.00000  Uiso   1.00
H608   H     0.55184   0.92155   0.23107   0.00000  Uiso   1.00
O609   O     0.77226   0.87154   0.16666   0.00000  Uiso   1.00
O610   O     0.89441   0.79513   0.16667   0.00000  Uiso   1.00
O611   O     0.89441   0.87154   0.16667   0.00000  Uiso   1.00
O612   O     0.77226   0.79513   0.16666   0.00000  Uiso   1.00
C613   C     0.75380   0.83464   0.17113   0.00000  Uiso   1.00
C614   C     0.91378   0.83194   0.16718   0.00000  Uiso   1.00
O615   O     0.83334   0.87155   0.09511   0.00000  Uiso   1.00
O616   O     0.83333   0.79512   0.23822   0.00000  Uiso   1.00
O617   O     0.83333   0.87155   0.23822   0.00000  Uiso   1.00
O618   O     0.83334   0.79512   0.09511   0.00000  Uiso   1.00
C619   C     0.83270   0.83357   0.07300   0.00000  Uiso   1.00
C620   C     0.83254   0.83319   0.26025   0.00000  Uiso   1.00
Zn621  Zn    0.83333   0.88437   0.16667   0.00000  Uiso   1.00
Zn622  Zn    0.83333   0.78229   0.16667   0.00000  Uiso   1.00
C623   C     0.83224   0.83366   0.02176   0.00000  Uiso   1.00
C624   C     0.83217   0.83310   0.31144   0.00000  Uiso   1.00
C625   C     0.69364   0.80235   0.20847   0.00000  Uiso   1.00
C626   C     0.97895   0.86388   0.14432   0.00000  Uiso   1.00
C627   C     0.98327   0.79930   0.20370   0.00000  Uiso   1.00
C628   C     0.68497   0.87342   0.16293   0.00000  Uiso   1.00
C629   C     0.95927   0.82949   0.16941   0.00000  Uiso   1.00
C630   C     0.71050   0.83751   0.18262   0.00000  Uiso   1.00
C631   C     0.85415   0.68822   0.20402   0.00000  Uiso   1.00
C632   C     0.81141   0.97812   0.12998   0.00000  Uiso   1.00
C633   C     0.81185   0.69210   0.12952   0.00000  Uiso   1.00
C634   C     0.85466   0.97440   0.20375   0.00000  Uiso   1.00
N635   N     0.83333   0.95240   0.16667   0.00000  Uiso   1.00
N636   N     0.83333   0.71427   0.16667   0.00000  Uiso   1.00
C637   C     0.72145   0.77511   0.24782   0.00000  Uiso   1.00
C638   C     0.73407   0.72726   0.23135   0.00000  Uiso   1.00
C639   C     0.75941   0.70113   0.27328   0.00000  Uiso   1.00
H640   H     0.78841   0.71800   0.28348   0.00000  Uiso   1.00
H641   H     0.74068   0.69855   0.30694   0.00000  Uiso   1.00
H642   H     0.76831   0.66689   0.26047   0.00000  Uiso   1.00
H643   H     0.70643   0.70920   0.21981   0.00000  Uiso   1.00
H644   H     0.75310   0.72735   0.19816   0.00000  Uiso   1.00
H645   H     0.75031   0.79239   0.25734   0.00000  Uiso   1.00
H646   H     0.70584   0.77441   0.28397   0.00000  Uiso   1.00
C647   C     0.95815   0.89455   0.10293   0.00000  Uiso   1.00
C648   C     0.94286   0.86823   0.05766   0.00000  Uiso   1.00
C649   C     0.92238   0.89957   0.01671   0.00000  Uiso   1.00
H650   H     0.89475   0.91871   0.03090   0.00000  Uiso   1.00
H651   H     0.94504   0.92323   0.00404   0.00000  Uiso   1.00
H652   H     0.91188   0.87993   0.31744   0.00000  Uiso   1.00
H653   H     0.96992   0.84880   0.04249   0.00000  Uiso   1.00
H654   H     0.91982   0.84449   0.06882   0.00000  Uiso   1.00
H655   H     0.93261   0.91678   0.11710   0.00000  Uiso   1.00
H656   H     0.98119   0.91733   0.08896   0.00000  Uiso   1.00
C657   C     0.96309   0.76669   0.23752   0.00000  Uiso   1.00
C658   C     0.94345   0.79099   0.28157   0.00000  Uiso   1.00
C659   C     0.93863   0.75953   0.32619   0.00000  Uiso   1.00
H660   H     0.92274   0.72937   0.31451   0.00000  Uiso   1.00
H661   H     0.96986   0.74888   0.01043   0.00000  Uiso   1.00
H662   H     0.91982   0.77700   0.02122   0.00000  Uiso   1.00
H663   H     0.96356   0.81785   0.29440   0.00000  Uiso   1.00
H664   H     0.91267   0.80689   0.26908   0.00000  Uiso   1.00
H665   H     0.94141   0.74723   0.21509   0.00000  Uiso   1.00
H666   H     0.98540   0.74016   0.25326   0.00000  Uiso   1.00
C667   C     0.68929   0.91945   0.18528   0.00000  Uiso   1.00
C668   C     0.99346   0.92560   0.22927   0.00000  Uiso   1.00
C669   C     0.99352   0.97239   0.25033   0.00000  Uiso   1.00
H670   H     0.69174   0.97832   0.26662   0.00000  Uiso   1.00
H671   H     0.98378   0.99738   0.22025   0.00000  Uiso   1.00
H672   H     0.97094   0.97604   0.28035   0.00000  Uiso   1.00
H673   H     0.96077   0.91991   0.21668   0.00000  Uiso   1.00
H674   H     0.67000   0.90084   0.25968   0.00000  Uiso   1.00
H675   H     0.72174   0.92393   0.19972   0.00000  Uiso   1.00
H676   H     0.68144   0.94602   0.15635   0.00000  Uiso   1.00
O677   O     0.87568   0.70670   0.24313   0.00000  Uiso   1.00
H678   H     0.87970   0.73754   0.23327   0.00000  Uiso   1.00
O679   O     0.78715   0.95911   0.09322   0.00000  Uiso   1.00
H680   H     0.78078   0.92928   0.10539   0.00000  Uiso   1.00
O681   O     0.78885   0.71463   0.09115   0.00000  Uiso   1.00
H682   H     0.78132   0.74500   0.10226   0.00000  Uiso   1.00
O683   O     0.87740   0.95181   0.24228   0.00000  Uiso   1.00
H684   H     0.88517   0.92155   0.23107   0.00000  Uiso   1.00
O685   O     0.10559   0.20487   0.50000   0.00000  Uiso   1.00
O686   O     0.22774   0.12846   0.50000   0.00000  Uiso   1.00
O687   O     0.22774   0.20487   0.50000   0.00000  Uiso   1.00
O688   O     0.10559   0.12846   0.50000   0.00000  Uiso   1.00
C689   C     0.08714   0.16798   0.50446   0.00000  Uiso   1.00
C690   C     0.24711   0.16527   0.50052   0.00000  Uiso   1.00
O691   O     0.16667   0.20488   0.42845   0.00000  Uiso   1.00
O692   O     0.16666   0.12845   0.57155   0.00000  Uiso   1.00
O693   O     0.16666   0.20488   0.57155   0.00000  Uiso   1.00
O694   O     0.16667   0.12845   0.42845   0.00000  Uiso   1.00
C695   C     0.16604   0.16690   0.40633   0.00000  Uiso   1.00
C696   C     0.16587   0.16653   0.59358   0.00000  Uiso   1.00
Zn697  Zn    0.16667   0.21771   0.50000   0.00000  Uiso   1.00
Zn698  Zn    0.16667   0.11563   0.50000   0.00000  Uiso   1.00
C699   C     0.16558   0.16699   0.35509   0.00000  Uiso   1.00
C700   C     0.16550   0.16643   0.64477   0.00000  Uiso   1.00
C701   C     0.02697   0.13568   0.54181   0.00000  Uiso   1.00
C702   C     0.31228   0.19721   0.47766   0.00000  Uiso   1.00
C703   C     0.31660   0.13263   0.53703   0.00000  Uiso   1.00
C704   C     0.01831   0.20675   0.49626   0.00000  Uiso   1.00
C705   C     0.29260   0.16282   0.50274   0.00000  Uiso   1.00
C706   C     0.04383   0.17084   0.51595   0.00000  Uiso   1.00
C707   C     0.18748   0.02156   0.53736   0.00000  Uiso   1.00
C708   C     0.14475   0.31145   0.46332   0.00000  Uiso   1.00
C709   C     0.14518   0.02544   0.46285   0.00000  Uiso   1.00
C710   C     0.18799   0.30773   0.53708   0.00000  Uiso   1.00
N711   N     0.16667   0.28573   0.50000   0.00000  Uiso   1.00
N712   N     0.16667   0.04760   0.50000   0.00000  Uiso   1.00
C713   C     0.05478   0.10844   0.58115   0.00000  Uiso   1.00
C714   C     0.06741   0.06059   0.56468   0.00000  Uiso   1.00
C715   C     0.09274   0.03446   0.60661   0.00000  Uiso   1.00
H716   H     0.12174   0.05133   0.61682   0.00000  Uiso   1.00
H717   H     0.07401   0.03188   0.64027   0.00000  Uiso   1.00
H718   H     0.10164   0.00023   0.59381   0.00000  Uiso   1.00
H719   H     0.03976   0.04254   0.55314   0.00000  Uiso   1.00
H720   H     0.08643   0.06069   0.53149   0.00000  Uiso   1.00
H721   H     0.08364   0.12572   0.59067   0.00000  Uiso   1.00
H722   H     0.03917   0.10774   0.61730   0.00000  Uiso   1.00
C723   C     0.29149   0.22788   0.43627   0.00000  Uiso   1.00
C724   C     0.27620   0.20156   0.39099   0.00000  Uiso   1.00
C725   C     0.25571   0.23290   0.35004   0.00000  Uiso   1.00
H726   H     0.22808   0.25204   0.36423   0.00000  Uiso   1.00
H727   H     0.27837   0.25656   0.33737   0.00000  Uiso   1.00
H728   H     0.24522   0.21326   0.65077   0.00000  Uiso   1.00
H729   H     0.30325   0.18213   0.37583   0.00000  Uiso   1.00
H730   H     0.25315   0.17782   0.40215   0.00000  Uiso   1.00
H731   H     0.26595   0.25012   0.45043   0.00000  Uiso   1.00
H732   H     0.31452   0.25066   0.42229   0.00000  Uiso   1.00
C733   C     0.29642   0.10002   0.57085   0.00000  Uiso   1.00
C734   C     0.27678   0.12432   0.61490   0.00000  Uiso   1.00
C735   C     0.27196   0.09286   0.65952   0.00000  Uiso   1.00
H736   H     0.25607   0.06270   0.64784   0.00000  Uiso   1.00
H737   H     0.30319   0.08222   0.34376   0.00000  Uiso   1.00
H738   H     0.25315   0.11033   0.35455   0.00000  Uiso   1.00
H739   H     0.29689   0.15118   0.62773   0.00000  Uiso   1.00
H740   H     0.24601   0.14022   0.60241   0.00000  Uiso   1.00
H741   H     0.27474   0.08056   0.54842   0.00000  Uiso   1.00
H742   H     0.31873   0.07349   0.58659   0.00000  Uiso   1.00
C743   C     0.02263   0.25278   0.51862   0.00000  Uiso   1.00
C744   C     0.32680   0.25894   0.56260   0.00000  Uiso   1.00
C745   C     0.32686   0.30573   0.58366   0.00000  Uiso   1.00
H746   H     0.02507   0.31165   0.59995   0.00000  Uiso   1.00
H747   H     0.31712   0.33071   0.55358   0.00000  Uiso   1.00
H748   H     0.30427   0.30937   0.61368   0.00000  Uiso   1.00
H749   H     0.29410   0.25324   0.55002   0.00000  Uiso   1.00
H750   H     0.00333   0.23418   0.59301   0.00000  Uiso   1.00
H751   H     0.05507   0.25726   0.53305   0.00000  Uiso   1.00
H752   H     0.01478   0.27935   0.48968   0.00000  Uiso   1.00
O753   O     0.20901   0.04003   0.57646   0.00000  Uiso   1.00
H754   H     0.21303   0.07087   0.56661   0.00000  Uiso   1.00
O755   O     0.12048   0.29244   0.42656   0.00000  Uiso   1.00
H756   H     0.11411   0.26261   0.43872   0.00000  Uiso   1.00
O757   O     0.12218   0.04797   0.42448   0.00000  Uiso   1.00
H758   H     0.11466   0.07833   0.43559   0.00000  Uiso   1.00
O759   O     0.21073   0.28515   0.57561   0.00000  Uiso   1.00
H760   H     0.21851   0.25488   0.56441   0.00000  Uiso   1.00
O761   O     0.43892   0.20487   0.50000   0.00000  Uiso   1.00
O762   O     0.56108   0.12846   0.50000   0.00000  Uiso   1.00
O763   O     0.56108   0.20487   0.50000   0.00000  Uiso   1.00
O764   O     0.43892   0.12846   0.50000   0.00000  Uiso   1.00
C765   C     0.42047   0.16798   0.50446   0.00000  Uiso   1.00
C766   C     0.58045   0.16527   0.50052   0.00000  Uiso   1.00
O767   O     0.50000   0.20488   0.42845   0.00000  Uiso   1.00
O768   O     0.50000   0.12845   0.57155   0.00000  Uiso   1.00
O769   O     0.50000   0.20488   0.57155   0.00000  Uiso   1.00
O770   O     0.50000   0.12845   0.42845   0.00000  Uiso   1.00
C771   C     0.49937   0.16690   0.40633   0.00000  Uiso   1.00
C772   C     0.49921   0.16653   0.59358   0.00000  Uiso   1.00
Zn773  Zn    0.50000   0.21771   0.50000   0.00000  Uiso   1.00
Zn774  Zn    0.50000   0.11563   0.50000   0.00000  Uiso   1.00
C775   C     0.49891   0.16699   0.35509   0.00000  Uiso   1.00
C776   C     0.49883   0.16643   0.64477   0.00000  Uiso   1.00
C777   C     0.36030   0.13568   0.54181   0.00000  Uiso   1.00
C778   C     0.64562   0.19721   0.47766   0.00000  Uiso   1.00
C779   C     0.64994   0.13263   0.53703   0.00000  Uiso   1.00
C780   C     0.35164   0.20675   0.49626   0.00000  Uiso   1.00
C781   C     0.62594   0.16282   0.50274   0.00000  Uiso   1.00
C782   C     0.37716   0.17084   0.51595   0.00000  Uiso   1.00
C783   C     0.52081   0.02156   0.53736   0.00000  Uiso   1.00
C784   C     0.47808   0.31145   0.46332   0.00000  Uiso   1.00
C785   C     0.47851   0.02544   0.46285   0.00000  Uiso   1.00
C786   C     0.52133   0.30773   0.53708   0.00000  Uiso   1.00
N787   N     0.50000   0.28573   0.50000   0.00000  Uiso   1.00
N788   N     0.50000   0.04760   0.50000   0.00000  Uiso   1.00
C789   C     0.38812   0.10844   0.58115   0.00000  Uiso   1.00
C790   C     0.40074   0.06059   0.56468   0.00000  Uiso   1.00
C791   C     0.42607   0.03446   0.60661   0.00000  Uiso   1.00
H792   H     0.45507   0.05133   0.61682   0.00000  Uiso   1.00
H793   H     0.40734   0.03188   0.64027   0.00000  Uiso   1.00
H794   H     0.43497   0.00023   0.59381   0.00000  Uiso   1.00
H795   H     0.37310   0.04254   0.55314   0.00000  Uiso   1.00
H796   H     0.41977   0.06069   0.53149   0.00000  Uiso   1.00
H797   H     0.41698   0.12572   0.59067   0.00000  Uiso   1.00
H798   H     0.37250   0.10774   0.61730   0.00000  Uiso   1.00
C799   C     0.62482   0.22788   0.43627   0.00000  Uiso   1.00
C800   C     0.60953   0.20156   0.39099   0.00000  Uiso   1.00
C801   C     0.58905   0.23290   0.35004   0.00000  Uiso   1.00
H802   H     0.56141   0.25204   0.36423   0.00000  Uiso   1.00
H803   H     0.61171   0.25656   0.33737   0.00000  Uiso   1.00
H804   H     0.57855   0.21326   0.65077   0.00000  Uiso   1.00
H805   H     0.63658   0.18213   0.37583   0.00000  Uiso   1.00
H806   H     0.58649   0.17782   0.40215   0.00000  Uiso   1.00
H807   H     0.59928   0.25012   0.45043   0.00000  Uiso   1.00
H808   H     0.64786   0.25066   0.42229   0.00000  Uiso   1.00
C809   C     0.62975   0.10002   0.57085   0.00000  Uiso   1.00
C810   C     0.61011   0.12432   0.61490   0.00000  Uiso   1.00
C811   C     0.60529   0.09286   0.65952   0.00000  Uiso   1.00
H812   H     0.58941   0.06270   0.64784   0.00000  Uiso   1.00
H813   H     0.63653   0.08222   0.34376   0.00000  Uiso   1.00
H814   H     0.58648   0.11033   0.35455   0.00000  Uiso   1.00
H815   H     0.63023   0.15118   0.62773   0.00000  Uiso   1.00
H816   H     0.57934   0.14022   0.60241   0.00000  Uiso   1.00
H817   H     0.60808   0.08056   0.54842   0.00000  Uiso   1.00
H818   H     0.65207   0.07349   0.58659   0.00000  Uiso   1.00
C819   C     0.35596   0.25278   0.51862   0.00000  Uiso   1.00
C820   C     0.66013   0.25894   0.56260   0.00000  Uiso   1.00
C821   C     0.66019   0.30573   0.58366   0.00000  Uiso   1.00
H822   H     0.35840   0.31165   0.59995   0.00000  Uiso   1.00
H823   H     0.65045   0.33071   0.55358   0.00000  Uiso   1.00
H824   H     0.63761   0.30937   0.61368   0.00000  Uiso   1.00
H825   H     0.62744   0.25324   0.55002   0.00000  Uiso   1.00
H826   H     0.33667   0.23418   0.59301   0.00000  Uiso   1.00
H827   H     0.38841   0.25726   0.53305   0.00000  Uiso   1.00
H828   H     0.34811   0.27935   0.48968   0.00000  Uiso   1.00
O829   O     0.54235   0.04003   0.57646   0.00000  Uiso   1.00
H830   H     0.54637   0.07087   0.56661   0.00000  Uiso   1.00
O831   O     0.45382   0.29244   0.42656   0.00000  Uiso   1.00
H832   H     0.44745   0.26261   0.43872   0.00000  Uiso   1.00
O833   O     0.45551   0.04797   0.42448   0.00000  Uiso   1.00
H834   H     0.44799   0.07833   0.43559   0.00000  Uiso   1.00
O835   O     0.54407   0.28515   0.57561   0.00000  Uiso   1.00
H836   H     0.55184   0.25488   0.56441   0.00000  Uiso   1.00
O837   O     0.77226   0.20487   0.50000   0.00000  Uiso   1.00
O838   O     0.89441   0.12846   0.50000   0.00000  Uiso   1.00
O839   O     0.89441   0.20487   0.50000   0.00000  Uiso   1.00
O840   O     0.77226   0.12846   0.50000   0.00000  Uiso   1.00
C841   C     0.75380   0.16798   0.50446   0.00000  Uiso   1.00
C842   C     0.91378   0.16527   0.50052   0.00000  Uiso   1.00
O843   O     0.83334   0.20488   0.42845   0.00000  Uiso   1.00
O844   O     0.83333   0.12845   0.57155   0.00000  Uiso   1.00
O845   O     0.83333   0.20488   0.57155   0.00000  Uiso   1.00
O846   O     0.83334   0.12845   0.42845   0.00000  Uiso   1.00
C847   C     0.83270   0.16690   0.40633   0.00000  Uiso   1.00
C848   C     0.83254   0.16653   0.59358   0.00000  Uiso   1.00
Zn849  Zn    0.83333   0.21771   0.50000   0.00000  Uiso   1.00
Zn850  Zn    0.83333   0.11563   0.50000   0.00000  Uiso   1.00
C851   C     0.83224   0.16699   0.35509   0.00000  Uiso   1.00
C852   C     0.83217   0.16643   0.64477   0.00000  Uiso   1.00
C853   C     0.69364   0.13568   0.54181   0.00000  Uiso   1.00
C854   C     0.97895   0.19721   0.47766   0.00000  Uiso   1.00
C855   C     0.98327   0.13263   0.53703   0.00000  Uiso   1.00
C856   C     0.68497   0.20675   0.49626   0.00000  Uiso   1.00
C857   C     0.95927   0.16282   0.50274   0.00000  Uiso   1.00
C858   C     0.71050   0.17084   0.51595   0.00000  Uiso   1.00
C859   C     0.85415   0.02156   0.53736   0.00000  Uiso   1.00
C860   C     0.81141   0.31145   0.46332   0.00000  Uiso   1.00
C861   C     0.81185   0.02544   0.46285   0.00000  Uiso   1.00
C862   C     0.85466   0.30773   0.53708   0.00000  Uiso   1.00
N863   N     0.83333   0.28573   0.50000   0.00000  Uiso   1.00
N864   N     0.83333   0.04760   0.50000   0.00000  Uiso   1.00
C865   C     0.72145   0.10844   0.58115   0.00000  Uiso   1.00
C866   C     0.73407   0.06059   0.56468   0.00000  Uiso   1.00
C867   C     0.75941   0.03446   0.60661   0.00000  Uiso   1.00
H868   H     0.78841   0.05133   0.61682   0.00000  Uiso   1.00
H869   H     0.74068   0.03188   0.64027   0.00000  Uiso   1.00
H870   H     0.76831   0.00023   0.59381   0.00000  Uiso   1.00
H871   H     0.70643   0.04254   0.55314   0.00000  Uiso   1.00
H872   H     0.75310   0.06069   0.53149   0.00000  Uiso   1.00
H873   H     0.75031   0.12572   0.59067   0.00000  Uiso   1.00
H874   H     0.70584   0.10774   0.61730   0.00000  Uiso   1.00
C875   C     0.95815   0.22788   0.43627   0.00000  Uiso   1.00
C876   C     0.94286   0.20156   0.39099   0.00000  Uiso   1.00
C877   C     0.92238   0.23290   0.35004   0.00000  Uiso   1.00
H878   H     0.89475   0.25204   0.36423   0.00000  Uiso   1.00
H879   H     0.94504   0.25656   0.33737   0.00000  Uiso   1.00
H880   H     0.91188   0.21326   0.65077   0.00000  Uiso   1.00
H881   H     0.96992   0.18213   0.37583   0.00000  Uiso   1.00
H882   H     0.91982   0.17782   0.40215   0.00000  Uiso   1.00
H883   H     0.93261   0.25012   0.45043   0.00000  Uiso   1.00
H884   H     0.98119   0.25066   0.42229   0.00000  Uiso   1.00
C885   C     0.96309   0.10002   0.57085   0.00000  Uiso   1.00
C886   C     0.94345   0.12432   0.61490   0.00000  Uiso   1.00
C887   C     0.93863   0.09286   0.65952   0.00000  Uiso   1.00
H888   H     0.92274   0.06270   0.64784   0.00000  Uiso   1.00
H889   H     0.96986   0.08222   0.34376   0.00000  Uiso   1.00
H890   H     0.91982   0.11033   0.35455   0.00000  Uiso   1.00
H891   H     0.96356   0.15118   0.62773   0.00000  Uiso   1.00
H892   H     0.91267   0.14022   0.60241   0.00000  Uiso   1.00
H893   H     0.94141   0.08056   0.54842   0.00000  Uiso   1.00
H894   H     0.98540   0.07349   0.58659   0.00000  Uiso   1.00
C895   C     0.68929   0.25278   0.51862   0.00000  Uiso   1.00
C896   C     0.99346   0.25894   0.56260   0.00000  Uiso   1.00
C897   C     0.99352   0.30573   0.58366   0.00000  Uiso   1.00
H898   H     0.69174   0.31165   0.59995   0.00000  Uiso   1.00
H899   H     0.98378   0.33071   0.55358   0.00000  Uiso   1.00
H900   H     0.97094   0.30937   0.61368   0.00000  Uiso   1.00
H901   H     0.96077   0.25324   0.55002   0.00000  Uiso   1.00
H902   H     0.67000   0.23418   0.59301   0.00000  Uiso   1.00
H903   H     0.72174   0.25726   0.53305   0.00000  Uiso   1.00
H904   H     0.68144   0.27935   0.48968   0.00000  Uiso   1.00
O905   O     0.87568   0.04003   0.57646   0.00000  Uiso   1.00
H906   H     0.87970   0.07087   0.56661   0.00000  Uiso   1.00
O907   O     0.78715   0.29244   0.42656   0.00000  Uiso   1.00
H908   H     0.78078   0.26261   0.43872   0.00000  Uiso   1.00
O909   O     0.78885   0.04797   0.42448   0.00000  Uiso   1.00
H910   H     0.78132   0.07833   0.43559   0.00000  Uiso   1.00
O911   O     0.87740   0.28515   0.57561   0.00000  Uiso   1.00
H912   H     0.88517   0.25488   0.56441   0.00000  Uiso   1.00
O913   O     0.10559   0.53821   0.50000   0.00000  Uiso   1.00
O914   O     0.22774   0.46179   0.50000   0.00000  Uiso   1.00
O915   O     0.22774   0.53821   0.50000   0.00000  Uiso   1.00
O916   O     0.10559   0.46179   0.50000   0.00000  Uiso   1.00
C917   C     0.08714   0.50131   0.50446   0.00000  Uiso   1.00
C918   C     0.24711   0.49860   0.50052   0.00000  Uiso   1.00
O919   O     0.16667   0.53821   0.42845   0.00000  Uiso   1.00
O920   O     0.16666   0.46179   0.57155   0.00000  Uiso   1.00
O921   O     0.16666   0.53821   0.57155   0.00000  Uiso   1.00
O922   O     0.16667   0.46179   0.42845   0.00000  Uiso   1.00
C923   C     0.16604   0.50024   0.40633   0.00000  Uiso   1.00
C924   C     0.16587   0.49986   0.59358   0.00000  Uiso   1.00
Zn925  Zn    0.16667   0.55104   0.50000   0.00000  Uiso   1.00
Zn926  Zn    0.16667   0.44896   0.50000   0.00000  Uiso   1.00
C927   C     0.16558   0.50033   0.35509   0.00000  Uiso   1.00
C928   C     0.16550   0.49977   0.64477   0.00000  Uiso   1.00
C929   C     0.02697   0.46901   0.54181   0.00000  Uiso   1.00
C930   C     0.31228   0.53055   0.47766   0.00000  Uiso   1.00
C931   C     0.31660   0.46597   0.53703   0.00000  Uiso   1.00
C932   C     0.01831   0.54008   0.49626   0.00000  Uiso   1.00
C933   C     0.29260   0.49616   0.50274   0.00000  Uiso   1.00
C934   C     0.04383   0.50417   0.51595   0.00000  Uiso   1.00
C935   C     0.18748   0.35489   0.53736   0.00000  Uiso   1.00
C936   C     0.14475   0.64478   0.46332   0.00000  Uiso   1.00
C937   C     0.14518   0.35877   0.46285   0.00000  Uiso   1.00
C938   C     0.18799   0.64106   0.53708   0.00000  Uiso   1.00
N939   N     0.16667   0.61907   0.50000   0.00000  Uiso   1.00
N940   N     0.16667   0.38093   0.50000   0.00000  Uiso   1.00
C941   C     0.05478   0.44178   0.58115   0.00000  Uiso   1.00
C942   C     0.06741   0.39393   0.56468   0.00000  Uiso   1.00
C943   C     0.09274   0.36780   0.60661   0.00000  Uiso   1.00
H944   H     0.12174   0.38467   0.61682   0.00000  Uiso   1.00
H945   H     0.07401   0.36522   0.64027   0.00000  Uiso   1.00
H946   H     0.10164   0.33356   0.59381   0.00000  Uiso   1.00
H947   H     0.03976   0.37587   0.55314   0.00000  Uiso   1.00
H948   H     0.08643   0.39402   0.53149   0.00000  Uiso   1.00
H949   H     0.08364   0.45906   0.59067   0.00000  Uiso   1.00
H950   H     0.03917   0.44107   0.61730   0.00000  Uiso   1.00
C951   C     0.29149   0.56121   0.43627   0.00000  Uiso   1.00
C952   C     0.27620   0.53489   0.39099   0.00000  Uiso   1.00
C953   C     0.25571   0.56623   0.35004   0.00000  Uiso   1.00
H954   H     0.22808   0.58537   0.36423   0.00000  Uiso   1.00
H955   H     0.27837   0.58990   0.33737   0.00000  Uiso   1.00
H956   H     0.24522   0.54659   0.65077   0.00000  Uiso   1.00
H957   H     0.30325   0.51547   0.37583   0.00000  Uiso   1.00
H958   H     0.25315   0.51116   0.40215   0.00000  Uiso   1.00
H959   H     0.26595   0.58345   0.45043   0.00000  Uiso   1.00
H960   H     0.31452   0.58400   0.42229   0.00000  Uiso   1.00
C961   C     0.29642   0.43336   0.57085   0.00000  Uiso   1.00
C962   C     0.27678   0.45766   0.61490   0.00000  Uiso   1.00
C963   C     0.27196   0.42620   0.65952   0.00000  Uiso   1.00
H964   H     0.25607   0.39604   0.64784   0.00000  Uiso   1.00
H965   H     0.30319   0.41555   0.34376   0.00000  Uiso   1.00
H966   H     0.25315   0.44366   0.35455   0.00000  Uiso   1.00
H967   H     0.29689   0.48452   0.62773   0.00000  Uiso   1.00
H968   H     0.24601   0.47355   0.60241   0.00000  Uiso   1.00
H969   H     0.27474   0.41390   0.54842   0.00000  Uiso   1.00
H970   H     0.31873   0.40683   0.58659   0.00000  Uiso   1.00
C971   C     0.02263   0.58611   0.51862   0.00000  Uiso   1.00
C972   C     0.32680   0.59227   0.56260   0.00000  Uiso   1.00
C973   C     0.32686   0.63906   0.58366   0.00000  Uiso   1.00
H974   H     0.02507   0.64498   0.59995   0.00000  Uiso   1.00
H975   H     0.31712   0.66405   0.55358   0.00000  Uiso   1.00
H976   H     0.30427   0.64271   0.61368   0.00000  Uiso   1.00
H977   H     0.29410   0.58657   0.55002   0.00000  Uiso   1.00
H978   H     0.00333   0.56751   0.59301   0.00000  Uiso   1.00
H979   H     0.05507   0.59059   0.53305   0.00000  Uiso   1.00
H980   H     0.01478   0.61268   0.48968   0.00000  Uiso   1.00
O981   O     0.20901   0.37336   0.57646   0.00000  Uiso   1.00
H982   H     0.21303   0.40421   0.56661   0.00000  Uiso   1.00
O983   O     0.12048   0.62578   0.42656   0.00000  Uiso   1.00
H984   H     0.11411   0.59594   0.43872   0.00000  Uiso   1.00
O985   O     0.12218   0.38130   0.42448   0.00000  Uiso   1.00
H986   H     0.11466   0.41167   0.43559   0.00000  Uiso   1.00
O987   O     0.21073   0.61848   0.57561   0.00000  Uiso   1.00
H988   H     0.21851   0.58822   0.56441   0.00000  Uiso   1.00
O989   O     0.43892   0.53821   0.50000   0.00000  Uiso   1.00
O990   O     0.56108   0.46179   0.50000   0.00000  Uiso   1.00
O991   O     0.56108   0.53821   0.50000   0.00000  Uiso   1.00
O992   O     0.43892   0.46179   0.50000   0.00000  Uiso   1.00
C993   C     0.42047   0.50131   0.50446   0.00000  Uiso   1.00
C994   C     0.58045   0.49860   0.50052   0.00000  Uiso   1.00
O995   O     0.50000   0.53821   0.42845   0.00000  Uiso   1.00
O996   O     0.50000   0.46179   0.57155   0.00000  Uiso   1.00
O997   O     0.50000   0.53821   0.57155   0.00000  Uiso   1.00
O998   O     0.50000   0.46179   0.42845   0.00000  Uiso   1.00
C999   C     0.49937   0.50024   0.40633   0.00000  Uiso   1.00
C1000  C     0.49921   0.49986   0.59358   0.00000  Uiso   1.00
Zn1001 Zn    0.50000   0.55104   0.50000   0.00000  Uiso   1.00
Zn1002 Zn    0.50000   0.44896   0.50000   0.00000  Uiso   1.00
C1003  C     0.49891   0.50033   0.35509   0.00000  Uiso   1.00
C1004  C     0.49883   0.49977   0.64477   0.00000  Uiso   1.00
C1005  C     0.36030   0.46901   0.54181   0.00000  Uiso   1.00
C1006  C     0.64562   0.53055   0.47766   0.00000  Uiso   1.00
C1007  C     0.64994   0.46597   0.53703   0.00000  Uiso   1.00
C1008  C     0.35164   0.54008   0.49626   0.00000  Uiso   1.00
C1009  C     0.62594   0.49616   0.50274   0.00000  Uiso   1.00
C1010  C     0.37716   0.50417   0.51595   0.00000  Uiso   1.00
C1011  C     0.52081   0.35489   0.53736   0.00000  Uiso   1.00
C1012  C     0.47808   0.64478   0.46332   0.00000  Uiso   1.00
C1013  C     0.47851   0.35877   0.46285   0.00000  Uiso   1.00
C1014  C     0.52133   0.64106   0.53708   0.00000  Uiso   1.00
N1015  N     0.50000   0.61907   0.50000   0.00000  Uiso   1.00
N1016  N     0.50000   0.38093   0.50000   0.00000  Uiso   1.00
C1017  C     0.38812   0.44178   0.58115   0.00000  Uiso   1.00
C1018  C     0.40074   0.39393   0.56468   0.00000  Uiso   1.00
C1019  C     0.42607   0.36780   0.60661   0.00000  Uiso   1.00
H1020  H     0.45507   0.38467   0.61682   0.00000  Uiso   1.00
H1021  H     0.40734   0.36522   0.64027   0.00000  Uiso   1.00
H1022  H     0.43497   0.33356   0.59381   0.00000  Uiso   1.00
H1023  H     0.37310   0.37587   0.55314   0.00000  Uiso   1.00
H1024  H     0.41977   0.39402   0.53149   0.00000  Uiso   1.00
H1025  H     0.41698   0.45906   0.59067   0.00000  Uiso   1.00
H1026  H     0.37250   0.44107   0.61730   0.00000  Uiso   1.00
C1027  C     0.62482   0.56121   0.43627   0.00000  Uiso   1.00
C1028  C     0.60953   0.53489   0.39099   0.00000  Uiso   1.00
C1029  C     0.58905   0.56623   0.35004   0.00000  Uiso   1.00
H1030  H     0.56141   0.58537   0.36423   0.00000  Uiso   1.00
H1031  H     0.61171   0.58990   0.33737   0.00000  Uiso   1.00
H1032  H     0.57855   0.54659   0.65077   0.00000  Uiso   1.00
H1033  H     0.63658   0.51547   0.37583   0.00000  Uiso   1.00
H1034  H     0.58649   0.51116   0.40215   0.00000  Uiso   1.00
H1035  H     0.59928   0.58345   0.45043   0.00000  Uiso   1.00
H1036  H     0.64786   0.58400   0.42229   0.00000  Uiso   1.00
C1037  C     0.62975   0.43336   0.57085   0.00000  Uiso   1.00
C1038  C     0.61011   0.45766   0.61490   0.00000  Uiso   1.00
C1039  C     0.60529   0.42620   0.65952   0.00000  Uiso   1.00
H1040  H     0.58941   0.39604   0.64784   0.00000  Uiso   1.00
H1041  H     0.63653   0.41555   0.34376   0.00000  Uiso   1.00
H1042  H     0.58648   0.44366   0.35455   0.00000  Uiso   1.00
H1043  H     0.63023   0.48452   0.62773   0.00000  Uiso   1.00
H1044  H     0.57934   0.47355   0.60241   0.00000  Uiso   1.00
H1045  H     0.60808   0.41390   0.54842   0.00000  Uiso   1.00
H1046  H     0.65207   0.40683   0.58659   0.00000  Uiso   1.00
C1047  C     0.35596   0.58611   0.51862   0.00000  Uiso   1.00
C1048  C     0.66013   0.59227   0.56260   0.00000  Uiso   1.00
C1049  C     0.66019   0.63906   0.58366   0.00000  Uiso   1.00
H1050  H     0.35840   0.64498   0.59995   0.00000  Uiso   1.00
H1051  H     0.65045   0.66405   0.55358   0.00000  Uiso   1.00
H1052  H     0.63761   0.64271   0.61368   0.00000  Uiso   1.00
H1053  H     0.62744   0.58657   0.55002   0.00000  Uiso   1.00
H1054  H     0.33667   0.56751   0.59301   0.00000  Uiso   1.00
H1055  H     0.38841   0.59059   0.53305   0.00000  Uiso   1.00
H1056  H     0.34811   0.61268   0.48968   0.00000  Uiso   1.00
O1057  O     0.54235   0.37336   0.57646   0.00000  Uiso   1.00
H1058  H     0.54637   0.40421   0.56661   0.00000  Uiso   1.00
O1059  O     0.45382   0.62578   0.42656   0.00000  Uiso   1.00
H1060  H     0.44745   0.59594   0.43872   0.00000  Uiso   1.00
O1061  O     0.45551   0.38130   0.42448   0.00000  Uiso   1.00
H1062  H     0.44799   0.41167   0.43559   0.00000  Uiso   1.00
O1063  O     0.54407   0.61848   0.57561   0.00000  Uiso   1.00
H1064  H     0.55184   0.58822   0.56441   0.00000  Uiso   1.00
O1065  O     0.77226   0.53821   0.50000   0.00000  Uiso   1.00
O1066  O     0.89441   0.46179   0.50000   0.00000  Uiso   1.00
O1067  O     0.89441   0.53821   0.50000   0.00000  Uiso   1.00
O1068  O     0.77226   0.46179   0.50000   0.00000  Uiso   1.00
C1069  C     0.75380   0.50131   0.50446   0.00000  Uiso   1.00
C1070  C     0.91378   0.49860   0.50052   0.00000  Uiso   1.00
O1071  O     0.83334   0.53821   0.42845   0.00000  Uiso   1.00
O1072  O     0.83333   0.46179   0.57155   0.00000  Uiso   1.00
O1073  O     0.83333   0.53821   0.57155   0.00000  Uiso   1.00
O1074  O     0.83334   0.46179   0.42845   0.00000  Uiso   1.00
C1075  C     0.83270   0.50024   0.40633   0.00000  Uiso   1.00
C1076  C     0.83254   0.49986   0.59358   0.00000  Uiso   1.00
Zn1077 Zn    0.83333   0.55104   0.50000   0.00000  Uiso   1.00
Zn1078 Zn    0.83333   0.44896   0.50000   0.00000  Uiso   1.00
C1079  C     0.83224   0.50033   0.35509   0.00000  Uiso   1.00
C1080  C     0.83217   0.49977   0.64477   0.00000  Uiso   1.00
C1081  C     0.69364   0.46901   0.54181   0.00000  Uiso   1.00
C1082  C     0.97895   0.53055   0.47766   0.00000  Uiso   1.00
C1083  C     0.98327   0.46597   0.53703   0.00000  Uiso   1.00
C1084  C     0.68497   0.54008   0.49626   0.00000  Uiso   1.00
C1085  C     0.95927   0.49616   0.50274   0.00000  Uiso   1.00
C1086  C     0.71050   0.50417   0.51595   0.00000  Uiso   1.00
C1087  C     0.85415   0.35489   0.53736   0.00000  Uiso   1.00
C1088  C     0.81141   0.64478   0.46332   0.00000  Uiso   1.00
C1089  C     0.81185   0.35877   0.46285   0.00000  Uiso   1.00
C1090  C     0.85466   0.64106   0.53708   0.00000  Uiso   1.00
N1091  N     0.83333   0.61907   0.50000   0.00000  Uiso   1.00
N1092  N     0.83333   0.38093   0.50000   0.00000  Uiso   1.00
C1093  C     0.72145   0.44178   0.58115   0.00000  Uiso   1.00
C1094  C     0.73407   0.39393   0.56468   0.00000  Uiso   1.00
C1095  C     0.75941   0.36780   0.60661   0.00000  Uiso   1.00
H1096  H     0.78841   0.38467   0.61682   0.00000  Uiso   1.00
H1097  H     0.74068   0.36522   0.64027   0.00000  Uiso   1.00
H1098  H     0.76831   0.33356   0.59381   0.00000  Uiso   1.00
H1099  H     0.70643   0.37587   0.55314   0.00000  Uiso   1.00
H1100  H     0.75310   0.39402   0.53149   0.00000  Uiso   1.00
H1101  H     0.75031   0.45906   0.59067   0.00000  Uiso   1.00
H1102  H     0.70584   0.44107   0.61730   0.00000  Uiso   1.00
C1103  C     0.95815   0.56121   0.43627   0.00000  Uiso   1.00
C1104  C     0.94286   0.53489   0.39099   0.00000  Uiso   1.00
C1105  C     0.92238   0.56623   0.35004   0.00000  Uiso   1.00
H1106  H     0.89475   0.58537   0.36423   0.00000  Uiso   1.00
H1107  H     0.94504   0.58990   0.33737   0.00000  Uiso   1.00
H1108  H     0.91188   0.54659   0.65077   0.00000  Uiso   1.00
H1109  H     0.96992   0.51547   0.37583   0.00000  Uiso   1.00
H1110  H     0.91982   0.51116   0.40215   0.00000  Uiso   1.00
H1111  H     0.93261   0.58345   0.45043   0.00000  Uiso   1.00
H1112  H     0.98119   0.58400   0.42229   0.00000  Uiso   1.00
C1113  C     0.96309   0.43336   0.57085   0.00000  Uiso   1.00
C1114  C     0.94345   0.45766   0.61490   0.00000  Uiso   1.00
C1115  C     0.93863   0.42620   0.65952   0.00000  Uiso   1.00
H1116  H     0.92274   0.39604   0.64784   0.00000  Uiso   1.00
H1117  H     0.96986   0.41555   0.34376   0.00000  Uiso   1.00
H1118  H     0.91982   0.44366   0.35455   0.00000  Uiso   1.00
H1119  H     0.96356   0.48452   0.62773   0.00000  Uiso   1.00
H1120  H     0.91267   0.47355   0.60241   0.00000  Uiso   1.00
H1121  H     0.94141   0.41390   0.54842   0.00000  Uiso   1.00
H1122  H     0.98540   0.40683   0.58659   0.00000  Uiso   1.00
C1123  C     0.68929   0.58611   0.51862   0.00000  Uiso   1.00
C1124  C     0.99346   0.59227   0.56260   0.00000  Uiso   1.00
C1125  C     0.99352   0.63906   0.58366   0.00000  Uiso   1.00
H1126  H     0.69174   0.64498   0.59995   0.00000  Uiso   1.00
H1127  H     0.98378   0.66405   0.55358   0.00000  Uiso   1.00
H1128  H     0.97094   0.64271   0.61368   0.00000  Uiso   1.00
H1129  H     0.96077   0.58657   0.55002   0.00000  Uiso   1.00
H1130  H     0.67000   0.56751   0.59301   0.00000  Uiso   1.00
H1131  H     0.72174   0.59059   0.53305   0.00000  Uiso   1.00
H1132  H     0.68144   0.61268   0.48968   0.00000  Uiso   1.00
O1133  O     0.87568   0.37336   0.57646   0.00000  Uiso   1.00
H1134  H     0.87970   0.40421   0.56661   0.00000  Uiso   1.00
O1135  O     0.78715   0.62578   0.42656   0.00000  Uiso   1.00
H1136  H     0.78078   0.59594   0.43872   0.00000  Uiso   1.00
O1137  O     0.78885   0.38130   0.42448   0.00000  Uiso   1.00
H1138  H     0.78132   0.41167   0.43559   0.00000  Uiso   1.00
O1139  O     0.87740   0.61848   0.57561   0.00000  Uiso   1.00
H1140  H     0.88517   0.58822   0.56441   0.00000  Uiso   1.00
O1141  O     0.10559   0.87154   0.50000   0.00000  Uiso   1.00
O1142  O     0.22774   0.79513   0.50000   0.00000  Uiso   1.00
O1143  O     0.22774   0.87154   0.50000   0.00000  Uiso   1.00
O1144  O     0.10559   0.79513   0.50000   0.00000  Uiso   1.00
C1145  C     0.08714   0.83464   0.50446   0.00000  Uiso   1.00
C1146  C     0.24711   0.83194   0.50052   0.00000  Uiso   1.00
O1147  O     0.16667   0.87155   0.42845   0.00000  Uiso   1.00
O1148  O     0.16666   0.79512   0.57155   0.00000  Uiso   1.00
O1149  O     0.16666   0.87155   0.57155   0.00000  Uiso   1.00
O1150  O     0.16667   0.79512   0.42845   0.00000  Uiso   1.00
C1151  C     0.16604   0.83357   0.40633   0.00000  Uiso   1.00
C1152  C     0.16587   0.83319   0.59358   0.00000  Uiso   1.00
Zn1153 Zn    0.16667   0.88437   0.50000   0.00000  Uiso   1.00
Zn1154 Zn    0.16667   0.78229   0.50000   0.00000  Uiso   1.00
C1155  C     0.16558   0.83366   0.35509   0.00000  Uiso   1.00
C1156  C     0.16550   0.83310   0.64477   0.00000  Uiso   1.00
C1157  C     0.02697   0.80235   0.54181   0.00000  Uiso   1.00
C1158  C     0.31228   0.86388   0.47766   0.00000  Uiso   1.00
C1159  C     0.31660   0.79930   0.53703   0.00000  Uiso   1.00
C1160  C     0.01831   0.87342   0.49626   0.00000  Uiso   1.00
C1161  C     0.29260   0.82949   0.50274   0.00000  Uiso   1.00
C1162  C     0.04383   0.83751   0.51595   0.00000  Uiso   1.00
C1163  C     0.18748   0.68822   0.53736   0.00000  Uiso   1.00
C1164  C     0.14475   0.97812   0.46332   0.00000  Uiso   1.00
C1165  C     0.14518   0.69210   0.46285   0.00000  Uiso   1.00
C1166  C     0.18799   0.97440   0.53708   0.00000  Uiso   1.00
N1167  N     0.16667   0.95240   0.50000   0.00000  Uiso   1.00
N1168  N     0.16667   0.71427   0.50000   0.00000  Uiso   1.00
C1169  C     0.05478   0.77511   0.58115   0.00000  Uiso   1.00
C1170  C     0.06741   0.72726   0.56468   0.00000  Uiso   1.00
C1171  C     0.09274   0.70113   0.60661   0.00000  Uiso   1.00
H1172  H     0.12174   0.71800   0.61682   0.00000  Uiso   1.00
H1173  H     0.07401   0.69855   0.64027   0.00000  Uiso   1.00
H1174  H     0.10164   0.66689   0.59381   0.00000  Uiso   1.00
H1175  H     0.03976   0.70920   0.55314   0.00000  Uiso   1.00
H1176  H     0.08643   0.72735   0.53149   0.00000  Uiso   1.00
H1177  H     0.08364   0.79239   0.59067   0.00000  Uiso   1.00
H1178  H     0.03917   0.77441   0.61730   0.00000  Uiso   1.00
C1179  C     0.29149   0.89455   0.43627   0.00000  Uiso   1.00
C1180  C     0.27620   0.86823   0.39099   0.00000  Uiso   1.00
C1181  C     0.25571   0.89957   0.35004   0.00000  Uiso   1.00
H1182  H     0.22808   0.91871   0.36423   0.00000  Uiso   1.00
H1183  H     0.27837   0.92323   0.33737   0.00000  Uiso   1.00
H1184  H     0.24522   0.87993   0.65077   0.00000  Uiso   1.00
H1185  H     0.30325   0.84880   0.37583   0.00000  Uiso   1.00
H1186  H     0.25315   0.84449   0.40215   0.00000  Uiso   1.00
H1187  H     0.26595   0.91678   0.45043   0.00000  Uiso   1.00
H1188  H     0.31452   0.91733   0.42229   0.00000  Uiso   1.00
C1189  C     0.29642   0.76669   0.57085   0.00000  Uiso   1.00
C1190  C     0.27678   0.79099   0.61490   0.00000  Uiso   1.00
C1191  C     0.27196   0.75953   0.65952   0.00000  Uiso   1.00
H1192  H     0.25607   0.72937   0.64784   0.00000  Uiso   1.00
H1193  H     0.30319   0.74888   0.34376   0.00000  Uiso   1.00
H1194  H     0.25315   0.77700   0.35455   0.00000  Uiso   1.00
H1195  H     0.29689   0.81785   0.62773   0.00000  Uiso   1.00
H1196  H     0.24601   0.80689   0.60241   0.00000  Uiso   1.00
H1197  H     0.27474   0.74723   0.54842   0.00000  Uiso   1.00
H1198  H     0.31873   0.74016   0.58659   0.00000  Uiso   1.00
C1199  C     0.02263   0.91945   0.51862   0.00000  Uiso   1.00
C1200  C     0.32680   0.92560   0.56260   0.00000  Uiso   1.00
C1201  C     0.32686   0.97239   0.58366   0.00000  Uiso   1.00
H1202  H     0.02507   0.97832   0.59995   0.00000  Uiso   1.00
H1203  H     0.31712   0.99738   0.55358   0.00000  Uiso   1.00
H1204  H     0.30427   0.97604   0.61368   0.00000  Uiso   1.00
H1205  H     0.29410   0.91991   0.55002   0.00000  Uiso   1.00
H1206  H     0.00333   0.90084   0.59301   0.00000  Uiso   1.00
H1207  H     0.05507   0.92393   0.53305   0.00000  Uiso   1.00
H1208  H     0.01478   0.94602   0.48968   0.00000  Uiso   1.00
O1209  O     0.20901   0.70670   0.57646   0.00000  Uiso   1.00
H1210  H     0.21303   0.73754   0.56661   0.00000  Uiso   1.00
O1211  O     0.12048   0.95911   0.42656   0.00000  Uiso   1.00
H1212  H     0.11411   0.92928   0.43872   0.00000  Uiso   1.00
O1213  O     0.12218   0.71463   0.42448   0.00000  Uiso   1.00
H1214  H     0.11466   0.74500   0.43559   0.00000  Uiso   1.00
O1215  O     0.21073   0.95181   0.57561   0.00000  Uiso   1.00
H1216  H     0.21851   0.92155   0.56441   0.00000  Uiso   1.00
O1217  O     0.43892   0.87154   0.50000   0.00000  Uiso   1.00
O1218  O     0.56108   0.79513   0.50000   0.00000  Uiso   1.00
O1219  O     0.56108   0.87154   0.50000   0.00000  Uiso   1.00
O1220  O     0.43892   0.79513   0.50000   0.00000  Uiso   1.00
C1221  C     0.42047   0.83464   0.50446   0.00000  Uiso   1.00
C1222  C     0.58045   0.83194   0.50052   0.00000  Uiso   1.00
O1223  O     0.50000   0.87155   0.42845   0.00000  Uiso   1.00
O1224  O     0.50000   0.79512   0.57155   0.00000  Uiso   1.00
O1225  O     0.50000   0.87155   0.57155   0.00000  Uiso   1.00
O1226  O     0.50000   0.79512   0.42845   0.00000  Uiso   1.00
C1227  C     0.49937   0.83357   0.40633   0.00000  Uiso   1.00
C1228  C     0.49921   0.83319   0.59358   0.00000  Uiso   1.00
Zn1229 Zn    0.50000   0.88437   0.50000   0.00000  Uiso   1.00
Zn1230 Zn    0.50000   0.78229   0.50000   0.00000  Uiso   1.00
C1231  C     0.49891   0.83366   0.35509   0.00000  Uiso   1.00
C1232  C     0.49883   0.83310   0.64477   0.00000  Uiso   1.00
C1233  C     0.36030   0.80235   0.54181   0.00000  Uiso   1.00
C1234  C     0.64562   0.86388   0.47766   0.00000  Uiso   1.00
C1235  C     0.64994   0.79930   0.53703   0.00000  Uiso   1.00
C1236  C     0.35164   0.87342   0.49626   0.00000  Uiso   1.00
C1237  C     0.62594   0.82949   0.50274   0.00000  Uiso   1.00
C1238  C     0.37716   0.83751   0.51595   0.00000  Uiso   1.00
C1239  C     0.52081   0.68822   0.53736   0.00000  Uiso   1.00
C1240  C     0.47808   0.97812   0.46332   0.00000  Uiso   1.00
C1241  C     0.47851   0.69210   0.46285   0.00000  Uiso   1.00
C1242  C     0.52133   0.97440   0.53708   0.00000  Uiso   1.00
N1243  N     0.50000   0.95240   0.50000   0.00000  Uiso   1.00
N1244  N     0.50000   0.71427   0.50000   0.00000  Uiso   1.00
C1245  C     0.38812   0.77511   0.58115   0.00000  Uiso   1.00
C1246  C     0.40074   0.72726   0.56468   0.00000  Uiso   1.00
C1247  C     0.42607   0.70113   0.60661   0.00000  Uiso   1.00
H1248  H     0.45507   0.71800   0.61682   0.00000  Uiso   1.00
H1249  H     0.40734   0.69855   0.64027   0.00000  Uiso   1.00
H1250  H     0.43497   0.66689   0.59381   0.00000  Uiso   1.00
H1251  H     0.37310   0.70920   0.55314   0.00000  Uiso   1.00
H1252  H     0.41977   0.72735   0.53149   0.00000  Uiso   1.00
H1253  H     0.41698   0.79239   0.59067   0.00000  Uiso   1.00
H1254  H     0.37250   0.77441   0.61730   0.00000  Uiso   1.00
C1255  C     0.62482   0.89455   0.43627   0.00000  Uiso   1.00
C1256  C     0.60953   0.86823   0.39099   0.00000  Uiso   1.00
C1257  C     0.58905   0.89957   0.35004   0.00000  Uiso   1.00
H1258  H     0.56141   0.91871   0.36423   0.00000  Uiso   1.00
H1259  H     0.61171   0.92323   0.33737   0.00000  Uiso   1.00
H1260  H     0.57855   0.87993   0.65077   0.00000  Uiso   1.00
H1261  H     0.63658   0.84880   0.37583   0.00000  Uiso   1.00
H1262  H     0.58649   0.84449   0.40215   0.00000  Uiso   1.00
H1263  H     0.59928   0.91678   0.45043   0.00000  Uiso   1.00
H1264  H     0.64786   0.91733   0.42229   0.00000  Uiso   1.00
C1265  C     0.62975   0.76669   0.57085   0.00000  Uiso   1.00
C1266  C     0.61011   0.79099   0.61490   0.00000  Uiso   1.00
C1267  C     0.60529   0.75953   0.65952   0.00000  Uiso   1.00
H1268  H     0.58941   0.72937   0.64784   0.00000  Uiso   1.00
H1269  H     0.63653   0.74888   0.34376   0.00000  Uiso   1.00
H1270  H     0.58648   0.77700   0.35455   0.00000  Uiso   1.00
H1271  H     0.63023   0.81785   0.62773   0.00000  Uiso   1.00
H1272  H     0.57934   0.80689   0.60241   0.00000  Uiso   1.00
H1273  H     0.60808   0.74723   0.54842   0.00000  Uiso   1.00
H1274  H     0.65207   0.74016   0.58659   0.00000  Uiso   1.00
C1275  C     0.35596   0.91945   0.51862   0.00000  Uiso   1.00
C1276  C     0.66013   0.92560   0.56260   0.00000  Uiso   1.00
C1277  C     0.66019   0.97239   0.58366   0.00000  Uiso   1.00
H1278  H     0.35840   0.97832   0.59995   0.00000  Uiso   1.00
H1279  H     0.65045   0.99738   0.55358   0.00000  Uiso   1.00
H1280  H     0.63761   0.97604   0.61368   0.00000  Uiso   1.00
H1281  H     0.62744   0.91991   0.55002   0.00000  Uiso   1.00
H1282  H     0.33667   0.90084   0.59301   0.00000  Uiso   1.00
H1283  H     0.38841   0.92393   0.53305   0.00000  Uiso   1.00
H1284  H     0.34811   0.94602   0.48968   0.00000  Uiso   1.00
O1285  O     0.54235   0.70670   0.57646   0.00000  Uiso   1.00
H1286  H     0.54637   0.73754   0.56661   0.00000  Uiso   1.00
O1287  O     0.45382   0.95911   0.42656   0.00000  Uiso   1.00
H1288  H     0.44745   0.92928   0.43872   0.00000  Uiso   1.00
O1289  O     0.45551   0.71463   0.42448   0.00000  Uiso   1.00
H1290  H     0.44799   0.74500   0.43559   0.00000  Uiso   1.00
O1291  O     0.54407   0.95181   0.57561   0.00000  Uiso   1.00
H1292  H     0.55184   0.92155   0.56441   0.00000  Uiso   1.00
O1293  O     0.77226   0.87154   0.50000   0.00000  Uiso   1.00
O1294  O     0.89441   0.79513   0.50000   0.00000  Uiso   1.00
O1295  O     0.89441   0.87154   0.50000   0.00000  Uiso   1.00
O1296  O     0.77226   0.79513   0.50000   0.00000  Uiso   1.00
C1297  C     0.75380   0.83464   0.50446   0.00000  Uiso   1.00
C1298  C     0.91378   0.83194   0.50052   0.00000  Uiso   1.00
O1299  O     0.83334   0.87155   0.42845   0.00000  Uiso   1.00
O1300  O     0.83333   0.79512   0.57155   0.00000  Uiso   1.00
O1301  O     0.83333   0.87155   0.57155   0.00000  Uiso   1.00
O1302  O     0.83334   0.79512   0.42845   0.00000  Uiso   1.00
C1303  C     0.83270   0.83357   0.40633   0.00000  Uiso   1.00
C1304  C     0.83254   0.83319   0.59358   0.00000  Uiso   1.00
Zn1305 Zn    0.83333   0.88437   0.50000   0.00000  Uiso   1.00
Zn1306 Zn    0.83333   0.78229   0.50000   0.00000  Uiso   1.00
C1307  C     0.83224   0.83366   0.35509   0.00000  Uiso   1.00
C1308  C     0.83217   0.83310   0.64477   0.00000  Uiso   1.00
C1309  C     0.69364   0.80235   0.54181   0.00000  Uiso   1.00
C1310  C     0.97895   0.86388   0.47766   0.00000  Uiso   1.00
C1311  C     0.98327   0.79930   0.53703   0.00000  Uiso   1.00
C1312  C     0.68497   0.87342   0.49626   0.00000  Uiso   1.00
C1313  C     0.95927   0.82949   0.50274   0.00000  Uiso   1.00
C1314  C     0.71050   0.83751   0.51595   0.00000  Uiso   1.00
C1315  C     0.85415   0.68822   0.53736   0.00000  Uiso   1.00
C1316  C     0.81141   0.97812   0.46332   0.00000  Uiso   1.00
C1317  C     0.81185   0.69210   0.46285   0.00000  Uiso   1.00
C1318  C     0.85466   0.97440   0.53708   0.00000  Uiso   1.00
N1319  N     0.83333   0.95240   0.50000   0.00000  Uiso   1.00
N1320  N     0.83333   0.71427   0.50000   0.00000  Uiso   1.00
C1321  C     0.72145   0.77511   0.58115   0.00000  Uiso   1.00
C1322  C     0.73407   0.72726   0.56468   0.00000  Uiso   1.00
C1323  C     0.75941   0.70113   0.60661   0.00000  Uiso   1.00
H1324  H     0.78841   0.71800   0.61682   0.00000  Uiso   1.00
H1325  H     0.74068   0.69855   0.64027   0.00000  Uiso   1.00
H1326  H     0.76831   0.66689   0.59381   0.00000  Uiso   1.00
H1327  H     0.70643   0.70920   0.55314   0.00000  Uiso   1.00
H1328  H     0.75310   0.72735   0.53149   0.00000  Uiso   1.00
H1329  H     0.75031   0.79239   0.59067   0.00000  Uiso   1.00
H1330  H     0.70584   0.77441   0.61730   0.00000  Uiso   1.00
C1331  C     0.95815   0.89455   0.43627   0.00000  Uiso   1.00
C1332  C     0.94286   0.86823   0.39099   0.00000  Uiso   1.00
C1333  C     0.92238   0.89957   0.35004   0.00000  Uiso   1.00
H1334  H     0.89475   0.91871   0.36423   0.00000  Uiso   1.00
H1335  H     0.94504   0.92323   0.33737   0.00000  Uiso   1.00
H1336  H     0.91188   0.87993   0.65077   0.00000  Uiso   1.00
H1337  H     0.96992   0.84880   0.37583   0.00000  Uiso   1.00
H1338  H     0.91982   0.84449   0.40215   0.00000  Uiso   1.00
H1339  H     0.93261   0.91678   0.45043   0.00000  Uiso   1.00
H1340  H     0.98119   0.91733   0.42229   0.00000  Uiso   1.00
C1341  C     0.96309   0.76669   0.57085   0.00000  Uiso   1.00
C1342  C     0.94345   0.79099   0.61490   0.00000  Uiso   1.00
C1343  C     0.93863   0.75953   0.65952   0.00000  Uiso   1.00
H1344  H     0.92274   0.72937   0.64784   0.00000  Uiso   1.00
H1345  H     0.96986   0.74888   0.34376   0.00000  Uiso   1.00
H1346  H     0.91982   0.77700   0.35455   0.00000  Uiso   1.00
H1347  H     0.96356   0.81785   0.62773   0.00000  Uiso   1.00
H1348  H     0.91267   0.80689   0.60241   0.00000  Uiso   1.00
H1349  H     0.94141   0.74723   0.54842   0.00000  Uiso   1.00
H1350  H     0.98540   0.74016   0.58659   0.00000  Uiso   1.00
C1351  C     0.68929   0.91945   0.51862   0.00000  Uiso   1.00
C1352  C     0.99346   0.92560   0.56260   0.00000  Uiso   1.00
C1353  C     0.99352   0.97239   0.58366   0.00000  Uiso   1.00
H1354  H     0.69174   0.97832   0.59995   0.00000  Uiso   1.00
H1355  H     0.98378   0.99738   0.55358   0.00000  Uiso   1.00
H1356  H     0.97094   0.97604   0.61368   0.00000  Uiso   1.00
H1357  H     0.96077   0.91991   0.55002   0.00000  Uiso   1.00
H1358  H     0.67000   0.90084   0.59301   0.00000  Uiso   1.00
H1359  H     0.72174   0.92393   0.53305   0.00000  Uiso   1.00
H1360  H     0.68144   0.94602   0.48968   0.00000  Uiso   1.00
O1361  O     0.87568   0.70670   0.57646   0.00000  Uiso   1.00
H1362  H     0.87970   0.73754   0.56661   0.00000  Uiso   1.00
O1363  O     0.78715   0.95911   0.42656   0.00000  Uiso   1.00
H1364  H     0.78078   0.92928   0.43872   0.00000  Uiso   1.00
O1365  O     0.78885   0.71463   0.42448   0.00000  Uiso   1.00
H1366  H     0.78132   0.74500   0.43559   0.00000  Uiso   1.00
O1367  O     0.87740   0.95181   0.57561   0.00000  Uiso   1.00
H1368  H     0.88517   0.92155   0.56441   0.00000  Uiso   1.00
O1369  O     0.10559   0.20487   0.83333   0.00000  Uiso   1.00
O1370  O     0.22774   0.12846   0.83334   0.00000  Uiso   1.00
O1371  O     0.22774   0.20487   0.83334   0.00000  Uiso   1.00
O1372  O     0.10559   0.12846   0.83333   0.00000  Uiso   1.00
C1373  C     0.08714   0.16798   0.83780   0.00000  Uiso   1.00
C1374  C     0.24711   0.16527   0.83385   0.00000  Uiso   1.00
O1375  O     0.16667   0.20488   0.76178   0.00000  Uiso   1.00
O1376  O     0.16666   0.12845   0.90489   0.00000  Uiso   1.00
O1377  O     0.16666   0.20488   0.90489   0.00000  Uiso   1.00
O1378  O     0.16667   0.12845   0.76178   0.00000  Uiso   1.00
C1379  C     0.16604   0.16690   0.73967   0.00000  Uiso   1.00
C1380  C     0.16587   0.16653   0.92691   0.00000  Uiso   1.00
Zn1381 Zn    0.16667   0.21771   0.83333   0.00000  Uiso   1.00
Zn1382 Zn    0.16667   0.11563   0.83333   0.00000  Uiso   1.00
C1383  C     0.16558   0.16699   0.68843   0.00000  Uiso   1.00
C1384  C     0.16550   0.16643   0.97810   0.00000  Uiso   1.00
C1385  C     0.02697   0.13568   0.87514   0.00000  Uiso   1.00
C1386  C     0.31228   0.19721   0.81099   0.00000  Uiso   1.00
C1387  C     0.31660   0.13263   0.87036   0.00000  Uiso   1.00
C1388  C     0.01831   0.20675   0.82960   0.00000  Uiso   1.00
C1389  C     0.29260   0.16282   0.83607   0.00000  Uiso   1.00
C1390  C     0.04383   0.17084   0.84929   0.00000  Uiso   1.00
C1391  C     0.18748   0.02156   0.87069   0.00000  Uiso   1.00
C1392  C     0.14475   0.31145   0.79665   0.00000  Uiso   1.00
C1393  C     0.14518   0.02544   0.79618   0.00000  Uiso   1.00
C1394  C     0.18799   0.30773   0.87042   0.00000  Uiso   1.00
N1395  N     0.16667   0.28573   0.83333   0.00000  Uiso   1.00
N1396  N     0.16667   0.04760   0.83333   0.00000  Uiso   1.00
C1397  C     0.05478   0.10844   0.91448   0.00000  Uiso   1.00
C1398  C     0.06741   0.06059   0.89802   0.00000  Uiso   1.00
C1399  C     0.09274   0.03446   0.93995   0.00000  Uiso   1.00
H1400  H     0.12174   0.05133   0.95015   0.00000  Uiso   1.00
H1401  H     0.07401   0.03188   0.97361   0.00000  Uiso   1.00
H1402  H     0.10164   0.00023   0.92714   0.00000  Uiso   1.00
H1403  H     0.03976   0.04254   0.88647   0.00000  Uiso   1.00
H1404  H     0.08643   0.06069   0.86483   0.00000  Uiso   1.00
H1405  H     0.08364   0.12572   0.92401   0.00000  Uiso   1.00
H1406  H     0.03917   0.10774   0.95064   0.00000  Uiso   1.00
C1407  C     0.29149   0.22788   0.76960   0.00000  Uiso   1.00
C1408  C     0.27620   0.20156   0.72432   0.00000  Uiso   1.00
C1409  C     0.25571   0.23290   0.68337   0.00000  Uiso   1.00
H1410  H     0.22808   0.25204   0.69757   0.00000  Uiso   1.00
H1411  H     0.27837   0.25656   0.67070   0.00000  Uiso   1.00
H1412  H     0.24522   0.21326   0.98411   0.00000  Uiso   1.00
H1413  H     0.30325   0.18213   0.70916   0.00000  Uiso   1.00
H1414  H     0.25315   0.17782   0.73549   0.00000  Uiso   1.00
H1415  H     0.26595   0.25012   0.78376   0.00000  Uiso   1.00
H1416  H     0.31452   0.25066   0.75562   0.00000  Uiso   1.00
C1417  C     0.29642   0.10002   0.90419   0.00000  Uiso   1.00
C1418  C     0.27678   0.12432   0.94823   0.00000  Uiso   1.00
C1419  C     0.27196   0.09286   0.99286   0.00000  Uiso   1.00
H1420  H     0.25607   0.06270   0.98117   0.00000  Uiso   1.00
H1421  H     0.30319   0.08222   0.67710   0.00000  Uiso   1.00
H1422  H     0.25315   0.11033   0.68788   0.00000  Uiso   1.00
H1423  H     0.29689   0.15118   0.96106   0.00000  Uiso   1.00
H1424  H     0.24601   0.14022   0.93575   0.00000  Uiso   1.00
H1425  H     0.27474   0.08056   0.88176   0.00000  Uiso   1.00
H1426  H     0.31873   0.07349   0.91992   0.00000  Uiso   1.00
C1427  C     0.02263   0.25278   0.85195   0.00000  Uiso   1.00
C1428  C     0.32680   0.25894   0.89593   0.00000  Uiso   1.00
C1429  C     0.32686   0.30573   0.91699   0.00000  Uiso   1.00
H1430  H     0.02507   0.31165   0.93328   0.00000  Uiso   1.00
H1431  H     0.31712   0.33071   0.88691   0.00000  Uiso   1.00
H1432  H     0.30427   0.30937   0.94701   0.00000  Uiso   1.00
H1433  H     0.29410   0.25324   0.88335   0.00000  Uiso   1.00
H1434  H     0.00333   0.23418   0.92635   0.00000  Uiso   1.00
H1435  H     0.05507   0.25726   0.86639   0.00000  Uiso   1.00
H1436  H     0.01478   0.27935   0.82301   0.00000  Uiso   1.00
O1437  O     0.20901   0.04003   0.90980   0.00000  Uiso   1.00
H1438  H     0.21303   0.07087   0.89994   0.00000  Uiso   1.00
O1439  O     0.12048   0.29244   0.75989   0.00000  Uiso   1.00
H1440  H     0.11411   0.26261   0.77206   0.00000  Uiso   1.00
O1441  O     0.12218   0.04797   0.75782   0.00000  Uiso   1.00
H1442  H     0.11466   0.07833   0.76892   0.00000  Uiso   1.00
O1443  O     0.21073   0.28515   0.90894   0.00000  Uiso   1.00
H1444  H     0.21851   0.25488   0.89774   0.00000  Uiso   1.00
O1445  O     0.43892   0.20487   0.83333   0.00000  Uiso   1.00
O1446  O     0.56108   0.12846   0.83334   0.00000  Uiso   1.00
O1447  O     0.56108   0.20487   0.83334   0.00000  Uiso   1.00
O1448  O     0.43892   0.12846   0.83333   0.00000  Uiso   1.00
C1449  C     0.42047   0.16798   0.83780   0.00000  Uiso   1.00
C1450  C     0.58045   0.16527   0.83385   0.00000  Uiso   1.00
O1451  O     0.50000   0.20488   0.76178   0.00000  Uiso   1.00
O1452  O     0.50000   0.12845   0.90489   0.00000  Uiso   1.00
O1453  O     0.50000   0.20488   0.90489   0.00000  Uiso   1.00
O1454  O     0.50000   0.12845   0.76178   0.00000  Uiso   1.00
C1455  C     0.49937   0.16690   0.73967   0.00000  Uiso   1.00
C1456  C     0.49921   0.16653   0.92691   0.00000  Uiso   1.00
Zn1457 Zn    0.50000   0.21771   0.83333   0.00000  Uiso   1.00
Zn1458 Zn    0.50000   0.11563   0.83333   0.00000  Uiso   1.00
C1459  C     0.49891   0.16699   0.68843   0.00000  Uiso   1.00
C1460  C     0.49883   0.16643   0.97810   0.00000  Uiso   1.00
C1461  C     0.36030   0.13568   0.87514   0.00000  Uiso   1.00
C1462  C     0.64562   0.19721   0.81099   0.00000  Uiso   1.00
C1463  C     0.64994   0.13263   0.87036   0.00000  Uiso   1.00
C1464  C     0.35164   0.20675   0.82960   0.00000  Uiso   1.00
C1465  C     0.62594   0.16282   0.83607   0.00000  Uiso   1.00
C1466  C     0.37716   0.17084   0.84929   0.00000  Uiso   1.00
C1467  C     0.52081   0.02156   0.87069   0.00000  Uiso   1.00
C1468  C     0.47808   0.31145   0.79665   0.00000  Uiso   1.00
C1469  C     0.47851   0.02544   0.79618   0.00000  Uiso   1.00
C1470  C     0.52133   0.30773   0.87042   0.00000  Uiso   1.00
N1471  N     0.50000   0.28573   0.83333   0.00000  Uiso   1.00
N1472  N     0.50000   0.04760   0.83333   0.00000  Uiso   1.00
C1473  C     0.38812   0.10844   0.91448   0.00000  Uiso   1.00
C1474  C     0.40074   0.06059   0.89802   0.00000  Uiso   1.00
C1475  C     0.42607   0.03446   0.93995   0.00000  Uiso   1.00
H1476  H     0.45507   0.05133   0.95015   0.00000  Uiso   1.00
H1477  H     0.40734   0.03188   0.97361   0.00000  Uiso   1.00
H1478  H     0.43497   0.00023   0.92714   0.00000  Uiso   1.00
H1479  H     0.37310   0.04254   0.88647   0.00000  Uiso   1.00
H1480  H     0.41977   0.06069   0.86483   0.00000  Uiso   1.00
H1481  H     0.41698   0.12572   0.92401   0.00000  Uiso   1.00
H1482  H     0.37250   0.10774   0.95064   0.00000  Uiso   1.00
C1483  C     0.62482   0.22788   0.76960   0.00000  Uiso   1.00
C1484  C     0.60953   0.20156   0.72432   0.00000  Uiso   1.00
C1485  C     0.58905   0.23290   0.68337   0.00000  Uiso   1.00
H1486  H     0.56141   0.25204   0.69757   0.00000  Uiso   1.00
H1487  H     0.61171   0.25656   0.67070   0.00000  Uiso   1.00
H1488  H     0.57855   0.21326   0.98411   0.00000  Uiso   1.00
H1489  H     0.63658   0.18213   0.70916   0.00000  Uiso   1.00
H1490  H     0.58649   0.17782   0.73549   0.00000  Uiso   1.00
H1491  H     0.59928   0.25012   0.78376   0.00000  Uiso   1.00
H1492  H     0.64786   0.25066   0.75562   0.00000  Uiso   1.00
C1493  C     0.62975   0.10002   0.90419   0.00000  Uiso   1.00
C1494  C     0.61011   0.12432   0.94823   0.00000  Uiso   1.00
C1495  C     0.60529   0.09286   0.99286   0.00000  Uiso   1.00
H1496  H     0.58941   0.06270   0.98117   0.00000  Uiso   1.00
H1497  H     0.63653   0.08222   0.67710   0.00000  Uiso   1.00
H1498  H     0.58648   0.11033   0.68788   0.00000  Uiso   1.00
H1499  H     0.63023   0.15118   0.96106   0.00000  Uiso   1.00
H1500  H     0.57934   0.14022   0.93575   0.00000  Uiso   1.00
H1501  H     0.60808   0.08056   0.88176   0.00000  Uiso   1.00
H1502  H     0.65207   0.07349   0.91992   0.00000  Uiso   1.00
C1503  C     0.35596   0.25278   0.85195   0.00000  Uiso   1.00
C1504  C     0.66013   0.25894   0.89593   0.00000  Uiso   1.00
C1505  C     0.66019   0.30573   0.91699   0.00000  Uiso   1.00
H1506  H     0.35840   0.31165   0.93328   0.00000  Uiso   1.00
H1507  H     0.65045   0.33071   0.88691   0.00000  Uiso   1.00
H1508  H     0.63761   0.30937   0.94701   0.00000  Uiso   1.00
H1509  H     0.62744   0.25324   0.88335   0.00000  Uiso   1.00
H1510  H     0.33667   0.23418   0.92635   0.00000  Uiso   1.00
H1511  H     0.38841   0.25726   0.86639   0.00000  Uiso   1.00
H1512  H     0.34811   0.27935   0.82301   0.00000  Uiso   1.00
O1513  O     0.54235   0.04003   0.90980   0.00000  Uiso   1.00
H1514  H     0.54637   0.07087   0.89994   0.00000  Uiso   1.00
O1515  O     0.45382   0.29244   0.75989   0.00000  Uiso   1.00
H1516  H     0.44745   0.26261   0.77206   0.00000  Uiso   1.00
O1517  O     0.45551   0.04797   0.75782   0.00000  Uiso   1.00
H1518  H     0.44799   0.07833   0.76892   0.00000  Uiso   1.00
O1519  O     0.54407   0.28515   0.90894   0.00000  Uiso   1.00
H1520  H     0.55184   0.25488   0.89774   0.00000  Uiso   1.00
O1521  O     0.77226   0.20487   0.83333   0.00000  Uiso   1.00
O1522  O     0.89441   0.12846   0.83334   0.00000  Uiso   1.00
O1523  O     0.89441   0.20487   0.83334   0.00000  Uiso   1.00
O1524  O     0.77226   0.12846   0.83333   0.00000  Uiso   1.00
C1525  C     0.75380   0.16798   0.83780   0.00000  Uiso   1.00
C1526  C     0.91378   0.16527   0.83385   0.00000  Uiso   1.00
O1527  O     0.83334   0.20488   0.76178   0.00000  Uiso   1.00
O1528  O     0.83333   0.12845   0.90489   0.00000  Uiso   1.00
O1529  O     0.83333   0.20488   0.90489   0.00000  Uiso   1.00
O1530  O     0.83334   0.12845   0.76178   0.00000  Uiso   1.00
C1531  C     0.83270   0.16690   0.73967   0.00000  Uiso   1.00
C1532  C     0.83254   0.16653   0.92691   0.00000  Uiso   1.00
Zn1533 Zn    0.83333   0.21771   0.83333   0.00000  Uiso   1.00
Zn1534 Zn    0.83333   0.11563   0.83333   0.00000  Uiso   1.00
C1535  C     0.83224   0.16699   0.68843   0.00000  Uiso   1.00
C1536  C     0.83217   0.16643   0.97810   0.00000  Uiso   1.00
C1537  C     0.69364   0.13568   0.87514   0.00000  Uiso   1.00
C1538  C     0.97895   0.19721   0.81099   0.00000  Uiso   1.00
C1539  C     0.98327   0.13263   0.87036   0.00000  Uiso   1.00
C1540  C     0.68497   0.20675   0.82960   0.00000  Uiso   1.00
C1541  C     0.95927   0.16282   0.83607   0.00000  Uiso   1.00
C1542  C     0.71050   0.17084   0.84929   0.00000  Uiso   1.00
C1543  C     0.85415   0.02156   0.87069   0.00000  Uiso   1.00
C1544  C     0.81141   0.31145   0.79665   0.00000  Uiso   1.00
C1545  C     0.81185   0.02544   0.79618   0.00000  Uiso   1.00
C1546  C     0.85466   0.30773   0.87042   0.00000  Uiso   1.00
N1547  N     0.83333   0.28573   0.83333   0.00000  Uiso   1.00
N1548  N     0.83333   0.04760   0.83333   0.00000  Uiso   1.00
C1549  C     0.72145   0.10844   0.91448   0.00000  Uiso   1.00
C1550  C     0.73407   0.06059   0.89802   0.00000  Uiso   1.00
C1551  C     0.75941   0.03446   0.93995   0.00000  Uiso   1.00
H1552  H     0.78841   0.05133   0.95015   0.00000  Uiso   1.00
H1553  H     0.74068   0.03188   0.97361   0.00000  Uiso   1.00
H1554  H     0.76831   0.00023   0.92714   0.00000  Uiso   1.00
H1555  H     0.70643   0.04254   0.88647   0.00000  Uiso   1.00
H1556  H     0.75310   0.06069   0.86483   0.00000  Uiso   1.00
H1557  H     0.75031   0.12572   0.92401   0.00000  Uiso   1.00
H1558  H     0.70584   0.10774   0.95064   0.00000  Uiso   1.00
C1559  C     0.95815   0.22788   0.76960   0.00000  Uiso   1.00
C1560  C     0.94286   0.20156   0.72432   0.00000  Uiso   1.00
C1561  C     0.92238   0.23290   0.68337   0.00000  Uiso   1.00
H1562  H     0.89475   0.25204   0.69757   0.00000  Uiso   1.00
H1563  H     0.94504   0.25656   0.67070   0.00000  Uiso   1.00
H1564  H     0.91188   0.21326   0.98411   0.00000  Uiso   1.00
H1565  H     0.96992   0.18213   0.70916   0.00000  Uiso   1.00
H1566  H     0.91982   0.17782   0.73549   0.00000  Uiso   1.00
H1567  H     0.93261   0.25012   0.78376   0.00000  Uiso   1.00
H1568  H     0.98119   0.25066   0.75562   0.00000  Uiso   1.00
C1569  C     0.96309   0.10002   0.90419   0.00000  Uiso   1.00
C1570  C     0.94345   0.12432   0.94823   0.00000  Uiso   1.00
C1571  C     0.93863   0.09286   0.99286   0.00000  Uiso   1.00
H1572  H     0.92274   0.06270   0.98117   0.00000  Uiso   1.00
H1573  H     0.96986   0.08222   0.67710   0.00000  Uiso   1.00
H1574  H     0.91982   0.11033   0.68788   0.00000  Uiso   1.00
H1575  H     0.96356   0.15118   0.96106   0.00000  Uiso   1.00
H1576  H     0.91267   0.14022   0.93575   0.00000  Uiso   1.00
H1577  H     0.94141   0.08056   0.88176   0.00000  Uiso   1.00
H1578  H     0.98540   0.07349   0.91992   0.00000  Uiso   1.00
C1579  C     0.68929   0.25278   0.85195   0.00000  Uiso   1.00
C1580  C     0.99346   0.25894   0.89593   0.00000  Uiso   1.00
C1581  C     0.99352   0.30573   0.91699   0.00000  Uiso   1.00
H1582  H     0.69174   0.31165   0.93328   0.00000  Uiso   1.00
H1583  H     0.98378   0.33071   0.88691   0.00000  Uiso   1.00
H1584  H     0.97094   0.30937   0.94701   0.00000  Uiso   1.00
H1585  H     0.96077   0.25324   0.88335   0.00000  Uiso   1.00
H1586  H     0.67000   0.23418   0.92635   0.00000  Uiso   1.00
H1587  H     0.72174   0.25726   0.86639   0.00000  Uiso   1.00
H1588  H     0.68144   0.27935   0.82301   0.00000  Uiso   1.00
O1589  O     0.87568   0.04003   0.90980   0.00000  Uiso   1.00
H1590  H     0.87970   0.07087   0.89994   0.00000  Uiso   1.00
O1591  O     0.78715   0.29244   0.75989   0.00000  Uiso   1.00
H1592  H     0.78078   0.26261   0.77206   0.00000  Uiso   1.00
O1593  O     0.78885   0.04797   0.75782   0.00000  Uiso   1.00
H1594  H     0.78132   0.07833   0.76892   0.00000  Uiso   1.00
O1595  O     0.87740   0.28515   0.90894   0.00000  Uiso   1.00
H1596  H     0.88517   0.25488   0.89774   0.00000  Uiso   1.00
O1597  O     0.10559   0.53821   0.83333   0.00000  Uiso   1.00
O1598  O     0.22774   0.46179   0.83334   0.00000  Uiso   1.00
O1599  O     0.22774   0.53821   0.83334   0.00000  Uiso   1.00
O1600  O     0.10559   0.46179   0.83333   0.00000  Uiso   1.00
C1601  C     0.08714   0.50131   0.83780   0.00000  Uiso   1.00
C1602  C     0.24711   0.49860   0.83385   0.00000  Uiso   1.00
O1603  O     0.16667   0.53821   0.76178   0.00000  Uiso   1.00
O1604  O     0.16666   0.46179   0.90489   0.00000  Uiso   1.00
O1605  O     0.16666   0.53821   0.90489   0.00000  Uiso   1.00
O1606  O     0.16667   0.46179   0.76178   0.00000  Uiso   1.00
C1607  C     0.16604   0.50024   0.73967   0.00000  Uiso   1.00
C1608  C     0.16587   0.49986   0.92691   0.00000  Uiso   1.00
Zn1609 Zn    0.16667   0.55104   0.83333   0.00000  Uiso   1.00
Zn1610 Zn    0.16667   0.44896   0.83333   0.00000  Uiso   1.00
C1611  C     0.16558   0.50033   0.68843   0.00000  Uiso   1.00
C1612  C     0.16550   0.49977   0.97810   0.00000  Uiso   1.00
C1613  C     0.02697   0.46901   0.87514   0.00000  Uiso   1.00
C1614  C     0.31228   0.53055   0.81099   0.00000  Uiso   1.00
C1615  C     0.31660   0.46597   0.87036   0.00000  Uiso   1.00
C1616  C     0.01831   0.54008   0.82960   0.00000  Uiso   1.00
C1617  C     0.29260   0.49616   0.83607   0.00000  Uiso   1.00
C1618  C     0.04383   0.50417   0.84929   0.00000  Uiso   1.00
C1619  C     0.18748   0.35489   0.87069   0.00000  Uiso   1.00
C1620  C     0.14475   0.64478   0.79665   0.00000  Uiso   1.00
C1621  C     0.14518   0.35877   0.79618   0.00000  Uiso   1.00
C1622  C     0.18799   0.64106   0.87042   0.00000  Uiso   1.00
N1623  N     0.16667   0.61907   0.83333   0.00000  Uiso   1.00
N1624  N     0.16667   0.38093   0.83333   0.00000  Uiso   1.00
C1625  C     0.05478   0.44178   0.91448   0.00000  Uiso   1.00
C1626  C     0.06741   0.39393   0.89802   0.00000  Uiso   1.00
C1627  C     0.09274   0.36780   0.93995   0.00000  Uiso   1.00
H1628  H     0.12174   0.38467   0.95015   0.00000  Uiso   1.00
H1629  H     0.07401   0.36522   0.97361   0.00000  Uiso   1.00
H1630  H     0.10164   0.33356   0.92714   0.00000  Uiso   1.00
H1631  H     0.03976   0.37587   0.88647   0.00000  Uiso   1.00
H1632  H     0.08643   0.39402   0.86483   0.00000  Uiso   1.00
H1633  H     0.08364   0.45906   0.92401   0.00000  Uiso   1.00
H1634  H     0.03917   0.44107   0.95064   0.00000  Uiso   1.00
C1635  C     0.29149   0.56121   0.76960   0.00000  Uiso   1.00
C1636  C     0.27620   0.53489   0.72432   0.00000  Uiso   1.00
C1637  C     0.25571   0.56623   0.68337   0.00000  Uiso   1.00
H1638  H     0.22808   0.58537   0.69757   0.00000  Uiso   1.00
H1639  H     0.27837   0.58990   0.67070   0.00000  Uiso   1.00
H1640  H     0.24522   0.54659   0.98411   0.00000  Uiso   1.00
H1641  H     0.30325   0.51547   0.70916   0.00000  Uiso   1.00
H1642  H     0.25315   0.51116   0.73549   0.00000  Uiso   1.00
H1643  H     0.26595   0.58345   0.78376   0.00000  Uiso   1.00
H1644  H     0.31452   0.58400   0.75562   0.00000  Uiso   1.00
C1645  C     0.29642   0.43336   0.90419   0.00000  Uiso   1.00
C1646  C     0.27678   0.45766   0.94823   0.00000  Uiso   1.00
C1647  C     0.27196   0.42620   0.99286   0.00000  Uiso   1.00
H1648  H     0.25607   0.39604   0.98117   0.00000  Uiso   1.00
H1649  H     0.30319   0.41555   0.67710   0.00000  Uiso   1.00
H1650  H     0.25315   0.44366   0.68788   0.00000  Uiso   1.00
H1651  H     0.29689   0.48452   0.96106   0.00000  Uiso   1.00
H1652  H     0.24601   0.47355   0.93575   0.00000  Uiso   1.00
H1653  H     0.27474   0.41390   0.88176   0.00000  Uiso   1.00
H1654  H     0.31873   0.40683   0.91992   0.00000  Uiso   1.00
C1655  C     0.02263   0.58611   0.85195   0.00000  Uiso   1.00
C1656  C     0.32680   0.59227   0.89593   0.00000  Uiso   1.00
C1657  C     0.32686   0.63906   0.91699   0.00000  Uiso   1.00
H1658  H     0.02507   0.64498   0.93328   0.00000  Uiso   1.00
H1659  H     0.31712   0.66405   0.88691   0.00000  Uiso   1.00
H1660  H     0.30427   0.64271   0.94701   0.00000  Uiso   1.00
H1661  H     0.29410   0.58657   0.88335   0.00000  Uiso   1.00
H1662  H     0.00333   0.56751   0.92635   0.00000  Uiso   1.00
H1663  H     0.05507   0.59059   0.86639   0.00000  Uiso   1.00
H1664  H     0.01478   0.61268   0.82301   0.00000  Uiso   1.00
O1665  O     0.20901   0.37336   0.90980   0.00000  Uiso   1.00
H1666  H     0.21303   0.40421   0.89994   0.00000  Uiso   1.00
O1667  O     0.12048   0.62578   0.75989   0.00000  Uiso   1.00
H1668  H     0.11411   0.59594   0.77206   0.00000  Uiso   1.00
O1669  O     0.12218   0.38130   0.75782   0.00000  Uiso   1.00
H1670  H     0.11466   0.41167   0.76892   0.00000  Uiso   1.00
O1671  O     0.21073   0.61848   0.90894   0.00000  Uiso   1.00
H1672  H     0.21851   0.58822   0.89774   0.00000  Uiso   1.00
O1673  O     0.43892   0.53821   0.83333   0.00000  Uiso   1.00
O1674  O     0.56108   0.46179   0.83334   0.00000  Uiso   1.00
O1675  O     0.56108   0.53821   0.83334   0.00000  Uiso   1.00
O1676  O     0.43892   0.46179   0.83333   0.00000  Uiso   1.00
C1677  C     0.42047   0.50131   0.83780   0.00000  Uiso   1.00
C1678  C     0.58045   0.49860   0.83385   0.00000  Uiso   1.00
O1679  O     0.50000   0.53821   0.76178   0.00000  Uiso   1.00
O1680  O     0.50000   0.46179   0.90489   0.00000  Uiso   1.00
O1681  O     0.50000   0.53821   0.90489   0.00000  Uiso   1.00
O1682  O     0.50000   0.46179   0.76178   0.00000  Uiso   1.00
C1683  C     0.49937   0.50024   0.73967   0.00000  Uiso   1.00
C1684  C     0.49921   0.49986   0.92691   0.00000  Uiso   1.00
Zn1685 Zn    0.50000   0.55104   0.83333   0.00000  Uiso   1.00
Zn1686 Zn    0.50000   0.44896   0.83333   0.00000  Uiso   1.00
C1687  C     0.49891   0.50033   0.68843   0.00000  Uiso   1.00
C1688  C     0.49883   0.49977   0.97810   0.00000  Uiso   1.00
C1689  C     0.36030   0.46901   0.87514   0.00000  Uiso   1.00
C1690  C     0.64562   0.53055   0.81099   0.00000  Uiso   1.00
C1691  C     0.64994   0.46597   0.87036   0.00000  Uiso   1.00
C1692  C     0.35164   0.54008   0.82960   0.00000  Uiso   1.00
C1693  C     0.62594   0.49616   0.83607   0.00000  Uiso   1.00
C1694  C     0.37716   0.50417   0.84929   0.00000  Uiso   1.00
C1695  C     0.52081   0.35489   0.87069   0.00000  Uiso   1.00
C1696  C     0.47808   0.64478   0.79665   0.00000  Uiso   1.00
C1697  C     0.47851   0.35877   0.79618   0.00000  Uiso   1.00
C1698  C     0.52133   0.64106   0.87042   0.00000  Uiso   1.00
N1699  N     0.50000   0.61907   0.83333   0.00000  Uiso   1.00
N1700  N     0.50000   0.38093   0.83333   0.00000  Uiso   1.00
C1701  C     0.38812   0.44178   0.91448   0.00000  Uiso   1.00
C1702  C     0.40074   0.39393   0.89802   0.00000  Uiso   1.00
C1703  C     0.42607   0.36780   0.93995   0.00000  Uiso   1.00
H1704  H     0.45507   0.38467   0.95015   0.00000  Uiso   1.00
H1705  H     0.40734   0.36522   0.97361   0.00000  Uiso   1.00
H1706  H     0.43497   0.33356   0.92714   0.00000  Uiso   1.00
H1707  H     0.37310   0.37587   0.88647   0.00000  Uiso   1.00
H1708  H     0.41977   0.39402   0.86483   0.00000  Uiso   1.00
H1709  H     0.41698   0.45906   0.92401   0.00000  Uiso   1.00
H1710  H     0.37250   0.44107   0.95064   0.00000  Uiso   1.00
C1711  C     0.62482   0.56121   0.76960   0.00000  Uiso   1.00
C1712  C     0.60953   0.53489   0.72432   0.00000  Uiso   1.00
C1713  C     0.58905   0.56623   0.68337   0.00000  Uiso   1.00
H1714  H     0.56141   0.58537   0.69757   0.00000  Uiso   1.00
H1715  H     0.61171   0.58990   0.67070   0.00000  Uiso   1.00
H1716  H     0.57855   0.54659   0.98411   0.00000  Uiso   1.00
H1717  H     0.63658   0.51547   0.70916   0.00000  Uiso   1.00
H1718  H     0.58649   0.51116   0.73549   0.00000  Uiso   1.00
H1719  H     0.59928   0.58345   0.78376   0.00000  Uiso   1.00
H1720  H     0.64786   0.58400   0.75562   0.00000  Uiso   1.00
C1721  C     0.62975   0.43336   0.90419   0.00000  Uiso   1.00
C1722  C     0.61011   0.45766   0.94823   0.00000  Uiso   1.00
C1723  C     0.60529   0.42620   0.99286   0.00000  Uiso   1.00
H1724  H     0.58941   0.39604   0.98117   0.00000  Uiso   1.00
H1725  H     0.63653   0.41555   0.67710   0.00000  Uiso   1.00
H1726  H     0.58648   0.44366   0.68788   0.00000  Uiso   1.00
H1727  H     0.63023   0.48452   0.96106   0.00000  Uiso   1.00
H1728  H     0.57934   0.47355   0.93575   0.00000  Uiso   1.00
H1729  H     0.60808   0.41390   0.88176   0.00000  Uiso   1.00
H1730  H     0.65207   0.40683   0.91992   0.00000  Uiso   1.00
C1731  C     0.35596   0.58611   0.85195   0.00000  Uiso   1.00
C1732  C     0.66013   0.59227   0.89593   0.00000  Uiso   1.00
C1733  C     0.66019   0.63906   0.91699   0.00000  Uiso   1.00
H1734  H     0.35840   0.64498   0.93328   0.00000  Uiso   1.00
H1735  H     0.65045   0.66405   0.88691   0.00000  Uiso   1.00
H1736  H     0.63761   0.64271   0.94701   0.00000  Uiso   1.00
H1737  H     0.62744   0.58657   0.88335   0.00000  Uiso   1.00
H1738  H     0.33667   0.56751   0.92635   0.00000  Uiso   1.00
H1739  H     0.38841   0.59059   0.86639   0.00000  Uiso   1.00
H1740  H     0.34811   0.61268   0.82301   0.00000  Uiso   1.00
O1741  O     0.54235   0.37336   0.90980   0.00000  Uiso   1.00
H1742  H     0.54637   0.40421   0.89994   0.00000  Uiso   1.00
O1743  O     0.45382   0.62578   0.75989   0.00000  Uiso   1.00
H1744  H     0.44745   0.59594   0.77206   0.00000  Uiso   1.00
O1745  O     0.45551   0.38130   0.75782   0.00000  Uiso   1.00
H1746  H     0.44799   0.41167   0.76892   0.00000  Uiso   1.00
O1747  O     0.54407   0.61848   0.90894   0.00000  Uiso   1.00
H1748  H     0.55184   0.58822   0.89774   0.00000  Uiso   1.00
O1749  O     0.77226   0.53821   0.83333   0.00000  Uiso   1.00
O1750  O     0.89441   0.46179   0.83334   0.00000  Uiso   1.00
O1751  O     0.89441   0.53821   0.83334   0.00000  Uiso   1.00
O1752  O     0.77226   0.46179   0.83333   0.00000  Uiso   1.00
C1753  C     0.75380   0.50131   0.83780   0.00000  Uiso   1.00
C1754  C     0.91378   0.49860   0.83385   0.00000  Uiso   1.00
O1755  O     0.83334   0.53821   0.76178   0.00000  Uiso   1.00
O1756  O     0.83333   0.46179   0.90489   0.00000  Uiso   1.00
O1757  O     0.83333   0.53821   0.90489   0.00000  Uiso   1.00
O1758  O     0.83334   0.46179   0.76178   0.00000  Uiso   1.00
C1759  C     0.83270   0.50024   0.73967   0.00000  Uiso   1.00
C1760  C     0.83254   0.49986   0.92691   0.00000  Uiso   1.00
Zn1761 Zn    0.83333   0.55104   0.83333   0.00000  Uiso   1.00
Zn1762 Zn    0.83333   0.44896   0.83333   0.00000  Uiso   1.00
C1763  C     0.83224   0.50033   0.68843   0.00000  Uiso   1.00
C1764  C     0.83217   0.49977   0.97810   0.00000  Uiso   1.00
C1765  C     0.69364   0.46901   0.87514   0.00000  Uiso   1.00
C1766  C     0.97895   0.53055   0.81099   0.00000  Uiso   1.00
C1767  C     0.98327   0.46597   0.87036   0.00000  Uiso   1.00
C1768  C     0.68497   0.54008   0.82960   0.00000  Uiso   1.00
C1769  C     0.95927   0.49616   0.83607   0.00000  Uiso   1.00
C1770  C     0.71050   0.50417   0.84929   0.00000  Uiso   1.00
C1771  C     0.85415   0.35489   0.87069   0.00000  Uiso   1.00
C1772  C     0.81141   0.64478   0.79665   0.00000  Uiso   1.00
C1773  C     0.81185   0.35877   0.79618   0.00000  Uiso   1.00
C1774  C     0.85466   0.64106   0.87042   0.00000  Uiso   1.00
N1775  N     0.83333   0.61907   0.83333   0.00000  Uiso   1.00
N1776  N     0.83333   0.38093   0.83333   0.00000  Uiso   1.00
C1777  C     0.72145   0.44178   0.91448   0.00000  Uiso   1.00
C1778  C     0.73407   0.39393   0.89802   0.00000  Uiso   1.00
C1779  C     0.75941   0.36780   0.93995   0.00000  Uiso   1.00
H1780  H     0.78841   0.38467   0.95015   0.00000  Uiso   1.00
H1781  H     0.74068   0.36522   0.97361   0.00000  Uiso   1.00
H1782  H     0.76831   0.33356   0.92714   0.00000  Uiso   1.00
H1783  H     0.70643   0.37587   0.88647   0.00000  Uiso   1.00
H1784  H     0.75310   0.39402   0.86483   0.00000  Uiso   1.00
H1785  H     0.75031   0.45906   0.92401   0.00000  Uiso   1.00
H1786  H     0.70584   0.44107   0.95064   0.00000  Uiso   1.00
C1787  C     0.95815   0.56121   0.76960   0.00000  Uiso   1.00
C1788  C     0.94286   0.53489   0.72432   0.00000  Uiso   1.00
C1789  C     0.92238   0.56623   0.68337   0.00000  Uiso   1.00
H1790  H     0.89475   0.58537   0.69757   0.00000  Uiso   1.00
H1791  H     0.94504   0.58990   0.67070   0.00000  Uiso   1.00
H1792  H     0.91188   0.54659   0.98411   0.00000  Uiso   1.00
H1793  H     0.96992   0.51547   0.70916   0.00000  Uiso   1.00
H1794  H     0.91982   0.51116   0.73549   0.00000  Uiso   1.00
H1795  H     0.93261   0.58345   0.78376   0.00000  Uiso   1.00
H1796  H     0.98119   0.58400   0.75562   0.00000  Uiso   1.00
C1797  C     0.96309   0.43336   0.90419   0.00000  Uiso   1.00
C1798  C     0.94345   0.45766   0.94823   0.00000  Uiso   1.00
C1799  C     0.93863   0.42620   0.99286   0.00000  Uiso   1.00
H1800  H     0.92274   0.39604   0.98117   0.00000  Uiso   1.00
H1801  H     0.96986   0.41555   0.67710   0.00000  Uiso   1.00
H1802  H     0.91982   0.44366   0.68788   0.00000  Uiso   1.00
H1803  H     0.96356   0.48452   0.96106   0.00000  Uiso   1.00
H1804  H     0.91267   0.47355   0.93575   0.00000  Uiso   1.00
H1805  H     0.94141   0.41390   0.88176   0.00000  Uiso   1.00
H1806  H     0.98540   0.40683   0.91992   0.00000  Uiso   1.00
C1807  C     0.68929   0.58611   0.85195   0.00000  Uiso   1.00
C1808  C     0.99346   0.59227   0.89593   0.00000  Uiso   1.00
C1809  C     0.99352   0.63906   0.91699   0.00000  Uiso   1.00
H1810  H     0.69174   0.64498   0.93328   0.00000  Uiso   1.00
H1811  H     0.98378   0.66405   0.88691   0.00000  Uiso   1.00
H1812  H     0.97094   0.64271   0.94701   0.00000  Uiso   1.00
H1813  H     0.96077   0.58657   0.88335   0.00000  Uiso   1.00
H1814  H     0.67000   0.56751   0.92635   0.00000  Uiso   1.00
H1815  H     0.72174   0.59059   0.86639   0.00000  Uiso   1.00
H1816  H     0.68144   0.61268   0.82301   0.00000  Uiso   1.00
O1817  O     0.87568   0.37336   0.90980   0.00000  Uiso   1.00
H1818  H     0.87970   0.40421   0.89994   0.00000  Uiso   1.00
O1819  O     0.78715   0.62578   0.75989   0.00000  Uiso   1.00
H1820  H     0.78078   0.59594   0.77206   0.00000  Uiso   1.00
O1821  O     0.78885   0.38130   0.75782   0.00000  Uiso   1.00
H1822  H     0.78132   0.41167   0.76892   0.00000  Uiso   1.00
O1823  O     0.87740   0.61848   0.90894   0.00000  Uiso   1.00
H1824  H     0.88517   0.58822   0.89774   0.00000  Uiso   1.00
O1825  O     0.10559   0.87154   0.83333   0.00000  Uiso   1.00
O1826  O     0.22774   0.79513   0.83334   0.00000  Uiso   1.00
O1827  O     0.22774   0.87154   0.83334   0.00000  Uiso   1.00
O1828  O     0.10559   0.79513   0.83333   0.00000  Uiso   1.00
C1829  C     0.08714   0.83464   0.83780   0.00000  Uiso   1.00
C1830  C     0.24711   0.83194   0.83385   0.00000  Uiso   1.00
O1831  O     0.16667   0.87155   0.76178   0.00000  Uiso   1.00
O1832  O     0.16666   0.79512   0.90489   0.00000  Uiso   1.00
O1833  O     0.16666   0.87155   0.90489   0.00000  Uiso   1.00
O1834  O     0.16667   0.79512   0.76178   0.00000  Uiso   1.00
C1835  C     0.16604   0.83357   0.73967   0.00000  Uiso   1.00
C1836  C     0.16587   0.83319   0.92691   0.00000  Uiso   1.00
Zn1837 Zn    0.16667   0.88437   0.83333   0.00000  Uiso   1.00
Zn1838 Zn    0.16667   0.78229   0.83333   0.00000  Uiso   1.00
C1839  C     0.16558   0.83366   0.68843   0.00000  Uiso   1.00
C1840  C     0.16550   0.83310   0.97810   0.00000  Uiso   1.00
C1841  C     0.02697   0.80235   0.87514   0.00000  Uiso   1.00
C1842  C     0.31228   0.86388   0.81099   0.00000  Uiso   1.00
C1843  C     0.31660   0.79930   0.87036   0.00000  Uiso   1.00
C1844  C     0.01831   0.87342   0.82960   0.00000  Uiso   1.00
C1845  C     0.29260   0.82949   0.83607   0.00000  Uiso   1.00
C1846  C     0.04383   0.83751   0.84929   0.00000  Uiso   1.00
C1847  C     0.18748   0.68822   0.87069   0.00000  Uiso   1.00
C1848  C     0.14475   0.97812   0.79665   0.00000  Uiso   1.00
C1849  C     0.14518   0.69210   0.79618   0.00000  Uiso   1.00
C1850  C     0.18799   0.97440   0.87042   0.00000  Uiso   1.00
N1851  N     0.16667   0.95240   0.83333   0.00000  Uiso   1.00
N1852  N     0.16667   0.71427   0.83333   0.00000  Uiso   1.00
C1853  C     0.05478   0.77511   0.91448   0.00000  Uiso   1.00
C1854  C     0.06741   0.72726   0.89802   0.00000  Uiso   1.00
C1855  C     0.09274   0.70113   0.93995   0.00000  Uiso   1.00
H1856  H     0.12174   0.71800   0.95015   0.00000  Uiso   1.00
H1857  H     0.07401   0.69855   0.97361   0.00000  Uiso   1.00
H1858  H     0.10164   0.66689   0.92714   0.00000  Uiso   1.00
H1859  H     0.03976   0.70920   0.88647   0.00000  Uiso   1.00
H1860  H     0.08643   0.72735   0.86483   0.00000  Uiso   1.00
H1861  H     0.08364   0.79239   0.92401   0.00000  Uiso   1.00
H1862  H     0.03917   0.77441   0.95064   0.00000  Uiso   1.00
C1863  C     0.29149   0.89455   0.76960   0.00000  Uiso   1.00
C1864  C     0.27620   0.86823   0.72432   0.00000  Uiso   1.00
C1865  C     0.25571   0.89957   0.68337   0.00000  Uiso   1.00
H1866  H     0.22808   0.91871   0.69757   0.00000  Uiso   1.00
H1867  H     0.27837   0.92323   0.67070   0.00000  Uiso   1.00
H1868  H     0.24522   0.87993   0.98411   0.00000  Uiso   1.00
H1869  H     0.30325   0.84880   0.70916   0.00000  Uiso   1.00
H1870  H     0.25315   0.84449   0.73549   0.00000  Uiso   1.00
H1871  H     0.26595   0.91678   0.78376   0.00000  Uiso   1.00
H1872  H     0.31452   0.91733   0.75562   0.00000  Uiso   1.00
C1873  C     0.29642   0.76669   0.90419   0.00000  Uiso   1.00
C1874  C     0.27678   0.79099   0.94823   0.00000  Uiso   1.00
C1875  C     0.27196   0.75953   0.99286   0.00000  Uiso   1.00
H1876  H     0.25607   0.72937   0.98117   0.00000  Uiso   1.00
H1877  H     0.30319   0.74888   0.67710   0.00000  Uiso   1.00
H1878  H     0.25315   0.77700   0.68788   0.00000  Uiso   1.00
H1879  H     0.29689   0.81785   0.96106   0.00000  Uiso   1.00
H1880  H     0.24601   0.80689   0.93575   0.00000  Uiso   1.00
H1881  H     0.27474   0.74723   0.88176   0.00000  Uiso   1.00
H1882  H     0.31873   0.74016   0.91992   0.00000  Uiso   1.00
C1883  C     0.02263   0.91945   0.85195   0.00000  Uiso   1.00
C1884  C     0.32680   0.92560   0.89593   0.00000  Uiso   1.00
C1885  C     0.32686   0.97239   0.91699   0.00000  Uiso   1.00
H1886  H     0.02507   0.97832   0.93328   0.00000  Uiso   1.00
H1887  H     0.31712   0.99738   0.88691   0.00000  Uiso   1.00
H1888  H     0.30427   0.97604   0.94701   0.00000  Uiso   1.00
H1889  H     0.29410   0.91991   0.88335   0.00000  Uiso   1.00
H1890  H     0.00333   0.90084   0.92635   0.00000  Uiso   1.00
H1891  H     0.05507   0.92393   0.86639   0.00000  Uiso   1.00
H1892  H     0.01478   0.94602   0.82301   0.00000  Uiso   1.00
O1893  O     0.20901   0.70670   0.90980   0.00000  Uiso   1.00
H1894  H     0.21303   0.73754   0.89994   0.00000  Uiso   1.00
O1895  O     0.12048   0.95911   0.75989   0.00000  Uiso   1.00
H1896  H     0.11411   0.92928   0.77206   0.00000  Uiso   1.00
O1897  O     0.12218   0.71463   0.75782   0.00000  Uiso   1.00
H1898  H     0.11466   0.74500   0.76892   0.00000  Uiso   1.00
O1899  O     0.21073   0.95181   0.90894   0.00000  Uiso   1.00
H1900  H     0.21851   0.92155   0.89774   0.00000  Uiso   1.00
O1901  O     0.43892   0.87154   0.83333   0.00000  Uiso   1.00
O1902  O     0.56108   0.79513   0.83334   0.00000  Uiso   1.00
O1903  O     0.56108   0.87154   0.83334   0.00000  Uiso   1.00
O1904  O     0.43892   0.79513   0.83333   0.00000  Uiso   1.00
C1905  C     0.42047   0.83464   0.83780   0.00000  Uiso   1.00
C1906  C     0.58045   0.83194   0.83385   0.00000  Uiso   1.00
O1907  O     0.50000   0.87155   0.76178   0.00000  Uiso   1.00
O1908  O     0.50000   0.79512   0.90489   0.00000  Uiso   1.00
O1909  O     0.50000   0.87155   0.90489   0.00000  Uiso   1.00
O1910  O     0.50000   0.79512   0.76178   0.00000  Uiso   1.00
C1911  C     0.49937   0.83357   0.73967   0.00000  Uiso   1.00
C1912  C     0.49921   0.83319   0.92691   0.00000  Uiso   1.00
Zn1913 Zn    0.50000   0.88437   0.83333   0.00000  Uiso   1.00
Zn1914 Zn    0.50000   0.78229   0.83333   0.00000  Uiso   1.00
C1915  C     0.49891   0.83366   0.68843   0.00000  Uiso   1.00
C1916  C     0.49883   0.83310   0.97810   0.00000  Uiso   1.00
C1917  C     0.36030   0.80235   0.87514   0.00000  Uiso   1.00
C1918  C     0.64562   0.86388   0.81099   0.00000  Uiso   1.00
C1919  C     0.64994   0.79930   0.87036   0.00000  Uiso   1.00
C1920  C     0.35164   0.87342   0.82960   0.00000  Uiso   1.00
C1921  C     0.62594   0.82949   0.83607   0.00000  Uiso   1.00
C1922  C     0.37716   0.83751   0.84929   0.00000  Uiso   1.00
C1923  C     0.52081   0.68822   0.87069   0.00000  Uiso   1.00
C1924  C     0.47808   0.97812   0.79665   0.00000  Uiso   1.00
C1925  C     0.47851   0.69210   0.79618   0.00000  Uiso   1.00
C1926  C     0.52133   0.97440   0.87042   0.00000  Uiso   1.00
N1927  N     0.50000   0.95240   0.83333   0.00000  Uiso   1.00
N1928  N     0.50000   0.71427   0.83333   0.00000  Uiso   1.00
C1929  C     0.38812   0.77511   0.91448   0.00000  Uiso   1.00
C1930  C     0.40074   0.72726   0.89802   0.00000  Uiso   1.00
C1931  C     0.42607   0.70113   0.93995   0.00000  Uiso   1.00
H1932  H     0.45507   0.71800   0.95015   0.00000  Uiso   1.00
H1933  H     0.40734   0.69855   0.97361   0.00000  Uiso   1.00
H1934  H     0.43497   0.66689   0.92714   0.00000  Uiso   1.00
H1935  H     0.37310   0.70920   0.88647   0.00000  Uiso   1.00
H1936  H     0.41977   0.72735   0.86483   0.00000  Uiso   1.00
H1937  H     0.41698   0.79239   0.92401   0.00000  Uiso   1.00
H1938  H     0.37250   0.77441   0.95064   0.00000  Uiso   1.00
C1939  C     0.62482   0.89455   0.76960   0.00000  Uiso   1.00
C1940  C     0.60953   0.86823   0.72432   0.00000  Uiso   1.00
C1941  C     0.58905   0.89957   0.68337   0.00000  Uiso   1.00
H1942  H     0.56141   0.91871   0.69757   0.00000  Uiso   1.00
H1943  H     0.61171   0.92323   0.67070   0.00000  Uiso   1.00
H1944  H     0.57855   0.87993   0.98411   0.00000  Uiso   1.00
H1945  H     0.63658   0.84880   0.70916   0.00000  Uiso   1.00
H1946  H     0.58649   0.84449   0.73549   0.00000  Uiso   1.00
H1947  H     0.59928   0.91678   0.78376   0.00000  Uiso   1.00
H1948  H     0.64786   0.91733   0.75562   0.00000  Uiso   1.00
C1949  C     0.62975   0.76669   0.90419   0.00000  Uiso   1.00
C1950  C     0.61011   0.79099   0.94823   0.00000  Uiso   1.00
C1951  C     0.60529   0.75953   0.99286   0.00000  Uiso   1.00
H1952  H     0.58941   0.72937   0.98117   0.00000  Uiso   1.00
H1953  H     0.63653   0.74888   0.67710   0.00000  Uiso   1.00
H1954  H     0.58648   0.77700   0.68788   0.00000  Uiso   1.00
H1955  H     0.63023   0.81785   0.96106   0.00000  Uiso   1.00
H1956  H     0.57934   0.80689   0.93575   0.00000  Uiso   1.00
H1957  H     0.60808   0.74723   0.88176   0.00000  Uiso   1.00
H1958  H     0.65207   0.74016   0.91992   0.00000  Uiso   1.00
C1959  C     0.35596   0.91945   0.85195   0.00000  Uiso   1.00
C1960  C     0.66013   0.92560   0.89593   0.00000  Uiso   1.00
C1961  C     0.66019   0.97239   0.91699   0.00000  Uiso   1.00
H1962  H     0.35840   0.97832   0.93328   0.00000  Uiso   1.00
H1963  H     0.65045   0.99738   0.88691   0.00000  Uiso   1.00
H1964  H     0.63761   0.97604   0.94701   0.00000  Uiso   1.00
H1965  H     0.62744   0.91991   0.88335   0.00000  Uiso   1.00
H1966  H     0.33667   0.90084   0.92635   0.00000  Uiso   1.00
H1967  H     0.38841   0.92393   0.86639   0.00000  Uiso   1.00
H1968  H     0.34811   0.94602   0.82301   0.00000  Uiso   1.00
O1969  O     0.54235   0.70670   0.90980   0.00000  Uiso   1.00
H1970  H     0.54637   0.73754   0.89994   0.00000  Uiso   1.00
O1971  O     0.45382   0.95911   0.75989   0.00000  Uiso   1.00
H1972  H     0.44745   0.92928   0.77206   0.00000  Uiso   1.00
O1973  O     0.45551   0.71463   0.75782   0.00000  Uiso   1.00
H1974  H     0.44799   0.74500   0.76892   0.00000  Uiso   1.00
O1975  O     0.54407   0.95181   0.90894   0.00000  Uiso   1.00
H1976  H     0.55184   0.92155   0.89774   0.00000  Uiso   1.00
O1977  O     0.77226   0.87154   0.83333   0.00000  Uiso   1.00
O1978  O     0.89441   0.79513   0.83334   0.00000  Uiso   1.00
O1979  O     0.89441   0.87154   0.83334   0.00000  Uiso   1.00
O1980  O     0.77226   0.79513   0.83333   0.00000  Uiso   1.00
C1981  C     0.75380   0.83464   0.83780   0.00000  Uiso   1.00
C1982  C     0.91378   0.83194   0.83385   0.00000  Uiso   1.00
O1983  O     0.83334   0.87155   0.76178   0.00000  Uiso   1.00
O1984  O     0.83333   0.79512   0.90489   0.00000  Uiso   1.00
O1985  O     0.83333   0.87155   0.90489   0.00000  Uiso   1.00
O1986  O     0.83334   0.79512   0.76178   0.00000  Uiso   1.00
C1987  C     0.83270   0.83357   0.73967   0.00000  Uiso   1.00
C1988  C     0.83254   0.83319   0.92691   0.00000  Uiso   1.00
Zn1989 Zn    0.83333   0.88437   0.83333   0.00000  Uiso   1.00
Zn1990 Zn    0.83333   0.78229   0.83333   0.00000  Uiso   1.00
C1991  C     0.83224   0.83366   0.68843   0.00000  Uiso   1.00
C1992  C     0.83217   0.83310   0.97810   0.00000  Uiso   1.00
C1993  C     0.69364   0.80235   0.87514   0.00000  Uiso   1.00
C1994  C     0.97895   0.86388   0.81099   0.00000  Uiso   1.00
C1995  C     0.98327   0.79930   0.87036   0.00000  Uiso   1.00
C1996  C     0.68497   0.87342   0.82960   0.00000  Uiso   1.00
C1997  C     0.95927   0.82949   0.83607   0.00000  Uiso   1.00
C1998  C     0.71050   0.83751   0.84929   0.00000  Uiso   1.00
C1999  C     0.85415   0.68822   0.87069   0.00000  Uiso   1.00
C2000  C     0.81141   0.97812   0.79665   0.00000  Uiso   1.00
C2001  C     0.81185   0.69210   0.79618   0.00000  Uiso   1.00
C2002  C     0.85466   0.97440   0.87042   0.00000  Uiso   1.00
N2003  N     0.83333   0.95240   0.83333   0.00000  Uiso   1.00
N2004  N     0.83333   0.71427   0.83333   0.00000  Uiso   1.00
C2005  C     0.72145   0.77511   0.91448   0.00000  Uiso   1.00
C2006  C     0.73407   0.72726   0.89802   0.00000  Uiso   1.00
C2007  C     0.75941   0.70113   0.93995   0.00000  Uiso   1.00
H2008  H     0.78841   0.71800   0.95015   0.00000  Uiso   1.00
H2009  H     0.74068   0.69855   0.97361   0.00000  Uiso   1.00
H2010  H     0.76831   0.66689   0.92714   0.00000  Uiso   1.00
H2011  H     0.70643   0.70920   0.88647   0.00000  Uiso   1.00
H2012  H     0.75310   0.72735   0.86483   0.00000  Uiso   1.00
H2013  H     0.75031   0.79239   0.92401   0.00000  Uiso   1.00
H2014  H     0.70584   0.77441   0.95064   0.00000  Uiso   1.00
C2015  C     0.95815   0.89455   0.76960   0.00000  Uiso   1.00
C2016  C     0.94286   0.86823   0.72432   0.00000  Uiso   1.00
C2017  C     0.92238   0.89957   0.68337   0.00000  Uiso   1.00
H2018  H     0.89475   0.91871   0.69757   0.00000  Uiso   1.00
H2019  H     0.94504   0.92323   0.67070   0.00000  Uiso   1.00
H2020  H     0.91188   0.87993   0.98411   0.00000  Uiso   1.00
H2021  H     0.96992   0.84880   0.70916   0.00000  Uiso   1.00
H2022  H     0.91982   0.84449   0.73549   0.00000  Uiso   1.00
H2023  H     0.93261   0.91678   0.78376   0.00000  Uiso   1.00
H2024  H     0.98119   0.91733   0.75562   0.00000  Uiso   1.00
C2025  C     0.96309   0.76669   0.90419   0.00000  Uiso   1.00
C2026  C     0.94345   0.79099   0.94823   0.00000  Uiso   1.00
C2027  C     0.93863   0.75953   0.99286   0.00000  Uiso   1.00
H2028  H     0.92274   0.72937   0.98117   0.00000  Uiso   1.00
H2029  H     0.96986   0.74888   0.67710   0.00000  Uiso   1.00
H2030  H     0.91982   0.77700   0.68788   0.00000  Uiso   1.00
H2031  H     0.96356   0.81785   0.96106   0.00000  Uiso   1.00
H2032  H     0.91267   0.80689   0.93575   0.00000  Uiso   1.00
H2033  H     0.94141   0.74723   0.88176   0.00000  Uiso   1.00
H2034  H     0.98540   0.74016   0.91992   0.00000  Uiso   1.00
C2035  C     0.68929   0.91945   0.85195   0.00000  Uiso   1.00
C2036  C     0.99346   0.92560   0.89593   0.00000  Uiso   1.00
C2037  C     0.99352   0.97239   0.91699   0.00000  Uiso   1.00
H2038  H     0.69174   0.97832   0.93328   0.00000  Uiso   1.00
H2039  H     0.98378   0.99738   0.88691   0.00000  Uiso   1.00
H2040  H     0.97094   0.97604   0.94701   0.00000  Uiso   1.00
H2041  H     0.96077   0.91991   0.88335   0.00000  Uiso   1.00
H2042  H     0.67000   0.90084   0.92635   0.00000  Uiso   1.00
H2043  H     0.72174   0.92393   0.86639   0.00000  Uiso   1.00
H2044  H     0.68144   0.94602   0.82301   0.00000  Uiso   1.00
O2045  O     0.87568   0.70670   0.90980   0.00000  Uiso   1.00
H2046  H     0.87970   0.73754   0.89994   0.00000  Uiso   1.00
O2047  O     0.78715   0.95911   0.75989   0.00000  Uiso   1.00
H2048  H     0.78078   0.92928   0.77206   0.00000  Uiso   1.00
O2049  O     0.78885   0.71463   0.75782   0.00000  Uiso   1.00
H2050  H     0.78132   0.74500   0.76892   0.00000  Uiso   1.00
O2051  O     0.87740   0.95181   0.90894   0.00000  Uiso   1.00
H2052  H     0.88517   0.92155   0.89774   0.00000  Uiso   1.00
loop_
_geom_bond_atom_site_label_1
_geom_bond_atom_site_label_2
_geom_bond_distance
_geom_bond_site_symmetry_2
_ccdc_geom_bond_type
O1     C5      1.294   .     A
O1     Zn13    2.021   .     S
O2     C6      1.300   .     A
O2     Zn14    2.021   .     S
O3     Zn13    1.973   .     S
O3     C6      1.304   .     A
O4     C5      1.300   .     A
O4     Zn14    1.973   .     S
C5     C22     1.436   .     S
C6     C21     1.455   .     S
O7     Zn13    1.955   .     S
O7     C11     1.291   .     A
O8     C12     1.291   .     A
O8     Zn14    1.955   .     S
O9     Zn13    1.944   .     S
O9     C12     1.286   .     A
O10    C11     1.286   .     A
O10    Zn14    1.944   .     S
C11    C15     1.368   .     S
C12    C16     1.368   .     S
Zn13   N27     2.039   .     S
Zn14   N28     2.039   .     S
C15    C1384   1.166   1_554 S
C16    C699    1.166   .     S
C17    C22     1.403   .     A
C17    C29     1.535   .     S
C17    C171    1.411   1_455 S
C18    C39     1.527   .     S
C18    C21     1.420   .     A
C18    C96     1.382   .     S
C19    C21     1.438   .     A
C19    C49     1.518   .     S
C19    C93     1.411   .     S
C20    C59     1.523   .     S
C20    C22     1.390   .     A
C20    C170    1.382   1_455 S
C23    O69     1.367   .     S
C23    N28     1.377   .     A
C23    C482    1.412   1_545 S
C24    N27     1.374   .     A
C24    O71     1.375   .     S
C24    C253    1.419   .     S
C25    O73     1.375   .     S
C25    N28     1.382   .     A
C25    C480    1.419   1_545 S
C26    O75     1.375   .     S
C26    N27     1.376   .     A
C26    C251    1.412   .     S
C29    H38     1.111   .     S
C29    C30     1.541   .     S
C29    H37     1.110   .     S
C30    H36     1.102   .     S
C30    C31     1.527   .     S
C30    H35     1.102   .     S
C31    H33     1.111   .     S
C31    H32     1.111   .     S
C31    H34     1.111   .     S
C39    H47     1.108   .     S
C39    C40     1.531   .     S
C39    H48     1.112   .     S
C40    H46     1.107   .     S
C40    C41     1.526   .     S
C40    H45     1.111   .     S
C41    H43     1.109   .     S
C41    H42     1.111   .     S
C41    H1412   1.109   1_554 S
H44    C725    1.109   .     S
C49    H58     1.099   .     S
C49    H57     1.097   .     S
C49    C50     1.534   .     S
C50    C51     1.529   .     S
C50    H56     1.103   .     S
C50    H55     1.111   .     S
C51    H52     1.107   .     S
C51    H737    1.111   .     S
C51    H738    1.109   .     S
H53    C1419   1.111   1_554 S
H54    C1419   1.109   1_554 S
C59    H68     1.110   .     S
C59    H67     1.109   .     S
C59    C212    1.544   1_455 S
C60    H65     1.110   .     S
C60    C61     1.519   .     S
C60    C135    1.544   .     S
C60    H142    1.112   .     S
C61    H64     1.109   .     S
C61    H63     1.110   .     S
C61    H138    1.107   .     S
H62    C213    1.107   1_455 S
H66    C212    1.112   1_455 S
O69    H70     0.976   .     S
O71    H72     0.984   .     S
O73    H74     0.980   .     S
O75    H76     0.980   .     S
O77    C81     1.294   .     A
O77    Zn89    2.021   .     S
O78    C82     1.300   .     A
O78    Zn90    2.021   .     S
O79    Zn89    1.973   .     S
O79    C82     1.304   .     A
O80    C81     1.300   .     A
O80    Zn90    1.973   .     S
C81    C98     1.436   .     S
C82    C97     1.455   .     S
O83    Zn89    1.955   .     S
O83    C87     1.291   .     A
O84    C88     1.291   .     A
O84    Zn90    1.955   .     S
O85    Zn89    1.944   .     S
O85    C88     1.286   .     A
O86    C87     1.286   .     A
O86    Zn90    1.944   .     S
C87    C91     1.368   .     S
C88    C92     1.368   .     S
Zn89   N103    2.039   .     S
Zn90   N104    2.039   .     S
C91    C1460   1.166   1_554 S
C92    C775    1.166   .     S
C93    C98     1.403   .     A
C93    C105    1.535   .     S
C94    C115    1.527   .     S
C94    C97     1.420   .     A
C94    C172    1.382   .     S
C95    C97     1.438   .     A
C95    C125    1.518   .     S
C95    C169    1.411   .     S
C96    C135    1.523   .     S
C96    C98     1.390   .     A
C99    O145    1.367   .     S
C99    N104    1.377   .     A
C99    C558    1.412   1_545 S
C100   N103    1.374   .     A
C100   O147    1.375   .     S
C100   C329    1.419   .     S
C101   O149    1.375   .     S
C101   N104    1.382   .     A
C101   C556    1.419   1_545 S
C102   O151    1.375   .     S
C102   N103    1.376   .     A
C102   C327    1.412   .     S
C105   H114    1.111   .     S
C105   C106    1.541   .     S
C105   H113    1.110   .     S
C106   H112    1.102   .     S
C106   C107    1.527   .     S
C106   H111    1.102   .     S
C107   H109    1.111   .     S
C107   H108    1.111   .     S
C107   H110    1.111   .     S
C115   H123    1.108   .     S
C115   C116    1.531   .     S
C115   H124    1.112   .     S
C116   H122    1.107   .     S
C116   C117    1.526   .     S
C116   H121    1.111   .     S
C117   H119    1.109   .     S
C117   H118    1.111   .     S
C117   H1488   1.109   1_554 S
H120   C801    1.109   .     S
C125   H134    1.099   .     S
C125   H133    1.097   .     S
C125   C126    1.534   .     S
C126   C127    1.529   .     S
C126   H132    1.103   .     S
C126   H131    1.111   .     S
C127   H128    1.107   .     S
C127   H813    1.111   .     S
C127   H814    1.109   .     S
H129   C1495   1.111   1_554 S
H130   C1495   1.109   1_554 S
C135   H144    1.110   .     S
C135   H143    1.109   .     S
C136   H141    1.110   .     S
C136   C137    1.519   .     S
C136   C211    1.544   .     S
C136   H218    1.112   .     S
C137   H140    1.109   .     S
C137   H139    1.110   .     S
C137   H214    1.107   .     S
O145   H146    0.976   .     S
O147   H148    0.984   .     S
O149   H150    0.980   .     S
O151   H152    0.980   .     S
O153   C157    1.294   .     A
O153   Zn165   2.021   .     S
O154   C158    1.300   .     A
O154   Zn166   2.021   .     S
O155   Zn165   1.973   .     S
O155   C158    1.304   .     A
O156   C157    1.300   .     A
O156   Zn166   1.973   .     S
C157   C174    1.436   .     S
C158   C173    1.455   .     S
O159   Zn165   1.955   .     S
O159   C163    1.291   .     A
O160   C164    1.291   .     A
O160   Zn166   1.955   .     S
O161   Zn165   1.944   .     S
O161   C164    1.286   .     A
O162   C163    1.286   .     A
O162   Zn166   1.944   .     S
C163   C167    1.368   .     S
C164   C168    1.368   .     S
Zn165  N179    2.039   .     S
Zn166  N180    2.039   .     S
C167   C1536   1.166   1_554 S
C168   C851    1.166   .     S
C169   C174    1.403   .     A
C169   C181    1.535   .     S
C170   C191    1.527   .     S
C170   C173    1.420   .     A
C170   C20     1.382   1_655 S
C171   C173    1.438   .     A
C171   C201    1.518   .     S
C171   C17     1.411   1_655 S
C172   C211    1.523   .     S
C172   C174    1.390   .     A
C175   O221    1.367   .     S
C175   N180    1.377   .     A
C175   C634    1.412   1_545 S
C176   N179    1.374   .     A
C176   O223    1.375   .     S
C176   C405    1.419   .     S
C177   O225    1.375   .     S
C177   N180    1.382   .     A
C177   C632    1.419   1_545 S
C178   O227    1.375   .     S
C178   N179    1.376   .     A
C178   C403    1.412   .     S
C181   H190    1.111   .     S
C181   C182    1.541   .     S
C181   H189    1.110   .     S
C182   H188    1.102   .     S
C182   C183    1.527   .     S
C182   H187    1.102   .     S
C183   H185    1.111   .     S
C183   H184    1.111   .     S
C183   H186    1.111   .     S
C191   H199    1.108   .     S
C191   C192    1.531   .     S
C191   H200    1.112   .     S
C192   H198    1.107   .     S
C192   C193    1.526   .     S
C192   H197    1.111   .     S
C193   H195    1.109   .     S
C193   H194    1.111   .     S
C193   H1564   1.109   1_554 S
H196   C877    1.109   .     S
C201   H210    1.099   .     S
C201   H209    1.097   .     S
C201   C202    1.534   .     S
C202   C203    1.529   .     S
C202   H208    1.103   .     S
C202   H207    1.111   .     S
C203   H204    1.107   .     S
C203   H889    1.111   .     S
C203   H890    1.109   .     S
H205   C1571   1.111   1_554 S
H206   C1571   1.109   1_554 S
C211   H220    1.110   .     S
C211   H219    1.109   .     S
C212   H217    1.110   .     S
C212   C213    1.519   .     S
C212   C59     1.544   1_655 S
C212   H66     1.112   1_655 S
C213   H216    1.109   .     S
C213   H215    1.110   .     S
C213   H62     1.107   1_655 S
O221   H222    0.976   .     S
O223   H224    0.984   .     S
O225   H226    0.980   .     S
O227   H228    0.980   .     S
O229   C233    1.294   .     A
O229   Zn241   2.021   .     S
O230   C234    1.300   .     A
O230   Zn242   2.021   .     S
O231   Zn241   1.973   .     S
O231   C234    1.304   .     A
O232   C233    1.300   .     A
O232   Zn242   1.973   .     S
C233   C250    1.436   .     S
C234   C249    1.455   .     S
O235   Zn241   1.955   .     S
O235   C239    1.291   .     A
O236   C240    1.291   .     A
O236   Zn242   1.955   .     S
O237   Zn241   1.944   .     S
O237   C240    1.286   .     A
O238   C239    1.286   .     A
O238   Zn242   1.944   .     S
C239   C243    1.368   .     S
C240   C244    1.368   .     S
Zn241  N255    2.039   .     S
Zn242  N256    2.039   .     S
C243   C1612   1.166   1_554 S
C244   C927    1.166   .     S
C245   C250    1.403   .     A
C245   C257    1.535   .     S
C245   C399    1.411   1_455 S
C246   C267    1.527   .     S
C246   C249    1.420   .     A
C246   C324    1.382   .     S
C247   C249    1.438   .     A
C247   C277    1.518   .     S
C247   C321    1.411   .     S
C248   C287    1.523   .     S
C248   C250    1.390   .     A
C248   C398    1.382   1_455 S
C251   O297    1.367   .     S
C251   N256    1.377   .     A
C252   N255    1.374   .     A
C252   O299    1.375   .     S
C252   C481    1.419   .     S
C253   O301    1.375   .     S
C253   N256    1.382   .     A
C254   O303    1.375   .     S
C254   N255    1.376   .     A
C254   C479    1.412   .     S
C257   H266    1.111   .     S
C257   C258    1.541   .     S
C257   H265    1.110   .     S
C258   H264    1.102   .     S
C258   C259    1.527   .     S
C258   H263    1.102   .     S
C259   H261    1.111   .     S
C259   H260    1.111   .     S
C259   H262    1.111   .     S
C267   H275    1.108   .     S
C267   C268    1.531   .     S
C267   H276    1.112   .     S
C268   H274    1.107   .     S
C268   C269    1.526   .     S
C268   H273    1.111   .     S
C269   H271    1.109   .     S
C269   H270    1.111   .     S
C269   H1640   1.109   1_554 S
H272   C953    1.109   .     S
C277   H286    1.099   .     S
C277   H285    1.097   .     S
C277   C278    1.534   .     S
C278   C279    1.529   .     S
C278   H284    1.103   .     S
C278   H283    1.111   .     S
C279   H280    1.107   .     S
C279   H965    1.111   .     S
C279   H966    1.109   .     S
H281   C1647   1.111   1_554 S
H282   C1647   1.109   1_554 S
C287   H296    1.110   .     S
C287   H295    1.109   .     S
C287   C440    1.544   1_455 S
C288   H293    1.110   .     S
C288   C289    1.519   .     S
C288   C363    1.544   .     S
C288   H370    1.112   .     S
C289   H292    1.109   .     S
C289   H291    1.110   .     S
C289   H366    1.107   .     S
H290   C441    1.107   1_455 S
H294   C440    1.112   1_455 S
O297   H298    0.976   .     S
O299   H300    0.984   .     S
O301   H302    0.980   .     S
O303   H304    0.980   .     S
O305   C309    1.294   .     A
O305   Zn317   2.021   .     S
O306   C310    1.300   .     A
O306   Zn318   2.021   .     S
O307   Zn317   1.973   .     S
O307   C310    1.304   .     A
O308   C309    1.300   .     A
O308   Zn318   1.973   .     S
C309   C326    1.436   .     S
C310   C325    1.455   .     S
O311   Zn317   1.955   .     S
O311   C315    1.291   .     A
O312   C316    1.291   .     A
O312   Zn318   1.955   .     S
O313   Zn317   1.944   .     S
O313   C316    1.286   .     A
O314   C315    1.286   .     A
O314   Zn318   1.944   .     S
C315   C319    1.368   .     S
C316   C320    1.368   .     S
Zn317  N331    2.039   .     S
Zn318  N332    2.039   .     S
C319   C1688   1.166   1_554 S
C320   C1003   1.166   .     S
C321   C326    1.403   .     A
C321   C333    1.535   .     S
C322   C343    1.527   .     S
C322   C325    1.420   .     A
C322   C400    1.382   .     S
C323   C325    1.438   .     A
C323   C353    1.518   .     S
C323   C397    1.411   .     S
C324   C363    1.523   .     S
C324   C326    1.390   .     A
C327   O373    1.367   .     S
C327   N332    1.377   .     A
C328   N331    1.374   .     A
C328   O375    1.375   .     S
C328   C557    1.419   .     S
C329   O377    1.375   .     S
C329   N332    1.382   .     A
C330   O379    1.375   .     S
C330   N331    1.376   .     A
C330   C555    1.412   .     S
C333   H342    1.111   .     S
C333   C334    1.541   .     S
C333   H341    1.110   .     S
C334   H340    1.102   .     S
C334   C335    1.527   .     S
C334   H339    1.102   .     S
C335   H337    1.111   .     S
C335   H336    1.111   .     S
C335   H338    1.111   .     S
C343   H351    1.108   .     S
C343   C344    1.531   .     S
C343   H352    1.112   .     S
C344   H350    1.107   .     S
C344   C345    1.526   .     S
C344   H349    1.111   .     S
C345   H347    1.109   .     S
C345   H346    1.111   .     S
C345   H1716   1.109   1_554 S
H348   C1029   1.109   .     S
C353   H362    1.099   .     S
C353   H361    1.097   .     S
C353   C354    1.534   .     S
C354   C355    1.529   .     S
C354   H360    1.103   .     S
C354   H359    1.111   .     S
C355   H356    1.107   .     S
C355   H1041   1.111   .     S
C355   H1042   1.109   .     S
H357   C1723   1.111   1_554 S
H358   C1723   1.109   1_554 S
C363   H372    1.110   .     S
C363   H371    1.109   .     S
C364   H369    1.110   .     S
C364   C365    1.519   .     S
C364   C439    1.544   .     S
C364   H446    1.112   .     S
C365   H368    1.109   .     S
C365   H367    1.110   .     S
C365   H442    1.107   .     S
O373   H374    0.976   .     S
O375   H376    0.984   .     S
O377   H378    0.980   .     S
O379   H380    0.980   .     S
O381   C385    1.294   .     A
O381   Zn393   2.021   .     S
O382   C386    1.300   .     A
O382   Zn394   2.021   .     S
O383   Zn393   1.973   .     S
O383   C386    1.304   .     A
O384   C385    1.300   .     A
O384   Zn394   1.973   .     S
C385   C402    1.436   .     S
C386   C401    1.455   .     S
O387   Zn393   1.955   .     S
O387   C391    1.291   .     A
O388   C392    1.291   .     A
O388   Zn394   1.955   .     S
O389   Zn393   1.944   .     S
O389   C392    1.286   .     A
O390   C391    1.286   .     A
O390   Zn394   1.944   .     S
C391   C395    1.368   .     S
C392   C396    1.368   .     S
Zn393  N407    2.039   .     S
Zn394  N408    2.039   .     S
C395   C1764   1.166   1_554 S
C396   C1079   1.166   .     S
C397   C402    1.403   .     A
C397   C409    1.535   .     S
C398   C419    1.527   .     S
C398   C401    1.420   .     A
C398   C248    1.382   1_655 S
C399   C401    1.438   .     A
C399   C429    1.518   .     S
C399   C245    1.411   1_655 S
C400   C439    1.523   .     S
C400   C402    1.390   .     A
C403   O449    1.367   .     S
C403   N408    1.377   .     A
C404   N407    1.374   .     A
C404   O451    1.375   .     S
C404   C633    1.419   .     S
C405   O453    1.375   .     S
C405   N408    1.382   .     A
C406   O455    1.375   .     S
C406   N407    1.376   .     A
C406   C631    1.412   .     S
C409   H418    1.111   .     S
C409   C410    1.541   .     S
C409   H417    1.110   .     S
C410   H416    1.102   .     S
C410   C411    1.527   .     S
C410   H415    1.102   .     S
C411   H413    1.111   .     S
C411   H412    1.111   .     S
C411   H414    1.111   .     S
C419   H427    1.108   .     S
C419   C420    1.531   .     S
C419   H428    1.112   .     S
C420   H426    1.107   .     S
C420   C421    1.526   .     S
C420   H425    1.111   .     S
C421   H423    1.109   .     S
C421   H422    1.111   .     S
C421   H1792   1.109   1_554 S
H424   C1105   1.109   .     S
C429   H438    1.099   .     S
C429   H437    1.097   .     S
C429   C430    1.534   .     S
C430   C431    1.529   .     S
C430   H436    1.103   .     S
C430   H435    1.111   .     S
C431   H432    1.107   .     S
C431   H1117   1.111   .     S
C431   H1118   1.109   .     S
H433   C1799   1.111   1_554 S
H434   C1799   1.109   1_554 S
C439   H448    1.110   .     S
C439   H447    1.109   .     S
C440   H445    1.110   .     S
C440   C441    1.519   .     S
C440   C287    1.544   1_655 S
C440   H294    1.112   1_655 S
C441   H444    1.109   .     S
C441   H443    1.110   .     S
C441   H290    1.107   1_655 S
O449   H450    0.976   .     S
O451   H452    0.984   .     S
O453   H454    0.980   .     S
O455   H456    0.980   .     S
O457   C461    1.294   .     A
O457   Zn469   2.021   .     S
O458   C462    1.300   .     A
O458   Zn470   2.021   .     S
O459   Zn469   1.973   .     S
O459   C462    1.304   .     A
O460   C461    1.300   .     A
O460   Zn470   1.973   .     S
C461   C478    1.436   .     S
C462   C477    1.455   .     S
O463   Zn469   1.955   .     S
O463   C467    1.291   .     A
O464   C468    1.291   .     A
O464   Zn470   1.955   .     S
O465   Zn469   1.944   .     S
O465   C468    1.286   .     A
O466   C467    1.286   .     A
O466   Zn470   1.944   .     S
C467   C471    1.368   .     S
C468   C472    1.368   .     S
Zn469  N483    2.039   .     S
Zn470  N484    2.039   .     S
C471   C1840   1.166   1_554 S
C472   C1155   1.166   .     S
C473   C478    1.403   .     A
C473   C485    1.535   .     S
C473   C627    1.411   1_455 S
C474   C495    1.527   .     S
C474   C477    1.420   .     A
C474   C552    1.382   .     S
C475   C477    1.438   .     A
C475   C505    1.518   .     S
C475   C549    1.411   .     S
C476   C515    1.523   .     S
C476   C478    1.390   .     A
C476   C626    1.382   1_455 S
C479   O525    1.367   .     S
C479   N484    1.377   .     A
C480   N483    1.374   .     A
C480   O527    1.375   .     S
C480   C25     1.419   1_565 S
C481   O529    1.375   .     S
C481   N484    1.382   .     A
C482   O531    1.375   .     S
C482   N483    1.376   .     A
C482   C23     1.412   1_565 S
C485   H494    1.111   .     S
C485   C486    1.541   .     S
C485   H493    1.110   .     S
C486   H492    1.102   .     S
C486   C487    1.527   .     S
C486   H491    1.102   .     S
C487   H489    1.111   .     S
C487   H488    1.111   .     S
C487   H490    1.111   .     S
C495   H503    1.108   .     S
C495   C496    1.531   .     S
C495   H504    1.112   .     S
C496   H502    1.107   .     S
C496   C497    1.526   .     S
C496   H501    1.111   .     S
C497   H499    1.109   .     S
C497   H498    1.111   .     S
C497   H1868   1.109   1_554 S
H500   C1181   1.109   .     S
C505   H514    1.099   .     S
C505   H513    1.097   .     S
C505   C506    1.534   .     S
C506   C507    1.529   .     S
C506   H512    1.103   .     S
C506   H511    1.111   .     S
C507   H508    1.107   .     S
C507   H1193   1.111   .     S
C507   H1194   1.109   .     S
H509   C1875   1.111   1_554 S
H510   C1875   1.109   1_554 S
C515   H524    1.110   .     S
C515   H523    1.109   .     S
C515   C668    1.544   1_455 S
C516   H521    1.110   .     S
C516   C517    1.519   .     S
C516   C591    1.544   .     S
C516   H598    1.112   .     S
C517   H520    1.109   .     S
C517   H519    1.110   .     S
C517   H594    1.107   .     S
H518   C669    1.107   1_455 S
H522   C668    1.112   1_455 S
O525   H526    0.976   .     S
O527   H528    0.984   .     S
O529   H530    0.980   .     S
O531   H532    0.980   .     S
O533   C537    1.294   .     A
O533   Zn545   2.021   .     S
O534   C538    1.300   .     A
O534   Zn546   2.021   .     S
O535   Zn545   1.973   .     S
O535   C538    1.304   .     A
O536   C537    1.300   .     A
O536   Zn546   1.973   .     S
C537   C554    1.436   .     S
C538   C553    1.455   .     S
O539   Zn545   1.955   .     S
O539   C543    1.291   .     A
O540   C544    1.291   .     A
O540   Zn546   1.955   .     S
O541   Zn545   1.944   .     S
O541   C544    1.286   .     A
O542   C543    1.286   .     A
O542   Zn546   1.944   .     S
C543   C547    1.368   .     S
C544   C548    1.368   .     S
Zn545  N559    2.039   .     S
Zn546  N560    2.039   .     S
C547   C1916   1.166   1_554 S
C548   C1231   1.166   .     S
C549   C554    1.403   .     A
C549   C561    1.535   .     S
C550   C571    1.527   .     S
C550   C553    1.420   .     A
C550   C628    1.382   .     S
C551   C553    1.438   .     A
C551   C581    1.518   .     S
C551   C625    1.411   .     S
C552   C591    1.523   .     S
C552   C554    1.390   .     A
C555   O601    1.367   .     S
C555   N560    1.377   .     A
C556   N559    1.374   .     A
C556   O603    1.375   .     S
C556   C101    1.419   1_565 S
C557   O605    1.375   .     S
C557   N560    1.382   .     A
C558   O607    1.375   .     S
C558   N559    1.376   .     A
C558   C99     1.412   1_565 S
C561   H570    1.111   .     S
C561   C562    1.541   .     S
C561   H569    1.110   .     S
C562   H568    1.102   .     S
C562   C563    1.527   .     S
C562   H567    1.102   .     S
C563   H565    1.111   .     S
C563   H564    1.111   .     S
C563   H566    1.111   .     S
C571   H579    1.108   .     S
C571   C572    1.531   .     S
C571   H580    1.112   .     S
C572   H578    1.107   .     S
C572   C573    1.526   .     S
C572   H577    1.111   .     S
C573   H575    1.109   .     S
C573   H574    1.111   .     S
C573   H1944   1.109   1_554 S
H576   C1257   1.109   .     S
C581   H590    1.099   .     S
C581   H589    1.097   .     S
C581   C582    1.534   .     S
C582   C583    1.529   .     S
C582   H588    1.103   .     S
C582   H587    1.111   .     S
C583   H584    1.107   .     S
C583   H1269   1.111   .     S
C583   H1270   1.109   .     S
H585   C1951   1.111   1_554 S
H586   C1951   1.109   1_554 S
C591   H600    1.110   .     S
C591   H599    1.109   .     S
C592   H597    1.110   .     S
C592   C593    1.519   .     S
C592   C667    1.544   .     S
C592   H674    1.112   .     S
C593   H596    1.109   .     S
C593   H595    1.110   .     S
C593   H670    1.107   .     S
O601   H602    0.976   .     S
O603   H604    0.984   .     S
O605   H606    0.980   .     S
O607   H608    0.980   .     S
O609   C613    1.294   .     A
O609   Zn621   2.021   .     S
O610   C614    1.300   .     A
O610   Zn622   2.021   .     S
O611   Zn621   1.973   .     S
O611   C614    1.304   .     A
O612   C613    1.300   .     A
O612   Zn622   1.973   .     S
C613   C630    1.436   .     S
C614   C629    1.455   .     S
O615   Zn621   1.955   .     S
O615   C619    1.291   .     A
O616   C620    1.291   .     A
O616   Zn622   1.955   .     S
O617   Zn621   1.944   .     S
O617   C620    1.286   .     A
O618   C619    1.286   .     A
O618   Zn622   1.944   .     S
C619   C623    1.368   .     S
C620   C624    1.368   .     S
Zn621  N635    2.039   .     S
Zn622  N636    2.039   .     S
C623   C1992   1.166   1_554 S
C624   C1307   1.166   .     S
C625   C630    1.403   .     A
C625   C637    1.535   .     S
C626   C647    1.527   .     S
C626   C629    1.420   .     A
C626   C476    1.382   1_655 S
C627   C629    1.438   .     A
C627   C657    1.518   .     S
C627   C473    1.411   1_655 S
C628   C667    1.523   .     S
C628   C630    1.390   .     A
C631   O677    1.367   .     S
C631   N636    1.377   .     A
C632   N635    1.374   .     A
C632   O679    1.375   .     S
C632   C177    1.419   1_565 S
C633   O681    1.375   .     S
C633   N636    1.382   .     A
C634   O683    1.375   .     S
C634   N635    1.376   .     A
C634   C175    1.412   1_565 S
C637   H646    1.111   .     S
C637   C638    1.541   .     S
C637   H645    1.110   .     S
C638   H644    1.102   .     S
C638   C639    1.527   .     S
C638   H643    1.102   .     S
C639   H641    1.111   .     S
C639   H640    1.111   .     S
C639   H642    1.111   .     S
C647   H655    1.108   .     S
C647   C648    1.531   .     S
C647   H656    1.112   .     S
C648   H654    1.107   .     S
C648   C649    1.526   .     S
C648   H653    1.111   .     S
C649   H651    1.109   .     S
C649   H650    1.111   .     S
C649   H2020   1.109   1_554 S
H652   C1333   1.109   .     S
C657   H666    1.099   .     S
C657   H665    1.097   .     S
C657   C658    1.534   .     S
C658   C659    1.529   .     S
C658   H664    1.103   .     S
C658   H663    1.111   .     S
C659   H660    1.107   .     S
C659   H1345   1.111   .     S
C659   H1346   1.109   .     S
H661   C2027   1.111   1_554 S
H662   C2027   1.109   1_554 S
C667   H676    1.110   .     S
C667   H675    1.109   .     S
C668   H673    1.110   .     S
C668   C669    1.519   .     S
C668   C515    1.544   1_655 S
C668   H522    1.112   1_655 S
C669   H672    1.109   .     S
C669   H671    1.110   .     S
C669   H518    1.107   1_655 S
O677   H678    0.976   .     S
O679   H680    0.984   .     S
O681   H682    0.980   .     S
O683   H684    0.980   .     S
O685   C689    1.294   .     A
O685   Zn697   2.021   .     S
O686   C690    1.300   .     A
O686   Zn698   2.021   .     S
O687   Zn697   1.973   .     S
O687   C690    1.304   .     A
O688   C689    1.300   .     A
O688   Zn698   1.973   .     S
C689   C706    1.436   .     S
C690   C705    1.455   .     S
O691   Zn697   1.955   .     S
O691   C695    1.291   .     A
O692   C696    1.291   .     A
O692   Zn698   1.955   .     S
O693   Zn697   1.944   .     S
O693   C696    1.286   .     A
O694   C695    1.286   .     A
O694   Zn698   1.944   .     S
C695   C699    1.368   .     S
C696   C700    1.368   .     S
Zn697  N711    2.039   .     S
Zn698  N712    2.039   .     S
C700   C1383   1.166   .     S
C701   C706    1.403   .     A
C701   C713    1.535   .     S
C701   C855    1.411   1_455 S
C702   C723    1.527   .     S
C702   C705    1.420   .     A
C702   C780    1.382   .     S
C703   C705    1.438   .     A
C703   C733    1.518   .     S
C703   C777    1.411   .     S
C704   C743    1.523   .     S
C704   C706    1.390   .     A
C704   C854    1.382   1_455 S
C707   O753    1.367   .     S
C707   N712    1.377   .     A
C707   C1166   1.412   1_545 S
C708   N711    1.374   .     A
C708   O755    1.375   .     S
C708   C937    1.419   .     S
C709   O757    1.375   .     S
C709   N712    1.382   .     A
C709   C1164   1.419   1_545 S
C710   O759    1.375   .     S
C710   N711    1.376   .     A
C710   C935    1.412   .     S
C713   H722    1.111   .     S
C713   C714    1.541   .     S
C713   H721    1.110   .     S
C714   H720    1.102   .     S
C714   C715    1.527   .     S
C714   H719    1.102   .     S
C715   H717    1.111   .     S
C715   H716    1.111   .     S
C715   H718    1.111   .     S
C723   H731    1.108   .     S
C723   C724    1.531   .     S
C723   H732    1.112   .     S
C724   H730    1.107   .     S
C724   C725    1.526   .     S
C724   H729    1.111   .     S
C725   H727    1.109   .     S
C725   H726    1.111   .     S
H728   C1409   1.109   .     S
C733   H742    1.099   .     S
C733   H741    1.097   .     S
C733   C734    1.534   .     S
C734   C735    1.529   .     S
C734   H740    1.103   .     S
C734   H739    1.111   .     S
C735   H736    1.107   .     S
C735   H1421   1.111   .     S
C735   H1422   1.109   .     S
C743   H752    1.110   .     S
C743   H751    1.109   .     S
C743   C896    1.544   1_455 S
C744   H749    1.110   .     S
C744   C745    1.519   .     S
C744   C819    1.544   .     S
C744   H826    1.112   .     S
C745   H748    1.109   .     S
C745   H747    1.110   .     S
C745   H822    1.107   .     S
H746   C897    1.107   1_455 S
H750   C896    1.112   1_455 S
O753   H754    0.976   .     S
O755   H756    0.984   .     S
O757   H758    0.980   .     S
O759   H760    0.980   .     S
O761   C765    1.294   .     A
O761   Zn773   2.021   .     S
O762   C766    1.300   .     A
O762   Zn774   2.021   .     S
O763   Zn773   1.973   .     S
O763   C766    1.304   .     A
O764   C765    1.300   .     A
O764   Zn774   1.973   .     S
C765   C782    1.436   .     S
C766   C781    1.455   .     S
O767   Zn773   1.955   .     S
O767   C771    1.291   .     A
O768   C772    1.291   .     A
O768   Zn774   1.955   .     S
O769   Zn773   1.944   .     S
O769   C772    1.286   .     A
O770   C771    1.286   .     A
O770   Zn774   1.944   .     S
C771   C775    1.368   .     S
C772   C776    1.368   .     S
Zn773  N787    2.039   .     S
Zn774  N788    2.039   .     S
C776   C1459   1.166   .     S
C777   C782    1.403   .     A
C777   C789    1.535   .     S
C778   C799    1.527   .     S
C778   C781    1.420   .     A
C778   C856    1.382   .     S
C779   C781    1.438   .     A
C779   C809    1.518   .     S
C779   C853    1.411   .     S
C780   C819    1.523   .     S
C780   C782    1.390   .     A
C783   O829    1.367   .     S
C783   N788    1.377   .     A
C783   C1242   1.412   1_545 S
C784   N787    1.374   .     A
C784   O831    1.375   .     S
C784   C1013   1.419   .     S
C785   O833    1.375   .     S
C785   N788    1.382   .     A
C785   C1240   1.419   1_545 S
C786   O835    1.375   .     S
C786   N787    1.376   .     A
C786   C1011   1.412   .     S
C789   H798    1.111   .     S
C789   C790    1.541   .     S
C789   H797    1.110   .     S
C790   H796    1.102   .     S
C790   C791    1.527   .     S
C790   H795    1.102   .     S
C791   H793    1.111   .     S
C791   H792    1.111   .     S
C791   H794    1.111   .     S
C799   H807    1.108   .     S
C799   C800    1.531   .     S
C799   H808    1.112   .     S
C800   H806    1.107   .     S
C800   C801    1.526   .     S
C800   H805    1.111   .     S
C801   H803    1.109   .     S
C801   H802    1.111   .     S
H804   C1485   1.109   .     S
C809   H818    1.099   .     S
C809   H817    1.097   .     S
C809   C810    1.534   .     S
C810   C811    1.529   .     S
C810   H816    1.103   .     S
C810   H815    1.111   .     S
C811   H812    1.107   .     S
C811   H1497   1.111   .     S
C811   H1498   1.109   .     S
C819   H828    1.110   .     S
C819   H827    1.109   .     S
C820   H825    1.110   .     S
C820   C821    1.519   .     S
C820   C895    1.544   .     S
C820   H902    1.112   .     S
C821   H824    1.109   .     S
C821   H823    1.110   .     S
C821   H898    1.107   .     S
O829   H830    0.976   .     S
O831   H832    0.984   .     S
O833   H834    0.980   .     S
O835   H836    0.980   .     S
O837   C841    1.294   .     A
O837   Zn849   2.021   .     S
O838   C842    1.300   .     A
O838   Zn850   2.021   .     S
O839   Zn849   1.973   .     S
O839   C842    1.304   .     A
O840   C841    1.300   .     A
O840   Zn850   1.973   .     S
C841   C858    1.436   .     S
C842   C857    1.455   .     S
O843   Zn849   1.955   .     S
O843   C847    1.291   .     A
O844   C848    1.291   .     A
O844   Zn850   1.955   .     S
O845   Zn849   1.944   .     S
O845   C848    1.286   .     A
O846   C847    1.286   .     A
O846   Zn850   1.944   .     S
C847   C851    1.368   .     S
C848   C852    1.368   .     S
Zn849  N863    2.039   .     S
Zn850  N864    2.039   .     S
C852   C1535   1.166   .     S
C853   C858    1.403   .     A
C853   C865    1.535   .     S
C854   C875    1.527   .     S
C854   C857    1.420   .     A
C854   C704    1.382   1_655 S
C855   C857    1.438   .     A
C855   C885    1.518   .     S
C855   C701    1.411   1_655 S
C856   C895    1.523   .     S
C856   C858    1.390   .     A
C859   O905    1.367   .     S
C859   N864    1.377   .     A
C859   C1318   1.412   1_545 S
C860   N863    1.374   .     A
C860   O907    1.375   .     S
C860   C1089   1.419   .     S
C861   O909    1.375   .     S
C861   N864    1.382   .     A
C861   C1316   1.419   1_545 S
C862   O911    1.375   .     S
C862   N863    1.376   .     A
C862   C1087   1.412   .     S
C865   H874    1.111   .     S
C865   C866    1.541   .     S
C865   H873    1.110   .     S
C866   H872    1.102   .     S
C866   C867    1.527   .     S
C866   H871    1.102   .     S
C867   H869    1.111   .     S
C867   H868    1.111   .     S
C867   H870    1.111   .     S
C875   H883    1.108   .     S
C875   C876    1.531   .     S
C875   H884    1.112   .     S
C876   H882    1.107   .     S
C876   C877    1.526   .     S
C876   H881    1.111   .     S
C877   H879    1.109   .     S
C877   H878    1.111   .     S
H880   C1561   1.109   .     S
C885   H894    1.099   .     S
C885   H893    1.097   .     S
C885   C886    1.534   .     S
C886   C887    1.529   .     S
C886   H892    1.103   .     S
C886   H891    1.111   .     S
C887   H888    1.107   .     S
C887   H1573   1.111   .     S
C887   H1574   1.109   .     S
C895   H904    1.110   .     S
C895   H903    1.109   .     S
C896   H901    1.110   .     S
C896   C897    1.519   .     S
C896   C743    1.544   1_655 S
C896   H750    1.112   1_655 S
C897   H900    1.109   .     S
C897   H899    1.110   .     S
C897   H746    1.107   1_655 S
O905   H906    0.976   .     S
O907   H908    0.984   .     S
O909   H910    0.980   .     S
O911   H912    0.980   .     S
O913   C917    1.294   .     A
O913   Zn925   2.021   .     S
O914   C918    1.300   .     A
O914   Zn926   2.021   .     S
O915   Zn925   1.973   .     S
O915   C918    1.304   .     A
O916   C917    1.300   .     A
O916   Zn926   1.973   .     S
C917   C934    1.436   .     S
C918   C933    1.455   .     S
O919   Zn925   1.955   .     S
O919   C923    1.291   .     A
O920   C924    1.291   .     A
O920   Zn926   1.955   .     S
O921   Zn925   1.944   .     S
O921   C924    1.286   .     A
O922   C923    1.286   .     A
O922   Zn926   1.944   .     S
C923   C927    1.368   .     S
C924   C928    1.368   .     S
Zn925  N939    2.039   .     S
Zn926  N940    2.039   .     S
C928   C1611   1.166   .     S
C929   C934    1.403   .     A
C929   C941    1.535   .     S
C929   C1083   1.411   1_455 S
C930   C951    1.527   .     S
C930   C933    1.420   .     A
C930   C1008   1.382   .     S
C931   C933    1.438   .     A
C931   C961    1.518   .     S
C931   C1005   1.411   .     S
C932   C971    1.523   .     S
C932   C934    1.390   .     A
C932   C1082   1.382   1_455 S
C935   O981    1.367   .     S
C935   N940    1.377   .     A
C936   N939    1.374   .     A
C936   O983    1.375   .     S
C936   C1165   1.419   .     S
C937   O985    1.375   .     S
C937   N940    1.382   .     A
C938   O987    1.375   .     S
C938   N939    1.376   .     A
C938   C1163   1.412   .     S
C941   H950    1.111   .     S
C941   C942    1.541   .     S
C941   H949    1.110   .     S
C942   H948    1.102   .     S
C942   C943    1.527   .     S
C942   H947    1.102   .     S
C943   H945    1.111   .     S
C943   H944    1.111   .     S
C943   H946    1.111   .     S
C951   H959    1.108   .     S
C951   C952    1.531   .     S
C951   H960    1.112   .     S
C952   H958    1.107   .     S
C952   C953    1.526   .     S
C952   H957    1.111   .     S
C953   H955    1.109   .     S
C953   H954    1.111   .     S
H956   C1637   1.109   .     S
C961   H970    1.099   .     S
C961   H969    1.097   .     S
C961   C962    1.534   .     S
C962   C963    1.529   .     S
C962   H968    1.103   .     S
C962   H967    1.111   .     S
C963   H964    1.107   .     S
C963   H1649   1.111   .     S
C963   H1650   1.109   .     S
C971   H980    1.110   .     S
C971   H979    1.109   .     S
C971   C1124   1.544   1_455 S
C972   H977    1.110   .     S
C972   C973    1.519   .     S
C972   C1047   1.544   .     S
C972   H1054   1.112   .     S
C973   H976    1.109   .     S
C973   H975    1.110   .     S
C973   H1050   1.107   .     S
H974   C1125   1.107   1_455 S
H978   C1124   1.112   1_455 S
O981   H982    0.976   .     S
O983   H984    0.984   .     S
O985   H986    0.980   .     S
O987   H988    0.980   .     S
O989   C993    1.294   .     A
O989   Zn1001  2.021   .     S
O990   C994    1.300   .     A
O990   Zn1002  2.021   .     S
O991   Zn1001  1.973   .     S
O991   C994    1.304   .     A
O992   C993    1.300   .     A
O992   Zn1002  1.973   .     S
C993   C1010   1.436   .     S
C994   C1009   1.455   .     S
O995   Zn1001  1.955   .     S
O995   C999    1.291   .     A
O996   C1000   1.291   .     A
O996   Zn1002  1.955   .     S
O997   Zn1001  1.944   .     S
O997   C1000   1.286   .     A
O998   C999    1.286   .     A
O998   Zn1002  1.944   .     S
C999   C1003   1.368   .     S
C1000  C1004   1.368   .     S
Zn1001 N1015   2.039   .     S
Zn1002 N1016   2.039   .     S
C1004  C1687   1.166   .     S
C1005  C1010   1.403   .     A
C1005  C1017   1.535   .     S
C1006  C1027   1.527   .     S
C1006  C1009   1.420   .     A
C1006  C1084   1.382   .     S
C1007  C1009   1.438   .     A
C1007  C1037   1.518   .     S
C1007  C1081   1.411   .     S
C1008  C1047   1.523   .     S
C1008  C1010   1.390   .     A
C1011  O1057   1.367   .     S
C1011  N1016   1.377   .     A
C1012  N1015   1.374   .     A
C1012  O1059   1.375   .     S
C1012  C1241   1.419   .     S
C1013  O1061   1.375   .     S
C1013  N1016   1.382   .     A
C1014  O1063   1.375   .     S
C1014  N1015   1.376   .     A
C1014  C1239   1.412   .     S
C1017  H1026   1.111   .     S
C1017  C1018   1.541   .     S
C1017  H1025   1.110   .     S
C1018  H1024   1.102   .     S
C1018  C1019   1.527   .     S
C1018  H1023   1.102   .     S
C1019  H1021   1.111   .     S
C1019  H1020   1.111   .     S
C1019  H1022   1.111   .     S
C1027  H1035   1.108   .     S
C1027  C1028   1.531   .     S
C1027  H1036   1.112   .     S
C1028  H1034   1.107   .     S
C1028  C1029   1.526   .     S
C1028  H1033   1.111   .     S
C1029  H1031   1.109   .     S
C1029  H1030   1.111   .     S
H1032  C1713   1.109   .     S
C1037  H1046   1.099   .     S
C1037  H1045   1.097   .     S
C1037  C1038   1.534   .     S
C1038  C1039   1.529   .     S
C1038  H1044   1.103   .     S
C1038  H1043   1.111   .     S
C1039  H1040   1.107   .     S
C1039  H1725   1.111   .     S
C1039  H1726   1.109   .     S
C1047  H1056   1.110   .     S
C1047  H1055   1.109   .     S
C1048  H1053   1.110   .     S
C1048  C1049   1.519   .     S
C1048  C1123   1.544   .     S
C1048  H1130   1.112   .     S
C1049  H1052   1.109   .     S
C1049  H1051   1.110   .     S
C1049  H1126   1.107   .     S
O1057  H1058   0.976   .     S
O1059  H1060   0.984   .     S
O1061  H1062   0.980   .     S
O1063  H1064   0.980   .     S
O1065  C1069   1.294   .     A
O1065  Zn1077  2.021   .     S
O1066  C1070   1.300   .     A
O1066  Zn1078  2.021   .     S
O1067  Zn1077  1.973   .     S
O1067  C1070   1.304   .     A
O1068  C1069   1.300   .     A
O1068  Zn1078  1.973   .     S
C1069  C1086   1.436   .     S
C1070  C1085   1.455   .     S
O1071  Zn1077  1.955   .     S
O1071  C1075   1.291   .     A
O1072  C1076   1.291   .     A
O1072  Zn1078  1.955   .     S
O1073  Zn1077  1.944   .     S
O1073  C1076   1.286   .     A
O1074  C1075   1.286   .     A
O1074  Zn1078  1.944   .     S
C1075  C1079   1.368   .     S
C1076  C1080   1.368   .     S
Zn1077 N1091   2.039   .     S
Zn1078 N1092   2.039   .     S
C1080  C1763   1.166   .     S
C1081  C1086   1.403   .     A
C1081  C1093   1.535   .     S
C1082  C1103   1.527   .     S
C1082  C1085   1.420   .     A
C1082  C932    1.382   1_655 S
C1083  C1085   1.438   .     A
C1083  C1113   1.518   .     S
C1083  C929    1.411   1_655 S
C1084  C1123   1.523   .     S
C1084  C1086   1.390   .     A
C1087  O1133   1.367   .     S
C1087  N1092   1.377   .     A
C1088  N1091   1.374   .     A
C1088  O1135   1.375   .     S
C1088  C1317   1.419   .     S
C1089  O1137   1.375   .     S
C1089  N1092   1.382   .     A
C1090  O1139   1.375   .     S
C1090  N1091   1.376   .     A
C1090  C1315   1.412   .     S
C1093  H1102   1.111   .     S
C1093  C1094   1.541   .     S
C1093  H1101   1.110   .     S
C1094  H1100   1.102   .     S
C1094  C1095   1.527   .     S
C1094  H1099   1.102   .     S
C1095  H1097   1.111   .     S
C1095  H1096   1.111   .     S
C1095  H1098   1.111   .     S
C1103  H1111   1.108   .     S
C1103  C1104   1.531   .     S
C1103  H1112   1.112   .     S
C1104  H1110   1.107   .     S
C1104  C1105   1.526   .     S
C1104  H1109   1.111   .     S
C1105  H1107   1.109   .     S
C1105  H1106   1.111   .     S
H1108  C1789   1.109   .     S
C1113  H1122   1.099   .     S
C1113  H1121   1.097   .     S
C1113  C1114   1.534   .     S
C1114  C1115   1.529   .     S
C1114  H1120   1.103   .     S
C1114  H1119   1.111   .     S
C1115  H1116   1.107   .     S
C1115  H1801   1.111   .     S
C1115  H1802   1.109   .     S
C1123  H1132   1.110   .     S
C1123  H1131   1.109   .     S
C1124  H1129   1.110   .     S
C1124  C1125   1.519   .     S
C1124  C971    1.544   1_655 S
C1124  H978    1.112   1_655 S
C1125  H1128   1.109   .     S
C1125  H1127   1.110   .     S
C1125  H974    1.107   1_655 S
O1133  H1134   0.976   .     S
O1135  H1136   0.984   .     S
O1137  H1138   0.980   .     S
O1139  H1140   0.980   .     S
O1141  C1145   1.294   .     A
O1141  Zn1153  2.021   .     S
O1142  C1146   1.300   .     A
O1142  Zn1154  2.021   .     S
O1143  Zn1153  1.973   .     S
O1143  C1146   1.304   .     A
O1144  C1145   1.300   .     A
O1144  Zn1154  1.973   .     S
C1145  C1162   1.436   .     S
C1146  C1161   1.455   .     S
O1147  Zn1153  1.955   .     S
O1147  C1151   1.291   .     A
O1148  C1152   1.291   .     A
O1148  Zn1154  1.955   .     S
O1149  Zn1153  1.944   .     S
O1149  C1152   1.286   .     A
O1150  C1151   1.286   .     A
O1150  Zn1154  1.944   .     S
C1151  C1155   1.368   .     S
C1152  C1156   1.368   .     S
Zn1153 N1167   2.039   .     S
Zn1154 N1168   2.039   .     S
C1156  C1839   1.166   .     S
C1157  C1162   1.403   .     A
C1157  C1169   1.535   .     S
C1157  C1311   1.411   1_455 S
C1158  C1179   1.527   .     S
C1158  C1161   1.420   .     A
C1158  C1236   1.382   .     S
C1159  C1161   1.438   .     A
C1159  C1189   1.518   .     S
C1159  C1233   1.411   .     S
C1160  C1199   1.523   .     S
C1160  C1162   1.390   .     A
C1160  C1310   1.382   1_455 S
C1163  O1209   1.367   .     S
C1163  N1168   1.377   .     A
C1164  N1167   1.374   .     A
C1164  O1211   1.375   .     S
C1164  C709    1.419   1_565 S
C1165  O1213   1.375   .     S
C1165  N1168   1.382   .     A
C1166  O1215   1.375   .     S
C1166  N1167   1.376   .     A
C1166  C707    1.412   1_565 S
C1169  H1178   1.111   .     S
C1169  C1170   1.541   .     S
C1169  H1177   1.110   .     S
C1170  H1176   1.102   .     S
C1170  C1171   1.527   .     S
C1170  H1175   1.102   .     S
C1171  H1173   1.111   .     S
C1171  H1172   1.111   .     S
C1171  H1174   1.111   .     S
C1179  H1187   1.108   .     S
C1179  C1180   1.531   .     S
C1179  H1188   1.112   .     S
C1180  H1186   1.107   .     S
C1180  C1181   1.526   .     S
C1180  H1185   1.111   .     S
C1181  H1183   1.109   .     S
C1181  H1182   1.111   .     S
H1184  C1865   1.109   .     S
C1189  H1198   1.099   .     S
C1189  H1197   1.097   .     S
C1189  C1190   1.534   .     S
C1190  C1191   1.529   .     S
C1190  H1196   1.103   .     S
C1190  H1195   1.111   .     S
C1191  H1192   1.107   .     S
C1191  H1877   1.111   .     S
C1191  H1878   1.109   .     S
C1199  H1208   1.110   .     S
C1199  H1207   1.109   .     S
C1199  C1352   1.544   1_455 S
C1200  H1205   1.110   .     S
C1200  C1201   1.519   .     S
C1200  C1275   1.544   .     S
C1200  H1282   1.112   .     S
C1201  H1204   1.109   .     S
C1201  H1203   1.110   .     S
C1201  H1278   1.107   .     S
H1202  C1353   1.107   1_455 S
H1206  C1352   1.112   1_455 S
O1209  H1210   0.976   .     S
O1211  H1212   0.984   .     S
O1213  H1214   0.980   .     S
O1215  H1216   0.980   .     S
O1217  C1221   1.294   .     A
O1217  Zn1229  2.021   .     S
O1218  C1222   1.300   .     A
O1218  Zn1230  2.021   .     S
O1219  Zn1229  1.973   .     S
O1219  C1222   1.304   .     A
O1220  C1221   1.300   .     A
O1220  Zn1230  1.973   .     S
C1221  C1238   1.436   .     S
C1222  C1237   1.455   .     S
O1223  Zn1229  1.955   .     S
O1223  C1227   1.291   .     A
O1224  C1228   1.291   .     A
O1224  Zn1230  1.955   .     S
O1225  Zn1229  1.944   .     S
O1225  C1228   1.286   .     A
O1226  C1227   1.286   .     A
O1226  Zn1230  1.944   .     S
C1227  C1231   1.368   .     S
C1228  C1232   1.368   .     S
Zn1229 N1243   2.039   .     S
Zn1230 N1244   2.039   .     S
C1232  C1915   1.166   .     S
C1233  C1238   1.403   .     A
C1233  C1245   1.535   .     S
C1234  C1255   1.527   .     S
C1234  C1237   1.420   .     A
C1234  C1312   1.382   .     S
C1235  C1237   1.438   .     A
C1235  C1265   1.518   .     S
C1235  C1309   1.411   .     S
C1236  C1275   1.523   .     S
C1236  C1238   1.390   .     A
C1239  O1285   1.367   .     S
C1239  N1244   1.377   .     A
C1240  N1243   1.374   .     A
C1240  O1287   1.375   .     S
C1240  C785    1.419   1_565 S
C1241  O1289   1.375   .     S
C1241  N1244   1.382   .     A
C1242  O1291   1.375   .     S
C1242  N1243   1.376   .     A
C1242  C783    1.412   1_565 S
C1245  H1254   1.111   .     S
C1245  C1246   1.541   .     S
C1245  H1253   1.110   .     S
C1246  H1252   1.102   .     S
C1246  C1247   1.527   .     S
C1246  H1251   1.102   .     S
C1247  H1249   1.111   .     S
C1247  H1248   1.111   .     S
C1247  H1250   1.111   .     S
C1255  H1263   1.108   .     S
C1255  C1256   1.531   .     S
C1255  H1264   1.112   .     S
C1256  H1262   1.107   .     S
C1256  C1257   1.526   .     S
C1256  H1261   1.111   .     S
C1257  H1259   1.109   .     S
C1257  H1258   1.111   .     S
H1260  C1941   1.109   .     S
C1265  H1274   1.099   .     S
C1265  H1273   1.097   .     S
C1265  C1266   1.534   .     S
C1266  C1267   1.529   .     S
C1266  H1272   1.103   .     S
C1266  H1271   1.111   .     S
C1267  H1268   1.107   .     S
C1267  H1953   1.111   .     S
C1267  H1954   1.109   .     S
C1275  H1284   1.110   .     S
C1275  H1283   1.109   .     S
C1276  H1281   1.110   .     S
C1276  C1277   1.519   .     S
C1276  C1351   1.544   .     S
C1276  H1358   1.112   .     S
C1277  H1280   1.109   .     S
C1277  H1279   1.110   .     S
C1277  H1354   1.107   .     S
O1285  H1286   0.976   .     S
O1287  H1288   0.984   .     S
O1289  H1290   0.980   .     S
O1291  H1292   0.980   .     S
O1293  C1297   1.294   .     A
O1293  Zn1305  2.021   .     S
O1294  C1298   1.300   .     A
O1294  Zn1306  2.021   .     S
O1295  Zn1305  1.973   .     S
O1295  C1298   1.304   .     A
O1296  C1297   1.300   .     A
O1296  Zn1306  1.973   .     S
C1297  C1314   1.436   .     S
C1298  C1313   1.455   .     S
O1299  Zn1305  1.955   .     S
O1299  C1303   1.291   .     A
O1300  C1304   1.291   .     A
O1300  Zn1306  1.955   .     S
O1301  Zn1305  1.944   .     S
O1301  C1304   1.286   .     A
O1302  C1303   1.286   .     A
O1302  Zn1306  1.944   .     S
C1303  C1307   1.368   .     S
C1304  C1308   1.368   .     S
Zn1305 N1319   2.039   .     S
Zn1306 N1320   2.039   .     S
C1308  C1991   1.166   .     S
C1309  C1314   1.403   .     A
C1309  C1321   1.535   .     S
C1310  C1331   1.527   .     S
C1310  C1313   1.420   .     A
C1310  C1160   1.382   1_655 S
C1311  C1313   1.438   .     A
C1311  C1341   1.518   .     S
C1311  C1157   1.411   1_655 S
C1312  C1351   1.523   .     S
C1312  C1314   1.390   .     A
C1315  O1361   1.367   .     S
C1315  N1320   1.377   .     A
C1316  N1319   1.374   .     A
C1316  O1363   1.375   .     S
C1316  C861    1.419   1_565 S
C1317  O1365   1.375   .     S
C1317  N1320   1.382   .     A
C1318  O1367   1.375   .     S
C1318  N1319   1.376   .     A
C1318  C859    1.412   1_565 S
C1321  H1330   1.111   .     S
C1321  C1322   1.541   .     S
C1321  H1329   1.110   .     S
C1322  H1328   1.102   .     S
C1322  C1323   1.527   .     S
C1322  H1327   1.102   .     S
C1323  H1325   1.111   .     S
C1323  H1324   1.111   .     S
C1323  H1326   1.111   .     S
C1331  H1339   1.108   .     S
C1331  C1332   1.531   .     S
C1331  H1340   1.112   .     S
C1332  H1338   1.107   .     S
C1332  C1333   1.526   .     S
C1332  H1337   1.111   .     S
C1333  H1335   1.109   .     S
C1333  H1334   1.111   .     S
H1336  C2017   1.109   .     S
C1341  H1350   1.099   .     S
C1341  H1349   1.097   .     S
C1341  C1342   1.534   .     S
C1342  C1343   1.529   .     S
C1342  H1348   1.103   .     S
C1342  H1347   1.111   .     S
C1343  H1344   1.107   .     S
C1343  H2029   1.111   .     S
C1343  H2030   1.109   .     S
C1351  H1360   1.110   .     S
C1351  H1359   1.109   .     S
C1352  H1357   1.110   .     S
C1352  C1353   1.519   .     S
C1352  C1199   1.544   1_655 S
C1352  H1206   1.112   1_655 S
C1353  H1356   1.109   .     S
C1353  H1355   1.110   .     S
C1353  H1202   1.107   1_655 S
O1361  H1362   0.976   .     S
O1363  H1364   0.984   .     S
O1365  H1366   0.980   .     S
O1367  H1368   0.980   .     S
O1369  C1373   1.294   .     A
O1369  Zn1381  2.021   .     S
O1370  C1374   1.300   .     A
O1370  Zn1382  2.021   .     S
O1371  Zn1381  1.973   .     S
O1371  C1374   1.304   .     A
O1372  C1373   1.300   .     A
O1372  Zn1382  1.973   .     S
C1373  C1390   1.436   .     S
C1374  C1389   1.455   .     S
O1375  Zn1381  1.955   .     S
O1375  C1379   1.291   .     A
O1376  C1380   1.291   .     A
O1376  Zn1382  1.955   .     S
O1377  Zn1381  1.944   .     S
O1377  C1380   1.286   .     A
O1378  C1379   1.286   .     A
O1378  Zn1382  1.944   .     S
C1379  C1383   1.368   .     S
C1380  C1384   1.368   .     S
Zn1381 N1395   2.039   .     S
Zn1382 N1396   2.039   .     S
C1384  C15     1.166   1_556 S
C1385  C1390   1.403   .     A
C1385  C1397   1.535   .     S
C1385  C1539   1.411   1_455 S
C1386  C1407   1.527   .     S
C1386  C1389   1.420   .     A
C1386  C1464   1.382   .     S
C1387  C1389   1.438   .     A
C1387  C1417   1.518   .     S
C1387  C1461   1.411   .     S
C1388  C1427   1.523   .     S
C1388  C1390   1.390   .     A
C1388  C1538   1.382   1_455 S
C1391  O1437   1.367   .     S
C1391  N1396   1.377   .     A
C1391  C1850   1.412   1_545 S
C1392  N1395   1.374   .     A
C1392  O1439   1.375   .     S
C1392  C1621   1.419   .     S
C1393  O1441   1.375   .     S
C1393  N1396   1.382   .     A
C1393  C1848   1.419   1_545 S
C1394  O1443   1.375   .     S
C1394  N1395   1.376   .     A
C1394  C1619   1.412   .     S
C1397  H1406   1.111   .     S
C1397  C1398   1.541   .     S
C1397  H1405   1.110   .     S
C1398  H1404   1.102   .     S
C1398  C1399   1.527   .     S
C1398  H1403   1.102   .     S
C1399  H1401   1.111   .     S
C1399  H1400   1.111   .     S
C1399  H1402   1.111   .     S
C1407  H1415   1.108   .     S
C1407  C1408   1.531   .     S
C1407  H1416   1.112   .     S
C1408  H1414   1.107   .     S
C1408  C1409   1.526   .     S
C1408  H1413   1.111   .     S
C1409  H1411   1.109   .     S
C1409  H1410   1.111   .     S
H1412  C41     1.109   1_556 S
C1417  H1426   1.099   .     S
C1417  H1425   1.097   .     S
C1417  C1418   1.534   .     S
C1418  C1419   1.529   .     S
C1418  H1424   1.103   .     S
C1418  H1423   1.111   .     S
C1419  H1420   1.107   .     S
C1419  H53     1.111   1_556 S
C1419  H54     1.109   1_556 S
C1427  H1436   1.110   .     S
C1427  H1435   1.109   .     S
C1427  C1580   1.544   1_455 S
C1428  H1433   1.110   .     S
C1428  C1429   1.519   .     S
C1428  C1503   1.544   .     S
C1428  H1510   1.112   .     S
C1429  H1432   1.109   .     S
C1429  H1431   1.110   .     S
C1429  H1506   1.107   .     S
H1430  C1581   1.107   1_455 S
H1434  C1580   1.112   1_455 S
O1437  H1438   0.976   .     S
O1439  H1440   0.984   .     S
O1441  H1442   0.980   .     S
O1443  H1444   0.980   .     S
O1445  C1449   1.294   .     A
O1445  Zn1457  2.021   .     S
O1446  C1450   1.300   .     A
O1446  Zn1458  2.021   .     S
O1447  Zn1457  1.973   .     S
O1447  C1450   1.304   .     A
O1448  C1449   1.300   .     A
O1448  Zn1458  1.973   .     S
C1449  C1466   1.436   .     S
C1450  C1465   1.455   .     S
O1451  Zn1457  1.955   .     S
O1451  C1455   1.291   .     A
O1452  C1456   1.291   .     A
O1452  Zn1458  1.955   .     S
O1453  Zn1457  1.944   .     S
O1453  C1456   1.286   .     A
O1454  C1455   1.286   .     A
O1454  Zn1458  1.944   .     S
C1455  C1459   1.368   .     S
C1456  C1460   1.368   .     S
Zn1457 N1471   2.039   .     S
Zn1458 N1472   2.039   .     S
C1460  C91     1.166   1_556 S
C1461  C1466   1.403   .     A
C1461  C1473   1.535   .     S
C1462  C1483   1.527   .     S
C1462  C1465   1.420   .     A
C1462  C1540   1.382   .     S
C1463  C1465   1.438   .     A
C1463  C1493   1.518   .     S
C1463  C1537   1.411   .     S
C1464  C1503   1.523   .     S
C1464  C1466   1.390   .     A
C1467  O1513   1.367   .     S
C1467  N1472   1.377   .     A
C1467  C1926   1.412   1_545 S
C1468  N1471   1.374   .     A
C1468  O1515   1.375   .     S
C1468  C1697   1.419   .     S
C1469  O1517   1.375   .     S
C1469  N1472   1.382   .     A
C1469  C1924   1.419   1_545 S
C1470  O1519   1.375   .     S
C1470  N1471   1.376   .     A
C1470  C1695   1.412   .     S
C1473  H1482   1.111   .     S
C1473  C1474   1.541   .     S
C1473  H1481   1.110   .     S
C1474  H1480   1.102   .     S
C1474  C1475   1.527   .     S
C1474  H1479   1.102   .     S
C1475  H1477   1.111   .     S
C1475  H1476   1.111   .     S
C1475  H1478   1.111   .     S
C1483  H1491   1.108   .     S
C1483  C1484   1.531   .     S
C1483  H1492   1.112   .     S
C1484  H1490   1.107   .     S
C1484  C1485   1.526   .     S
C1484  H1489   1.111   .     S
C1485  H1487   1.109   .     S
C1485  H1486   1.111   .     S
H1488  C117    1.109   1_556 S
C1493  H1502   1.099   .     S
C1493  H1501   1.097   .     S
C1493  C1494   1.534   .     S
C1494  C1495   1.529   .     S
C1494  H1500   1.103   .     S
C1494  H1499   1.111   .     S
C1495  H1496   1.107   .     S
C1495  H129    1.111   1_556 S
C1495  H130    1.109   1_556 S
C1503  H1512   1.110   .     S
C1503  H1511   1.109   .     S
C1504  H1509   1.110   .     S
C1504  C1505   1.519   .     S
C1504  C1579   1.544   .     S
C1504  H1586   1.112   .     S
C1505  H1508   1.109   .     S
C1505  H1507   1.110   .     S
C1505  H1582   1.107   .     S
O1513  H1514   0.976   .     S
O1515  H1516   0.984   .     S
O1517  H1518   0.980   .     S
O1519  H1520   0.980   .     S
O1521  C1525   1.294   .     A
O1521  Zn1533  2.021   .     S
O1522  C1526   1.300   .     A
O1522  Zn1534  2.021   .     S
O1523  Zn1533  1.973   .     S
O1523  C1526   1.304   .     A
O1524  C1525   1.300   .     A
O1524  Zn1534  1.973   .     S
C1525  C1542   1.436   .     S
C1526  C1541   1.455   .     S
O1527  Zn1533  1.955   .     S
O1527  C1531   1.291   .     A
O1528  C1532   1.291   .     A
O1528  Zn1534  1.955   .     S
O1529  Zn1533  1.944   .     S
O1529  C1532   1.286   .     A
O1530  C1531   1.286   .     A
O1530  Zn1534  1.944   .     S
C1531  C1535   1.368   .     S
C1532  C1536   1.368   .     S
Zn1533 N1547   2.039   .     S
Zn1534 N1548   2.039   .     S
C1536  C167    1.166   1_556 S
C1537  C1542   1.403   .     A
C1537  C1549   1.535   .     S
C1538  C1559   1.527   .     S
C1538  C1541   1.420   .     A
C1538  C1388   1.382   1_655 S
C1539  C1541   1.438   .     A
C1539  C1569   1.518   .     S
C1539  C1385   1.411   1_655 S
C1540  C1579   1.523   .     S
C1540  C1542   1.390   .     A
C1543  O1589   1.367   .     S
C1543  N1548   1.377   .     A
C1543  C2002   1.412   1_545 S
C1544  N1547   1.374   .     A
C1544  O1591   1.375   .     S
C1544  C1773   1.419   .     S
C1545  O1593   1.375   .     S
C1545  N1548   1.382   .     A
C1545  C2000   1.419   1_545 S
C1546  O1595   1.375   .     S
C1546  N1547   1.376   .     A
C1546  C1771   1.412   .     S
C1549  H1558   1.111   .     S
C1549  C1550   1.541   .     S
C1549  H1557   1.110   .     S
C1550  H1556   1.102   .     S
C1550  C1551   1.527   .     S
C1550  H1555   1.102   .     S
C1551  H1553   1.111   .     S
C1551  H1552   1.111   .     S
C1551  H1554   1.111   .     S
C1559  H1567   1.108   .     S
C1559  C1560   1.531   .     S
C1559  H1568   1.112   .     S
C1560  H1566   1.107   .     S
C1560  C1561   1.526   .     S
C1560  H1565   1.111   .     S
C1561  H1563   1.109   .     S
C1561  H1562   1.111   .     S
H1564  C193    1.109   1_556 S
C1569  H1578   1.099   .     S
C1569  H1577   1.097   .     S
C1569  C1570   1.534   .     S
C1570  C1571   1.529   .     S
C1570  H1576   1.103   .     S
C1570  H1575   1.111   .     S
C1571  H1572   1.107   .     S
C1571  H205    1.111   1_556 S
C1571  H206    1.109   1_556 S
C1579  H1588   1.110   .     S
C1579  H1587   1.109   .     S
C1580  H1585   1.110   .     S
C1580  C1581   1.519   .     S
C1580  C1427   1.544   1_655 S
C1580  H1434   1.112   1_655 S
C1581  H1584   1.109   .     S
C1581  H1583   1.110   .     S
C1581  H1430   1.107   1_655 S
O1589  H1590   0.976   .     S
O1591  H1592   0.984   .     S
O1593  H1594   0.980   .     S
O1595  H1596   0.980   .     S
O1597  C1601   1.294   .     A
O1597  Zn1609  2.021   .     S
O1598  C1602   1.300   .     A
O1598  Zn1610  2.021   .     S
O1599  Zn1609  1.973   .     S
O1599  C1602   1.304   .     A
O1600  C1601   1.300   .     A
O1600  Zn1610  1.973   .     S
C1601  C1618   1.436   .     S
C1602  C1617   1.455   .     S
O1603  Zn1609  1.955   .     S
O1603  C1607   1.291   .     A
O1604  C1608   1.291   .     A
O1604  Zn1610  1.955   .     S
O1605  Zn1609  1.944   .     S
O1605  C1608   1.286   .     A
O1606  C1607   1.286   .     A
O1606  Zn1610  1.944   .     S
C1607  C1611   1.368   .     S
C1608  C1612   1.368   .     S
Zn1609 N1623   2.039   .     S
Zn1610 N1624   2.039   .     S
C1612  C243    1.166   1_556 S
C1613  C1618   1.403   .     A
C1613  C1625   1.535   .     S
C1613  C1767   1.411   1_455 S
C1614  C1635   1.527   .     S
C1614  C1617   1.420   .     A
C1614  C1692   1.382   .     S
C1615  C1617   1.438   .     A
C1615  C1645   1.518   .     S
C1615  C1689   1.411   .     S
C1616  C1655   1.523   .     S
C1616  C1618   1.390   .     A
C1616  C1766   1.382   1_455 S
C1619  O1665   1.367   .     S
C1619  N1624   1.377   .     A
C1620  N1623   1.374   .     A
C1620  O1667   1.375   .     S
C1620  C1849   1.419   .     S
C1621  O1669   1.375   .     S
C1621  N1624   1.382   .     A
C1622  O1671   1.375   .     S
C1622  N1623   1.376   .     A
C1622  C1847   1.412   .     S
C1625  H1634   1.111   .     S
C1625  C1626   1.541   .     S
C1625  H1633   1.110   .     S
C1626  H1632   1.102   .     S
C1626  C1627   1.527   .     S
C1626  H1631   1.102   .     S
C1627  H1629   1.111   .     S
C1627  H1628   1.111   .     S
C1627  H1630   1.111   .     S
C1635  H1643   1.108   .     S
C1635  C1636   1.531   .     S
C1635  H1644   1.112   .     S
C1636  H1642   1.107   .     S
C1636  C1637   1.526   .     S
C1636  H1641   1.111   .     S
C1637  H1639   1.109   .     S
C1637  H1638   1.111   .     S
H1640  C269    1.109   1_556 S
C1645  H1654   1.099   .     S
C1645  H1653   1.097   .     S
C1645  C1646   1.534   .     S
C1646  C1647   1.529   .     S
C1646  H1652   1.103   .     S
C1646  H1651   1.111   .     S
C1647  H1648   1.107   .     S
C1647  H281    1.111   1_556 S
C1647  H282    1.109   1_556 S
C1655  H1664   1.110   .     S
C1655  H1663   1.109   .     S
C1655  C1808   1.544   1_455 S
C1656  H1661   1.110   .     S
C1656  C1657   1.519   .     S
C1656  C1731   1.544   .     S
C1656  H1738   1.112   .     S
C1657  H1660   1.109   .     S
C1657  H1659   1.110   .     S
C1657  H1734   1.107   .     S
H1658  C1809   1.107   1_455 S
H1662  C1808   1.112   1_455 S
O1665  H1666   0.976   .     S
O1667  H1668   0.984   .     S
O1669  H1670   0.980   .     S
O1671  H1672   0.980   .     S
O1673  C1677   1.294   .     A
O1673  Zn1685  2.021   .     S
O1674  C1678   1.300   .     A
O1674  Zn1686  2.021   .     S
O1675  Zn1685  1.973   .     S
O1675  C1678   1.304   .     A
O1676  C1677   1.300   .     A
O1676  Zn1686  1.973   .     S
C1677  C1694   1.436   .     S
C1678  C1693   1.455   .     S
O1679  Zn1685  1.955   .     S
O1679  C1683   1.291   .     A
O1680  C1684   1.291   .     A
O1680  Zn1686  1.955   .     S
O1681  Zn1685  1.944   .     S
O1681  C1684   1.286   .     A
O1682  C1683   1.286   .     A
O1682  Zn1686  1.944   .     S
C1683  C1687   1.368   .     S
C1684  C1688   1.368   .     S
Zn1685 N1699   2.039   .     S
Zn1686 N1700   2.039   .     S
C1688  C319    1.166   1_556 S
C1689  C1694   1.403   .     A
C1689  C1701   1.535   .     S
C1690  C1711   1.527   .     S
C1690  C1693   1.420   .     A
C1690  C1768   1.382   .     S
C1691  C1693   1.438   .     A
C1691  C1721   1.518   .     S
C1691  C1765   1.411   .     S
C1692  C1731   1.523   .     S
C1692  C1694   1.390   .     A
C1695  O1741   1.367   .     S
C1695  N1700   1.377   .     A
C1696  N1699   1.374   .     A
C1696  O1743   1.375   .     S
C1696  C1925   1.419   .     S
C1697  O1745   1.375   .     S
C1697  N1700   1.382   .     A
C1698  O1747   1.375   .     S
C1698  N1699   1.376   .     A
C1698  C1923   1.412   .     S
C1701  H1710   1.111   .     S
C1701  C1702   1.541   .     S
C1701  H1709   1.110   .     S
C1702  H1708   1.102   .     S
C1702  C1703   1.527   .     S
C1702  H1707   1.102   .     S
C1703  H1705   1.111   .     S
C1703  H1704   1.111   .     S
C1703  H1706   1.111   .     S
C1711  H1719   1.108   .     S
C1711  C1712   1.531   .     S
C1711  H1720   1.112   .     S
C1712  H1718   1.107   .     S
C1712  C1713   1.526   .     S
C1712  H1717   1.111   .     S
C1713  H1715   1.109   .     S
C1713  H1714   1.111   .     S
H1716  C345    1.109   1_556 S
C1721  H1730   1.099   .     S
C1721  H1729   1.097   .     S
C1721  C1722   1.534   .     S
C1722  C1723   1.529   .     S
C1722  H1728   1.103   .     S
C1722  H1727   1.111   .     S
C1723  H1724   1.107   .     S
C1723  H357    1.111   1_556 S
C1723  H358    1.109   1_556 S
C1731  H1740   1.110   .     S
C1731  H1739   1.109   .     S
C1732  H1737   1.110   .     S
C1732  C1733   1.519   .     S
C1732  C1807   1.544   .     S
C1732  H1814   1.112   .     S
C1733  H1736   1.109   .     S
C1733  H1735   1.110   .     S
C1733  H1810   1.107   .     S
O1741  H1742   0.976   .     S
O1743  H1744   0.984   .     S
O1745  H1746   0.980   .     S
O1747  H1748   0.980   .     S
O1749  C1753   1.294   .     A
O1749  Zn1761  2.021   .     S
O1750  C1754   1.300   .     A
O1750  Zn1762  2.021   .     S
O1751  Zn1761  1.973   .     S
O1751  C1754   1.304   .     A
O1752  C1753   1.300   .     A
O1752  Zn1762  1.973   .     S
C1753  C1770   1.436   .     S
C1754  C1769   1.455   .     S
O1755  Zn1761  1.955   .     S
O1755  C1759   1.291   .     A
O1756  C1760   1.291   .     A
O1756  Zn1762  1.955   .     S
O1757  Zn1761  1.944   .     S
O1757  C1760   1.286   .     A
O1758  C1759   1.286   .     A
O1758  Zn1762  1.944   .     S
C1759  C1763   1.368   .     S
C1760  C1764   1.368   .     S
Zn1761 N1775   2.039   .     S
Zn1762 N1776   2.039   .     S
C1764  C395    1.166   1_556 S
C1765  C1770   1.403   .     A
C1765  C1777   1.535   .     S
C1766  C1787   1.527   .     S
C1766  C1769   1.420   .     A
C1766  C1616   1.382   1_655 S
C1767  C1769   1.438   .     A
C1767  C1797   1.518   .     S
C1767  C1613   1.411   1_655 S
C1768  C1807   1.523   .     S
C1768  C1770   1.390   .     A
C1771  O1817   1.367   .     S
C1771  N1776   1.377   .     A
C1772  N1775   1.374   .     A
C1772  O1819   1.375   .     S
C1772  C2001   1.419   .     S
C1773  O1821   1.375   .     S
C1773  N1776   1.382   .     A
C1774  O1823   1.375   .     S
C1774  N1775   1.376   .     A
C1774  C1999   1.412   .     S
C1777  H1786   1.111   .     S
C1777  C1778   1.541   .     S
C1777  H1785   1.110   .     S
C1778  H1784   1.102   .     S
C1778  C1779   1.527   .     S
C1778  H1783   1.102   .     S
C1779  H1781   1.111   .     S
C1779  H1780   1.111   .     S
C1779  H1782   1.111   .     S
C1787  H1795   1.108   .     S
C1787  C1788   1.531   .     S
C1787  H1796   1.112   .     S
C1788  H1794   1.107   .     S
C1788  C1789   1.526   .     S
C1788  H1793   1.111   .     S
C1789  H1791   1.109   .     S
C1789  H1790   1.111   .     S
H1792  C421    1.109   1_556 S
C1797  H1806   1.099   .     S
C1797  H1805   1.097   .     S
C1797  C1798   1.534   .     S
C1798  C1799   1.529   .     S
C1798  H1804   1.103   .     S
C1798  H1803   1.111   .     S
C1799  H1800   1.107   .     S
C1799  H433    1.111   1_556 S
C1799  H434    1.109   1_556 S
C1807  H1816   1.110   .     S
C1807  H1815   1.109   .     S
C1808  H1813   1.110   .     S
C1808  C1809   1.519   .     S
C1808  C1655   1.544   1_655 S
C1808  H1662   1.112   1_655 S
C1809  H1812   1.109   .     S
C1809  H1811   1.110   .     S
C1809  H1658   1.107   1_655 S
O1817  H1818   0.976   .     S
O1819  H1820   0.984   .     S
O1821  H1822   0.980   .     S
O1823  H1824   0.980   .     S
O1825  C1829   1.294   .     A
O1825  Zn1837  2.021   .     S
O1826  C1830   1.300   .     A
O1826  Zn1838  2.021   .     S
O1827  Zn1837  1.973   .     S
O1827  C1830   1.304   .     A
O1828  C1829   1.300   .     A
O1828  Zn1838  1.973   .     S
C1829  C1846   1.436   .     S
C1830  C1845   1.455   .     S
O1831  Zn1837  1.955   .     S
O1831  C1835   1.291   .     A
O1832  C1836   1.291   .     A
O1832  Zn1838  1.955   .     S
O1833  Zn1837  1.944   .     S
O1833  C1836   1.286   .     A
O1834  C1835   1.286   .     A
O1834  Zn1838  1.944   .     S
C1835  C1839   1.368   .     S
C1836  C1840   1.368   .     S
Zn1837 N1851   2.039   .     S
Zn1838 N1852   2.039   .     S
C1840  C471    1.166   1_556 S
C1841  C1846   1.403   .     A
C1841  C1853   1.535   .     S
C1841  C1995   1.411   1_455 S
C1842  C1863   1.527   .     S
C1842  C1845   1.420   .     A
C1842  C1920   1.382   .     S
C1843  C1845   1.438   .     A
C1843  C1873   1.518   .     S
C1843  C1917   1.411   .     S
C1844  C1883   1.523   .     S
C1844  C1846   1.390   .     A
C1844  C1994   1.382   1_455 S
C1847  O1893   1.367   .     S
C1847  N1852   1.377   .     A
C1848  N1851   1.374   .     A
C1848  O1895   1.375   .     S
C1848  C1393   1.419   1_565 S
C1849  O1897   1.375   .     S
C1849  N1852   1.382   .     A
C1850  O1899   1.375   .     S
C1850  N1851   1.376   .     A
C1850  C1391   1.412   1_565 S
C1853  H1862   1.111   .     S
C1853  C1854   1.541   .     S
C1853  H1861   1.110   .     S
C1854  H1860   1.102   .     S
C1854  C1855   1.527   .     S
C1854  H1859   1.102   .     S
C1855  H1857   1.111   .     S
C1855  H1856   1.111   .     S
C1855  H1858   1.111   .     S
C1863  H1871   1.108   .     S
C1863  C1864   1.531   .     S
C1863  H1872   1.112   .     S
C1864  H1870   1.107   .     S
C1864  C1865   1.526   .     S
C1864  H1869   1.111   .     S
C1865  H1867   1.109   .     S
C1865  H1866   1.111   .     S
H1868  C497    1.109   1_556 S
C1873  H1882   1.099   .     S
C1873  H1881   1.097   .     S
C1873  C1874   1.534   .     S
C1874  C1875   1.529   .     S
C1874  H1880   1.103   .     S
C1874  H1879   1.111   .     S
C1875  H1876   1.107   .     S
C1875  H509    1.111   1_556 S
C1875  H510    1.109   1_556 S
C1883  H1892   1.110   .     S
C1883  H1891   1.109   .     S
C1883  C2036   1.544   1_455 S
C1884  H1889   1.110   .     S
C1884  C1885   1.519   .     S
C1884  C1959   1.544   .     S
C1884  H1966   1.112   .     S
C1885  H1888   1.109   .     S
C1885  H1887   1.110   .     S
C1885  H1962   1.107   .     S
H1886  C2037   1.107   1_455 S
H1890  C2036   1.112   1_455 S
O1893  H1894   0.976   .     S
O1895  H1896   0.984   .     S
O1897  H1898   0.980   .     S
O1899  H1900   0.980   .     S
O1901  C1905   1.294   .     A
O1901  Zn1913  2.021   .     S
O1902  C1906   1.300   .     A
O1902  Zn1914  2.021   .     S
O1903  Zn1913  1.973   .     S
O1903  C1906   1.304   .     A
O1904  C1905   1.300   .     A
O1904  Zn1914  1.973   .     S
C1905  C1922   1.436   .     S
C1906  C1921   1.455   .     S
O1907  Zn1913  1.955   .     S
O1907  C1911   1.291   .     A
O1908  C1912   1.291   .     A
O1908  Zn1914  1.955   .     S
O1909  Zn1913  1.944   .     S
O1909  C1912   1.286   .     A
O1910  C1911   1.286   .     A
O1910  Zn1914  1.944   .     S
C1911  C1915   1.368   .     S
C1912  C1916   1.368   .     S
Zn1913 N1927   2.039   .     S
Zn1914 N1928   2.039   .     S
C1916  C547    1.166   1_556 S
C1917  C1922   1.403   .     A
C1917  C1929   1.535   .     S
C1918  C1939   1.527   .     S
C1918  C1921   1.420   .     A
C1918  C1996   1.382   .     S
C1919  C1921   1.438   .     A
C1919  C1949   1.518   .     S
C1919  C1993   1.411   .     S
C1920  C1959   1.523   .     S
C1920  C1922   1.390   .     A
C1923  O1969   1.367   .     S
C1923  N1928   1.377   .     A
C1924  N1927   1.374   .     A
C1924  O1971   1.375   .     S
C1924  C1469   1.419   1_565 S
C1925  O1973   1.375   .     S
C1925  N1928   1.382   .     A
C1926  O1975   1.375   .     S
C1926  N1927   1.376   .     A
C1926  C1467   1.412   1_565 S
C1929  H1938   1.111   .     S
C1929  C1930   1.541   .     S
C1929  H1937   1.110   .     S
C1930  H1936   1.102   .     S
C1930  C1931   1.527   .     S
C1930  H1935   1.102   .     S
C1931  H1933   1.111   .     S
C1931  H1932   1.111   .     S
C1931  H1934   1.111   .     S
C1939  H1947   1.108   .     S
C1939  C1940   1.531   .     S
C1939  H1948   1.112   .     S
C1940  H1946   1.107   .     S
C1940  C1941   1.526   .     S
C1940  H1945   1.111   .     S
C1941  H1943   1.109   .     S
C1941  H1942   1.111   .     S
H1944  C573    1.109   1_556 S
C1949  H1958   1.099   .     S
C1949  H1957   1.097   .     S
C1949  C1950   1.534   .     S
C1950  C1951   1.529   .     S
C1950  H1956   1.103   .     S
C1950  H1955   1.111   .     S
C1951  H1952   1.107   .     S
C1951  H585    1.111   1_556 S
C1951  H586    1.109   1_556 S
C1959  H1968   1.110   .     S
C1959  H1967   1.109   .     S
C1960  H1965   1.110   .     S
C1960  C1961   1.519   .     S
C1960  C2035   1.544   .     S
C1960  H2042   1.112   .     S
C1961  H1964   1.109   .     S
C1961  H1963   1.110   .     S
C1961  H2038   1.107   .     S
O1969  H1970   0.976   .     S
O1971  H1972   0.984   .     S
O1973  H1974   0.980   .     S
O1975  H1976   0.980   .     S
O1977  C1981   1.294   .     A
O1977  Zn1989  2.021   .     S
O1978  C1982   1.300   .     A
O1978  Zn1990  2.021   .     S
O1979  Zn1989  1.973   .     S
O1979  C1982   1.304   .     A
O1980  C1981   1.300   .     A
O1980  Zn1990  1.973   .     S
C1981  C1998   1.436   .     S
C1982  C1997   1.455   .     S
O1983  Zn1989  1.955   .     S
O1983  C1987   1.291   .     A
O1984  C1988   1.291   .     A
O1984  Zn1990  1.955   .     S
O1985  Zn1989  1.944   .     S
O1985  C1988   1.286   .     A
O1986  C1987   1.286   .     A
O1986  Zn1990  1.944   .     S
C1987  C1991   1.368   .     S
C1988  C1992   1.368   .     S
Zn1989 N2003   2.039   .     S
Zn1990 N2004   2.039   .     S
C1992  C623    1.166   1_556 S
C1993  C1998   1.403   .     A
C1993  C2005   1.535   .     S
C1994  C2015   1.527   .     S
C1994  C1997   1.420   .     A
C1994  C1844   1.382   1_655 S
C1995  C1997   1.438   .     A
C1995  C2025   1.518   .     S
C1995  C1841   1.411   1_655 S
C1996  C2035   1.523   .     S
C1996  C1998   1.390   .     A
C1999  O2045   1.367   .     S
C1999  N2004   1.377   .     A
C2000  N2003   1.374   .     A
C2000  O2047   1.375   .     S
C2000  C1545   1.419   1_565 S
C2001  O2049   1.375   .     S
C2001  N2004   1.382   .     A
C2002  O2051   1.375   .     S
C2002  N2003   1.376   .     A
C2002  C1543   1.412   1_565 S
C2005  H2014   1.111   .     S
C2005  C2006   1.541   .     S
C2005  H2013   1.110   .     S
C2006  H2012   1.102   .     S
C2006  C2007   1.527   .     S
C2006  H2011   1.102   .     S
C2007  H2009   1.111   .     S
C2007  H2008   1.111   .     S
C2007  H2010   1.111   .     S
C2015  H2023   1.108   .     S
C2015  C2016   1.531   .     S
C2015  H2024   1.112   .     S
C2016  H2022   1.107   .     S
C2016  C2017   1.526   .     S
C2016  H2021   1.111   .     S
C2017  H2019   1.109   .     S
C2017  H2018   1.111   .     S
H2020  C649    1.109   1_556 S
C2025  H2034   1.099   .     S
C2025  H2033   1.097   .     S
C2025  C2026   1.534   .     S
C2026  C2027   1.529   .     S
C2026  H2032   1.103   .     S
C2026  H2031   1.111   .     S
C2027  H2028   1.107   .     S
C2027  H661    1.111   1_556 S
C2027  H662    1.109   1_556 S
C2035  H2044   1.110   .     S
C2035  H2043   1.109   .     S
C2036  H2041   1.110   .     S
C2036  C2037   1.519   .     S
C2036  C1883   1.544   1_655 S
C2036  H1890   1.112   1_655 S
C2037  H2040   1.109   .     S
C2037  H2039   1.110   .     S
C2037  H1886   1.107   1_655 S
O2045  H2046   0.976   .     S
O2047  H2048   0.984   .     S
O2049  H2050   0.980   .     S
O2051  H2052   0.980   .     S
