data_str_m1_o5_o17_pcu_sym.96
_audit_creation_date              2020-01-03
_audit_creation_method            'Materials Studio'
_symmetry_space_group_name_H-M    'P1'
_symmetry_Int_Tables_number       1
_symmetry_cell_setting            triclinic
loop_
_symmetry_equiv_pos_as_xyz
  x,y,z
_cell_length_a                    31.7606
_cell_length_b                    31.7710
_cell_length_c                    34.5510
_cell_angle_alpha                 90.0170
_cell_angle_beta                  90.1275
_cell_angle_gamma                 89.8971
loop_
_atom_site_label
_atom_site_type_symbol
_atom_site_fract_x
_atom_site_fract_y
_atom_site_fract_z
_atom_site_U_iso_or_equiv
_atom_site_adp_type
_atom_site_occupancy
Zn1    Zn    0.20053  -0.00000   0.21730   0.00000  Uiso   1.00
Zn2    Zn    0.29948  -0.00000   0.78270   0.00000  Uiso   1.00
Zn3    Zn    0.00000   0.20052   0.21730   0.00000  Uiso   1.00
Zn4    Zn    0.00000   0.29948   0.78270   0.00000  Uiso   1.00
Zn5    Zn    0.29948  -0.00000   0.21730   0.00000  Uiso   1.00
Zn6    Zn    0.20053  -0.00000   0.78270   0.00000  Uiso   1.00
Zn7    Zn    0.00000   0.29948   0.21730   0.00000  Uiso   1.00
Zn8    Zn    0.00000   0.20053   0.78270   0.00000  Uiso   1.00
Zn9    Zn    0.45053   0.25000   0.71730   0.00000  Uiso   1.00
Zn10   Zn    0.04948   0.25000   0.28270   0.00000  Uiso   1.00
Zn11   Zn    0.25000   0.45052   0.71730   0.00000  Uiso   1.00
Zn12   Zn    0.25000   0.04947   0.28270   0.00000  Uiso   1.00
Zn13   Zn    0.04948   0.25000   0.71730   0.00000  Uiso   1.00
Zn14   Zn    0.45053   0.25000   0.28270   0.00000  Uiso   1.00
Zn15   Zn    0.25000   0.04947   0.71730   0.00000  Uiso   1.00
Zn16   Zn    0.25000   0.45052   0.28270   0.00000  Uiso   1.00
O17    O     0.25000  -0.00000   0.25000   0.00000  Uiso   1.00
O18    O     0.25000  -0.00000   0.75000   0.00000  Uiso   1.00
O19    O     0.00000   0.25000   0.25000   0.00000  Uiso   1.00
O20    O     0.00000   0.25000   0.75000   0.00000  Uiso   1.00
O21    O     0.25000   0.46538   0.33749   0.00000  Uiso   1.00
O22    O     0.25000   0.03461   0.66251   0.00000  Uiso   1.00
O23    O     0.03462   0.25000   0.33749   0.00000  Uiso   1.00
O24    O     0.46539   0.25000   0.66251   0.00000  Uiso   1.00
O25    O     0.25000   0.03461   0.33749   0.00000  Uiso   1.00
O26    O     0.25000   0.46538   0.66251   0.00000  Uiso   1.00
O27    O     0.46539   0.25000   0.33749   0.00000  Uiso   1.00
O28    O     0.03462   0.25000   0.66251   0.00000  Uiso   1.00
O29    O     0.00000   0.21539   0.83749   0.00000  Uiso   1.00
O30    O     0.00000   0.28462   0.16251   0.00000  Uiso   1.00
O31    O     0.28462  -0.00000   0.83749   0.00000  Uiso   1.00
O32    O     0.21539  -0.00000   0.16251   0.00000  Uiso   1.00
O33    O     0.00000   0.28462   0.83749   0.00000  Uiso   1.00
O34    O     0.00000   0.21539   0.16251   0.00000  Uiso   1.00
O35    O     0.21539  -0.00000   0.83749   0.00000  Uiso   1.00
O36    O     0.28462  -0.00000   0.16251   0.00000  Uiso   1.00
O37    O     0.20127   0.08332   0.27298   0.00000  Uiso   1.00
O38    O     0.29874   0.41668   0.72702   0.00000  Uiso   1.00
O39    O     0.41668   0.20126   0.27298   0.00000  Uiso   1.00
O40    O     0.08332   0.29874   0.72702   0.00000  Uiso   1.00
O41    O     0.29874   0.41668   0.27298   0.00000  Uiso   1.00
O42    O     0.20127   0.08332   0.72702   0.00000  Uiso   1.00
O43    O     0.08332   0.29874   0.27298   0.00000  Uiso   1.00
O44    O     0.41668   0.20126   0.72702   0.00000  Uiso   1.00
O45    O     0.20127   0.41668   0.72702   0.00000  Uiso   1.00
O46    O     0.29874   0.08332   0.27298   0.00000  Uiso   1.00
O47    O     0.41668   0.29873   0.72702   0.00000  Uiso   1.00
O48    O     0.08332   0.20127   0.27298   0.00000  Uiso   1.00
O49    O     0.29874   0.08332   0.72702   0.00000  Uiso   1.00
O50    O     0.20127   0.41668   0.27298   0.00000  Uiso   1.00
O51    O     0.08332   0.20127   0.72702   0.00000  Uiso   1.00
O52    O     0.41668   0.29873   0.27298   0.00000  Uiso   1.00
O53    O     0.45127   0.33332   0.77298   0.00000  Uiso   1.00
O54    O     0.04874   0.16668   0.22702   0.00000  Uiso   1.00
O55    O     0.16668   0.45127   0.77298   0.00000  Uiso   1.00
O56    O     0.33332   0.04873   0.22702   0.00000  Uiso   1.00
O57    O     0.04874   0.16668   0.77298   0.00000  Uiso   1.00
O58    O     0.45127   0.33332   0.22702   0.00000  Uiso   1.00
O59    O     0.33332   0.04873   0.77298   0.00000  Uiso   1.00
O60    O     0.16668   0.45127   0.22702   0.00000  Uiso   1.00
O61    O     0.45127   0.16668   0.22702   0.00000  Uiso   1.00
O62    O     0.04874   0.33332   0.77298   0.00000  Uiso   1.00
O63    O     0.16668   0.04873   0.22702   0.00000  Uiso   1.00
O64    O     0.33332   0.45126   0.77298   0.00000  Uiso   1.00
O65    O     0.04874   0.33332   0.22702   0.00000  Uiso   1.00
O66    O     0.45127   0.16668   0.77298   0.00000  Uiso   1.00
O67    O     0.33332   0.45126   0.22702   0.00000  Uiso   1.00
O68    O     0.16668   0.04873   0.77298   0.00000  Uiso   1.00
C69    C     0.24994   0.00002   0.35593   0.00000  Uiso   1.00
C70    C     0.24994   0.00001   0.64418   0.00000  Uiso   1.00
C71    C     0.00013   0.24971   0.35587   0.00000  Uiso   1.00
C72    C     0.49986   0.25021   0.64413   0.00000  Uiso   1.00
C73    C     0.00006   0.24999   0.85582   0.00000  Uiso   1.00
C74    C     0.00006   0.24998   0.14407   0.00000  Uiso   1.00
C75    C     0.25014   0.49979   0.85587   0.00000  Uiso   1.00
C76    C     0.24987   0.00029   0.14413   0.00000  Uiso   1.00
C77    C     0.16998   0.08001   0.24999   0.00000  Uiso   1.00
C78    C     0.33002   0.41999   0.75001   0.00000  Uiso   1.00
C79    C     0.41999   0.16998   0.24999   0.00000  Uiso   1.00
C80    C     0.08001   0.33002   0.75001   0.00000  Uiso   1.00
C81    C     0.33000   0.41999   0.25001   0.00000  Uiso   1.00
C82    C     0.17000   0.08001   0.75000   0.00000  Uiso   1.00
C83    C     0.08003   0.33001   0.25001   0.00000  Uiso   1.00
C84    C     0.41996   0.16999   0.74999   0.00000  Uiso   1.00
C85    C     0.16999   0.41998   0.74999   0.00000  Uiso   1.00
C86    C     0.33001   0.08002   0.25001   0.00000  Uiso   1.00
C87    C     0.41998   0.33001   0.74999   0.00000  Uiso   1.00
C88    C     0.08002   0.16999   0.25001   0.00000  Uiso   1.00
C89    C     0.33004   0.08001   0.75001   0.00000  Uiso   1.00
C90    C     0.16997   0.41999   0.24999   0.00000  Uiso   1.00
C91    C     0.08000   0.16999   0.75001   0.00000  Uiso   1.00
C92    C     0.42000   0.33001   0.24999   0.00000  Uiso   1.00
C93    C     0.13832   0.38834   0.24998   0.00000  Uiso   1.00
C94    C     0.36168   0.11166   0.75002   0.00000  Uiso   1.00
C95    C     0.11167   0.13835   0.25001   0.00000  Uiso   1.00
C96    C     0.38833   0.36165   0.74999   0.00000  Uiso   1.00
C97    C     0.36166   0.11168   0.25001   0.00000  Uiso   1.00
C98    C     0.13834   0.38832   0.74999   0.00000  Uiso   1.00
C99    C     0.38835   0.36167   0.24999   0.00000  Uiso   1.00
C100   C     0.11165   0.13833   0.75001   0.00000  Uiso   1.00
C101   C     0.13835   0.11167   0.74999   0.00000  Uiso   1.00
C102   C     0.36165   0.38833   0.25001   0.00000  Uiso   1.00
C103   C     0.11166   0.36168   0.75001   0.00000  Uiso   1.00
C104   C     0.38834   0.13832   0.24999   0.00000  Uiso   1.00
C105   C     0.36167   0.38835   0.75001   0.00000  Uiso   1.00
C106   C     0.13833   0.11165   0.24999   0.00000  Uiso   1.00
C107   C     0.38832   0.13834   0.74998   0.00000  Uiso   1.00
C108   C     0.11168   0.36166   0.25002   0.00000  Uiso   1.00
C109   C     0.47857   0.28175   0.41801   0.00000  Uiso   1.00
C110   C     0.02100   0.21746   0.58209   0.00000  Uiso   1.00
C111   C     0.21892   0.02293   0.41832   0.00000  Uiso   1.00
C112   C     0.28618   0.48725   0.58210   0.00000  Uiso   1.00
C113   C     0.02294   0.21887   0.41810   0.00000  Uiso   1.00
C114   C     0.47677   0.28040   0.58179   0.00000  Uiso   1.00
C115   C     0.28116   0.47784   0.41853   0.00000  Uiso   1.00
C116   C     0.21404   0.01344   0.58190   0.00000  Uiso   1.00
C117   C     0.22912   0.03261   0.91791   0.00000  Uiso   1.00
C118   C     0.27131   0.46817   0.08199   0.00000  Uiso   1.00
C119   C     0.46375   0.26257   0.91790   0.00000  Uiso   1.00
C120   C     0.03116   0.22718   0.08168   0.00000  Uiso   1.00
C121   C     0.27311   0.46951   0.91820   0.00000  Uiso   1.00
C122   C     0.22718   0.03122   0.08191   0.00000  Uiso   1.00
C123   C     0.03602   0.23673   0.91810   0.00000  Uiso   1.00
C124   C     0.46875   0.27202   0.08147   0.00000  Uiso   1.00
C125   C     0.00091   0.25043   0.39820   0.00000  Uiso   1.00
C126   C     0.49899   0.24911   0.60183   0.00000  Uiso   1.00
C127   C     0.24994   0.00016   0.39834   0.00000  Uiso   1.00
C128   C     0.25000   0.00009   0.60199   0.00000  Uiso   1.00
C129   C     0.25101   0.00088   0.89817   0.00000  Uiso   1.00
C130   C     0.24909   0.49958   0.10181   0.00000  Uiso   1.00
C131   C    -0.00000   0.24990   0.89801   0.00000  Uiso   1.00
C132   C     0.00006   0.24984   0.10166   0.00000  Uiso   1.00
C133   C     0.02422   0.21916   0.45905   0.00000  Uiso   1.00
C134   C     0.47491   0.27938   0.54092   0.00000  Uiso   1.00
C135   C     0.28417   0.48178   0.45928   0.00000  Uiso   1.00
C136   C     0.21572   0.01835   0.54122   0.00000  Uiso   1.00
C137   C     0.47893   0.28264   0.45901   0.00000  Uiso   1.00
C138   C     0.02016   0.21612   0.54107   0.00000  Uiso   1.00
C139   C     0.21621   0.01974   0.45917   0.00000  Uiso   1.00
C140   C     0.28488   0.48307   0.54131   0.00000  Uiso   1.00
C141   C     0.27496   0.47050   0.95908   0.00000  Uiso   1.00
C142   C     0.22591   0.03095   0.04095   0.00000  Uiso   1.00
C143   C     0.03436   0.23181   0.95878   0.00000  Uiso   1.00
C144   C     0.46574   0.26804   0.04073   0.00000  Uiso   1.00
C145   C     0.22998   0.03396   0.95893   0.00000  Uiso   1.00
C146   C     0.27092   0.46727   0.04099   0.00000  Uiso   1.00
C147   C     0.46502   0.26674   0.95869   0.00000  Uiso   1.00
C148   C     0.03386   0.23039   0.04083   0.00000  Uiso   1.00
C149   C     0.00027   0.24990   0.47948   0.00000  Uiso   1.00
C150   C     0.49887   0.24874   0.52052   0.00000  Uiso   1.00
C151   C     0.25022   0.00077   0.47973   0.00000  Uiso   1.00
C152   C     0.25028   0.00074   0.52072   0.00000  Uiso   1.00
C153   C     0.25114   0.00125   0.97948   0.00000  Uiso   1.00
C154   C     0.24972   0.00011   0.02052   0.00000  Uiso   1.00
C155   C     0.49971   0.24924   0.97928   0.00000  Uiso   1.00
C156   C     0.49977   0.24921   0.02027   0.00000  Uiso   1.00
C157   C     0.04785   0.18886   0.48019   0.00000  Uiso   1.00
C158   C     0.45052   0.30897   0.51990   0.00000  Uiso   1.00
C159   C     0.31970   0.46663   0.48015   0.00000  Uiso   1.00
C160   C     0.18338   0.03949   0.52056   0.00000  Uiso   1.00
C161   C     0.45786   0.31468   0.48026   0.00000  Uiso   1.00
C162   C     0.04048   0.18359   0.51994   0.00000  Uiso   1.00
C163   C     0.18104   0.03563   0.48006   0.00000  Uiso   1.00
C164   C     0.31759   0.46263   0.52063   0.00000  Uiso   1.00
C165   C     0.29919   0.44078   0.98010   0.00000  Uiso   1.00
C166   C     0.20244   0.06138   0.01980   0.00000  Uiso   1.00
C167   C     0.06680   0.21081   0.97944   0.00000  Uiso   1.00
C168   C     0.43012   0.28301   0.01986   0.00000  Uiso   1.00
C169   C     0.20984   0.06660   0.98005   0.00000  Uiso   1.00
C170   C     0.29182   0.43512   0.01975   0.00000  Uiso   1.00
C171   C     0.43220   0.28700   0.97938   0.00000  Uiso   1.00
C172   C     0.06911   0.21467   0.01994   0.00000  Uiso   1.00
N173   N     0.45181   0.30930   0.39602   0.00000  Uiso   1.00
O174   O     0.46823   0.33619   0.37200   0.00000  Uiso   1.00
O175   O     0.41155   0.30193   0.39455   0.00000  Uiso   1.00
N176   N     0.04804   0.19011   0.60402   0.00000  Uiso   1.00
O177   O     0.03201   0.16386   0.62884   0.00000  Uiso   1.00
O178   O     0.08846   0.19673   0.60413   0.00000  Uiso   1.00
N179   N     0.19226   0.05131   0.39707   0.00000  Uiso   1.00
O180   O     0.16700   0.03718   0.37036   0.00000  Uiso   1.00
O181   O     0.19677   0.09172   0.40147   0.00000  Uiso   1.00
N182   N     0.32530   0.48395   0.60292   0.00000  Uiso   1.00
O183   O     0.32999   0.45656   0.63059   0.00000  Uiso   1.00
O184   O     0.35549   0.01042   0.59571   0.00000  Uiso   1.00
N185   N     0.03655   0.18254   0.39670   0.00000  Uiso   1.00
O186   O     0.06971   0.18427   0.37470   0.00000  Uiso   1.00
O187   O     0.01350   0.14874   0.39668   0.00000  Uiso   1.00
N188   N     0.46371   0.31732   0.60267   0.00000  Uiso   1.00
O189   O     0.43143   0.31617   0.62577   0.00000  Uiso   1.00
O190   O     0.48546   0.35182   0.59973   0.00000  Uiso   1.00
N191   N     0.30779   0.44916   0.39766   0.00000  Uiso   1.00
O192   O     0.33267   0.46280   0.37054   0.00000  Uiso   1.00
O193   O     0.30420   0.40885   0.40340   0.00000  Uiso   1.00
N194   N     0.17470   0.01653   0.60225   0.00000  Uiso   1.00
O195   O     0.16997   0.04304   0.63064   0.00000  Uiso   1.00
O196   O     0.14404   0.49113   0.59346   0.00000  Uiso   1.00
N197   N     0.20215   0.06004   0.89599   0.00000  Uiso   1.00
O198   O     0.21824   0.08618   0.87110   0.00000  Uiso   1.00
O199   O     0.16170   0.05364   0.89600   0.00000  Uiso   1.00
N200   N     0.29801   0.44055   0.10397   0.00000  Uiso   1.00
O201   O     0.28154   0.41378   0.12806   0.00000  Uiso   1.00
O202   O     0.33831   0.44771   0.10530   0.00000  Uiso   1.00
N203   N     0.42463   0.26570   0.89706   0.00000  Uiso   1.00
O204   O     0.41985   0.29308   0.86939   0.00000  Uiso   1.00
O205   O     0.39459   0.23904   0.90420   0.00000  Uiso   1.00
N206   N     0.05792   0.19890   0.10293   0.00000  Uiso   1.00
O207   O     0.08309   0.21311   0.12968   0.00000  Uiso   1.00
O208   O     0.05361   0.15847   0.09847   0.00000  Uiso   1.00
N209   N     0.28605   0.43256   0.89731   0.00000  Uiso   1.00
O210   O     0.31833   0.43361   0.87420   0.00000  Uiso   1.00
O211   O     0.26413   0.39815   0.90016   0.00000  Uiso   1.00
N212   N     0.21366   0.06757   0.10333   0.00000  Uiso   1.00
O213   O     0.18049   0.06592   0.12531   0.00000  Uiso   1.00
O214   O     0.23689   0.10126   0.10347   0.00000  Uiso   1.00
N215   N     0.07537   0.23381   0.89774   0.00000  Uiso   1.00
O216   O     0.08019   0.20736   0.86933   0.00000  Uiso   1.00
O217   O     0.10591   0.25934   0.90654   0.00000  Uiso   1.00
N218   N     0.44202   0.30063   0.10233   0.00000  Uiso   1.00
O219   O     0.41725   0.28693   0.12950   0.00000  Uiso   1.00
O220   O     0.44537   0.34093   0.09648   0.00000  Uiso   1.00
C221   C     0.08471   0.16531   0.46243   0.00000  Uiso   1.00
H222   H     0.07390   0.13622   0.44774   0.00000  Uiso   1.00
H223   H     0.10216   0.18599   0.44220   0.00000  Uiso   1.00
H224   H     0.10824   0.15618   0.48472   0.00000  Uiso   1.00
C225   C     0.41251   0.33061   0.53759   0.00000  Uiso   1.00
H226   H     0.39696   0.30978   0.55896   0.00000  Uiso   1.00
H227   H     0.42156   0.36099   0.55104   0.00000  Uiso   1.00
H228   H     0.38808   0.33685   0.51528   0.00000  Uiso   1.00
C229   C     0.36210   0.45986   0.46081   0.00000  Uiso   1.00
H230   H     0.38846   0.46540   0.48135   0.00000  Uiso   1.00
H231   H     0.36491   0.42721   0.44973   0.00000  Uiso   1.00
H232   H     0.36699   0.48307   0.43727   0.00000  Uiso   1.00
C233   C     0.15454   0.07103   0.54033   0.00000  Uiso   1.00
H234   H     0.12522   0.05558   0.55031   0.00000  Uiso   1.00
H235   H     0.17078   0.08669   0.56487   0.00000  Uiso   1.00
H236   H     0.14582   0.09695   0.52031   0.00000  Uiso   1.00
C237   C     0.44682   0.35723   0.46289   0.00000  Uiso   1.00
H238   H     0.47182   0.36774   0.44273   0.00000  Uiso   1.00
H239   H     0.41571   0.35620   0.44833   0.00000  Uiso   1.00
H240   H     0.44536   0.38211   0.48544   0.00000  Uiso   1.00
C241   C     0.05004   0.14082   0.53759   0.00000  Uiso   1.00
H242   H     0.08138   0.14076   0.55177   0.00000  Uiso   1.00
H243   H     0.02501   0.13158   0.55825   0.00000  Uiso   1.00
H244   H     0.05005   0.11567   0.51525   0.00000  Uiso   1.00
C245   C     0.13877   0.04366   0.46073   0.00000  Uiso   1.00
H246   H     0.13715   0.07616   0.44912   0.00000  Uiso   1.00
H247   H     0.13280   0.02014   0.43764   0.00000  Uiso   1.00
H248   H     0.11232   0.03961   0.48135   0.00000  Uiso   1.00
C249   C     0.34726   0.43173   0.54026   0.00000  Uiso   1.00
H250   H     0.37576   0.44802   0.55118   0.00000  Uiso   1.00
H251   H     0.33111   0.41475   0.56403   0.00000  Uiso   1.00
H252   H     0.35741   0.40679   0.51983   0.00000  Uiso   1.00
C253   C     0.33708   0.41892   0.96242   0.00000  Uiso   1.00
H254   H     0.32785   0.38859   0.94896   0.00000  Uiso   1.00
H255   H     0.35277   0.43966   0.94106   0.00000  Uiso   1.00
H256   H     0.36146   0.41252   0.98474   0.00000  Uiso   1.00
C257   C     0.16572   0.08515   0.03756   0.00000  Uiso   1.00
H258   H     0.14812   0.06457   0.05776   0.00000  Uiso   1.00
H259   H     0.17672   0.11416   0.05228   0.00000  Uiso   1.00
H260   H     0.14227   0.09446   0.01527   0.00000  Uiso   1.00
C261   C     0.09580   0.17942   0.95967   0.00000  Uiso   1.00
H262   H     0.10465   0.15354   0.97969   0.00000  Uiso   1.00
H263   H     0.07964   0.16369   0.93512   0.00000  Uiso   1.00
H264   H     0.12504   0.19502   0.94970   0.00000  Uiso   1.00
C265   C     0.38770   0.28954   0.03922   0.00000  Uiso   1.00
H266   H     0.36137   0.28377   0.01870   0.00000  Uiso   1.00
H267   H     0.38297   0.26635   0.06280   0.00000  Uiso   1.00
H268   H     0.38468   0.32219   0.05024   0.00000  Uiso   1.00
C269   C     0.20054   0.10942   0.96240   0.00000  Uiso   1.00
H270   H     0.22558   0.11848   0.94169   0.00000  Uiso   1.00
H271   H     0.16917   0.10969   0.94826   0.00000  Uiso   1.00
H272   H     0.20074   0.13458   0.98473   0.00000  Uiso   1.00
C273   C     0.30260   0.39251   0.03712   0.00000  Uiso   1.00
H274   H     0.33375   0.39332   0.05163   0.00000  Uiso   1.00
H275   H     0.27758   0.38218   0.05734   0.00000  Uiso   1.00
H276   H     0.30383   0.36761   0.01458   0.00000  Uiso   1.00
C277   C     0.40233   0.31771   0.95975   0.00000  Uiso   1.00
H278   H     0.41838   0.33482   0.93600   0.00000  Uiso   1.00
H279   H     0.37395   0.30123   0.94880   0.00000  Uiso   1.00
H280   H     0.39198   0.34256   0.98018   0.00000  Uiso   1.00
C281   C     0.11141   0.20683   0.03928   0.00000  Uiso   1.00
H282   H     0.11726   0.23035   0.06240   0.00000  Uiso   1.00
H283   H     0.11320   0.17433   0.05086   0.00000  Uiso   1.00
H284   H     0.13784   0.21104   0.01868   0.00000  Uiso   1.00
Zn285  Zn    0.70053  -0.00000   0.21730   0.00000  Uiso   1.00
Zn286  Zn    0.79948  -0.00000   0.78270   0.00000  Uiso   1.00
Zn287  Zn    0.50000   0.20052   0.21730   0.00000  Uiso   1.00
Zn288  Zn    0.50000   0.29948   0.78270   0.00000  Uiso   1.00
Zn289  Zn    0.79948  -0.00000   0.21730   0.00000  Uiso   1.00
Zn290  Zn    0.70053  -0.00000   0.78270   0.00000  Uiso   1.00
Zn291  Zn    0.50000   0.29948   0.21730   0.00000  Uiso   1.00
Zn292  Zn    0.50000   0.20053   0.78270   0.00000  Uiso   1.00
Zn293  Zn    0.95053   0.25000   0.71730   0.00000  Uiso   1.00
Zn294  Zn    0.54948   0.25000   0.28270   0.00000  Uiso   1.00
Zn295  Zn    0.75000   0.45052   0.71730   0.00000  Uiso   1.00
Zn296  Zn    0.75000   0.04947   0.28270   0.00000  Uiso   1.00
Zn297  Zn    0.54948   0.25000   0.71730   0.00000  Uiso   1.00
Zn298  Zn    0.95053   0.25000   0.28270   0.00000  Uiso   1.00
Zn299  Zn    0.75000   0.04947   0.71730   0.00000  Uiso   1.00
Zn300  Zn    0.75000   0.45052   0.28270   0.00000  Uiso   1.00
O301   O     0.75000  -0.00000   0.25000   0.00000  Uiso   1.00
O302   O     0.75000  -0.00000   0.75000   0.00000  Uiso   1.00
O303   O     0.50000   0.25000   0.25000   0.00000  Uiso   1.00
O304   O     0.50000   0.25000   0.75000   0.00000  Uiso   1.00
O305   O     0.75000   0.46538   0.33749   0.00000  Uiso   1.00
O306   O     0.75000   0.03461   0.66251   0.00000  Uiso   1.00
O307   O     0.53462   0.25000   0.33749   0.00000  Uiso   1.00
O308   O     0.96539   0.25000   0.66251   0.00000  Uiso   1.00
O309   O     0.75000   0.03461   0.33749   0.00000  Uiso   1.00
O310   O     0.75000   0.46538   0.66251   0.00000  Uiso   1.00
O311   O     0.96539   0.25000   0.33749   0.00000  Uiso   1.00
O312   O     0.53462   0.25000   0.66251   0.00000  Uiso   1.00
O313   O     0.50000   0.21539   0.83749   0.00000  Uiso   1.00
O314   O     0.50000   0.28462   0.16251   0.00000  Uiso   1.00
O315   O     0.78462  -0.00000   0.83749   0.00000  Uiso   1.00
O316   O     0.71539  -0.00000   0.16251   0.00000  Uiso   1.00
O317   O     0.50000   0.28462   0.83749   0.00000  Uiso   1.00
O318   O     0.50000   0.21539   0.16251   0.00000  Uiso   1.00
O319   O     0.71539  -0.00000   0.83749   0.00000  Uiso   1.00
O320   O     0.78462  -0.00000   0.16251   0.00000  Uiso   1.00
O321   O     0.70127   0.08332   0.27298   0.00000  Uiso   1.00
O322   O     0.79874   0.41668   0.72702   0.00000  Uiso   1.00
O323   O     0.91668   0.20126   0.27298   0.00000  Uiso   1.00
O324   O     0.58332   0.29874   0.72702   0.00000  Uiso   1.00
O325   O     0.79874   0.41668   0.27298   0.00000  Uiso   1.00
O326   O     0.70127   0.08332   0.72702   0.00000  Uiso   1.00
O327   O     0.58332   0.29874   0.27298   0.00000  Uiso   1.00
O328   O     0.91668   0.20126   0.72702   0.00000  Uiso   1.00
O329   O     0.70127   0.41668   0.72702   0.00000  Uiso   1.00
O330   O     0.79874   0.08332   0.27298   0.00000  Uiso   1.00
O331   O     0.91668   0.29873   0.72702   0.00000  Uiso   1.00
O332   O     0.58332   0.20127   0.27298   0.00000  Uiso   1.00
O333   O     0.79874   0.08332   0.72702   0.00000  Uiso   1.00
O334   O     0.70127   0.41668   0.27298   0.00000  Uiso   1.00
O335   O     0.58332   0.20127   0.72702   0.00000  Uiso   1.00
O336   O     0.91668   0.29873   0.27298   0.00000  Uiso   1.00
O337   O     0.95127   0.33332   0.77298   0.00000  Uiso   1.00
O338   O     0.54874   0.16668   0.22702   0.00000  Uiso   1.00
O339   O     0.66668   0.45127   0.77298   0.00000  Uiso   1.00
O340   O     0.83332   0.04873   0.22702   0.00000  Uiso   1.00
O341   O     0.54874   0.16668   0.77298   0.00000  Uiso   1.00
O342   O     0.95127   0.33332   0.22702   0.00000  Uiso   1.00
O343   O     0.83332   0.04873   0.77298   0.00000  Uiso   1.00
O344   O     0.66668   0.45127   0.22702   0.00000  Uiso   1.00
O345   O     0.95127   0.16668   0.22702   0.00000  Uiso   1.00
O346   O     0.54874   0.33332   0.77298   0.00000  Uiso   1.00
O347   O     0.66668   0.04873   0.22702   0.00000  Uiso   1.00
O348   O     0.83332   0.45126   0.77298   0.00000  Uiso   1.00
O349   O     0.54874   0.33332   0.22702   0.00000  Uiso   1.00
O350   O     0.95127   0.16668   0.77298   0.00000  Uiso   1.00
O351   O     0.83332   0.45126   0.22702   0.00000  Uiso   1.00
O352   O     0.66668   0.04873   0.77298   0.00000  Uiso   1.00
C353   C     0.74994   0.00002   0.35593   0.00000  Uiso   1.00
C354   C     0.74994   0.00001   0.64418   0.00000  Uiso   1.00
C355   C     0.50013   0.24971   0.35587   0.00000  Uiso   1.00
C356   C     0.99986   0.25021   0.64413   0.00000  Uiso   1.00
C357   C     0.50006   0.24999   0.85582   0.00000  Uiso   1.00
C358   C     0.50006   0.24998   0.14407   0.00000  Uiso   1.00
C359   C     0.75014   0.49979   0.85587   0.00000  Uiso   1.00
C360   C     0.74987   0.00029   0.14413   0.00000  Uiso   1.00
C361   C     0.66998   0.08001   0.24999   0.00000  Uiso   1.00
C362   C     0.83002   0.41999   0.75001   0.00000  Uiso   1.00
C363   C     0.91999   0.16998   0.24999   0.00000  Uiso   1.00
C364   C     0.58001   0.33002   0.75001   0.00000  Uiso   1.00
C365   C     0.83000   0.41999   0.25001   0.00000  Uiso   1.00
C366   C     0.67000   0.08001   0.75000   0.00000  Uiso   1.00
C367   C     0.58003   0.33001   0.25001   0.00000  Uiso   1.00
C368   C     0.91996   0.16999   0.74999   0.00000  Uiso   1.00
C369   C     0.66999   0.41998   0.74999   0.00000  Uiso   1.00
C370   C     0.83001   0.08002   0.25001   0.00000  Uiso   1.00
C371   C     0.91998   0.33001   0.74999   0.00000  Uiso   1.00
C372   C     0.58002   0.16999   0.25001   0.00000  Uiso   1.00
C373   C     0.83004   0.08001   0.75001   0.00000  Uiso   1.00
C374   C     0.66997   0.41999   0.24999   0.00000  Uiso   1.00
C375   C     0.58000   0.16999   0.75001   0.00000  Uiso   1.00
C376   C     0.92000   0.33001   0.24999   0.00000  Uiso   1.00
C377   C     0.63832   0.38834   0.24998   0.00000  Uiso   1.00
C378   C     0.86168   0.11166   0.75002   0.00000  Uiso   1.00
C379   C     0.61167   0.13835   0.25001   0.00000  Uiso   1.00
C380   C     0.88833   0.36165   0.74999   0.00000  Uiso   1.00
C381   C     0.86166   0.11168   0.25001   0.00000  Uiso   1.00
C382   C     0.63834   0.38832   0.74999   0.00000  Uiso   1.00
C383   C     0.88835   0.36167   0.24999   0.00000  Uiso   1.00
C384   C     0.61165   0.13833   0.75001   0.00000  Uiso   1.00
C385   C     0.63835   0.11167   0.74999   0.00000  Uiso   1.00
C386   C     0.86165   0.38833   0.25001   0.00000  Uiso   1.00
C387   C     0.61166   0.36168   0.75001   0.00000  Uiso   1.00
C388   C     0.88834   0.13832   0.24999   0.00000  Uiso   1.00
C389   C     0.86167   0.38835   0.75001   0.00000  Uiso   1.00
C390   C     0.63833   0.11165   0.24999   0.00000  Uiso   1.00
C391   C     0.88832   0.13834   0.74998   0.00000  Uiso   1.00
C392   C     0.61168   0.36166   0.25002   0.00000  Uiso   1.00
C393   C     0.97857   0.28175   0.41801   0.00000  Uiso   1.00
C394   C     0.52100   0.21746   0.58209   0.00000  Uiso   1.00
C395   C     0.71892   0.02293   0.41832   0.00000  Uiso   1.00
C396   C     0.78618   0.48725   0.58210   0.00000  Uiso   1.00
C397   C     0.52294   0.21887   0.41810   0.00000  Uiso   1.00
C398   C     0.97677   0.28040   0.58179   0.00000  Uiso   1.00
C399   C     0.78116   0.47784   0.41853   0.00000  Uiso   1.00
C400   C     0.71404   0.01344   0.58190   0.00000  Uiso   1.00
C401   C     0.72912   0.03261   0.91791   0.00000  Uiso   1.00
C402   C     0.77131   0.46817   0.08199   0.00000  Uiso   1.00
C403   C     0.96375   0.26257   0.91790   0.00000  Uiso   1.00
C404   C     0.53116   0.22718   0.08168   0.00000  Uiso   1.00
C405   C     0.77311   0.46951   0.91820   0.00000  Uiso   1.00
C406   C     0.72718   0.03122   0.08191   0.00000  Uiso   1.00
C407   C     0.53602   0.23673   0.91810   0.00000  Uiso   1.00
C408   C     0.96875   0.27202   0.08147   0.00000  Uiso   1.00
C409   C     0.50091   0.25043   0.39820   0.00000  Uiso   1.00
C410   C     0.99899   0.24911   0.60183   0.00000  Uiso   1.00
C411   C     0.74994   0.00016   0.39834   0.00000  Uiso   1.00
C412   C     0.75000   0.00009   0.60199   0.00000  Uiso   1.00
C413   C     0.75101   0.00088   0.89817   0.00000  Uiso   1.00
C414   C     0.74909   0.49958   0.10181   0.00000  Uiso   1.00
C415   C     0.50000   0.24990   0.89801   0.00000  Uiso   1.00
C416   C     0.50006   0.24984   0.10166   0.00000  Uiso   1.00
C417   C     0.52422   0.21916   0.45905   0.00000  Uiso   1.00
C418   C     0.97491   0.27938   0.54092   0.00000  Uiso   1.00
C419   C     0.78417   0.48178   0.45928   0.00000  Uiso   1.00
C420   C     0.71572   0.01835   0.54122   0.00000  Uiso   1.00
C421   C     0.97893   0.28264   0.45901   0.00000  Uiso   1.00
C422   C     0.52016   0.21612   0.54107   0.00000  Uiso   1.00
C423   C     0.71621   0.01974   0.45917   0.00000  Uiso   1.00
C424   C     0.78488   0.48307   0.54131   0.00000  Uiso   1.00
C425   C     0.77496   0.47050   0.95908   0.00000  Uiso   1.00
C426   C     0.72591   0.03095   0.04095   0.00000  Uiso   1.00
C427   C     0.53436   0.23181   0.95878   0.00000  Uiso   1.00
C428   C     0.96574   0.26804   0.04073   0.00000  Uiso   1.00
C429   C     0.72998   0.03396   0.95893   0.00000  Uiso   1.00
C430   C     0.77092   0.46727   0.04099   0.00000  Uiso   1.00
C431   C     0.96502   0.26674   0.95869   0.00000  Uiso   1.00
C432   C     0.53386   0.23039   0.04083   0.00000  Uiso   1.00
C433   C     0.50027   0.24990   0.47948   0.00000  Uiso   1.00
C434   C     0.99887   0.24874   0.52052   0.00000  Uiso   1.00
C435   C     0.75022   0.00077   0.47973   0.00000  Uiso   1.00
C436   C     0.75028   0.00074   0.52072   0.00000  Uiso   1.00
C437   C     0.75114   0.00125   0.97948   0.00000  Uiso   1.00
C438   C     0.74972   0.00011   0.02052   0.00000  Uiso   1.00
C439   C     0.99971   0.24924   0.97928   0.00000  Uiso   1.00
C440   C     0.99977   0.24921   0.02027   0.00000  Uiso   1.00
C441   C     0.54785   0.18886   0.48019   0.00000  Uiso   1.00
C442   C     0.95052   0.30897   0.51990   0.00000  Uiso   1.00
C443   C     0.81970   0.46663   0.48015   0.00000  Uiso   1.00
C444   C     0.68338   0.03949   0.52056   0.00000  Uiso   1.00
C445   C     0.95786   0.31468   0.48026   0.00000  Uiso   1.00
C446   C     0.54048   0.18359   0.51994   0.00000  Uiso   1.00
C447   C     0.68104   0.03563   0.48006   0.00000  Uiso   1.00
C448   C     0.81759   0.46263   0.52063   0.00000  Uiso   1.00
C449   C     0.79919   0.44078   0.98010   0.00000  Uiso   1.00
C450   C     0.70244   0.06138   0.01980   0.00000  Uiso   1.00
C451   C     0.56680   0.21081   0.97944   0.00000  Uiso   1.00
C452   C     0.93012   0.28301   0.01986   0.00000  Uiso   1.00
C453   C     0.70984   0.06660   0.98005   0.00000  Uiso   1.00
C454   C     0.79182   0.43512   0.01975   0.00000  Uiso   1.00
C455   C     0.93220   0.28700   0.97938   0.00000  Uiso   1.00
C456   C     0.56911   0.21467   0.01994   0.00000  Uiso   1.00
N457   N     0.95181   0.30930   0.39602   0.00000  Uiso   1.00
O458   O     0.96823   0.33619   0.37200   0.00000  Uiso   1.00
O459   O     0.91155   0.30193   0.39455   0.00000  Uiso   1.00
N460   N     0.54804   0.19011   0.60402   0.00000  Uiso   1.00
O461   O     0.53201   0.16386   0.62884   0.00000  Uiso   1.00
O462   O     0.58846   0.19673   0.60413   0.00000  Uiso   1.00
N463   N     0.69226   0.05131   0.39707   0.00000  Uiso   1.00
O464   O     0.66700   0.03718   0.37036   0.00000  Uiso   1.00
O465   O     0.69677   0.09172   0.40147   0.00000  Uiso   1.00
N466   N     0.82530   0.48395   0.60292   0.00000  Uiso   1.00
O467   O     0.82999   0.45656   0.63059   0.00000  Uiso   1.00
O468   O     0.85549   0.01042   0.59571   0.00000  Uiso   1.00
N469   N     0.53655   0.18254   0.39670   0.00000  Uiso   1.00
O470   O     0.56971   0.18427   0.37470   0.00000  Uiso   1.00
O471   O     0.51350   0.14874   0.39668   0.00000  Uiso   1.00
N472   N     0.96371   0.31732   0.60267   0.00000  Uiso   1.00
O473   O     0.93143   0.31617   0.62577   0.00000  Uiso   1.00
O474   O     0.98546   0.35182   0.59973   0.00000  Uiso   1.00
N475   N     0.80779   0.44916   0.39766   0.00000  Uiso   1.00
O476   O     0.83267   0.46280   0.37054   0.00000  Uiso   1.00
O477   O     0.80420   0.40885   0.40340   0.00000  Uiso   1.00
N478   N     0.67470   0.01653   0.60225   0.00000  Uiso   1.00
O479   O     0.66997   0.04304   0.63064   0.00000  Uiso   1.00
O480   O     0.64404   0.49113   0.59346   0.00000  Uiso   1.00
N481   N     0.70215   0.06004   0.89599   0.00000  Uiso   1.00
O482   O     0.71824   0.08618   0.87110   0.00000  Uiso   1.00
O483   O     0.66170   0.05364   0.89600   0.00000  Uiso   1.00
N484   N     0.79801   0.44055   0.10397   0.00000  Uiso   1.00
O485   O     0.78154   0.41378   0.12806   0.00000  Uiso   1.00
O486   O     0.83831   0.44771   0.10530   0.00000  Uiso   1.00
N487   N     0.92463   0.26570   0.89706   0.00000  Uiso   1.00
O488   O     0.91985   0.29308   0.86939   0.00000  Uiso   1.00
O489   O     0.89459   0.23904   0.90420   0.00000  Uiso   1.00
N490   N     0.55792   0.19890   0.10293   0.00000  Uiso   1.00
O491   O     0.58309   0.21311   0.12968   0.00000  Uiso   1.00
O492   O     0.55361   0.15847   0.09847   0.00000  Uiso   1.00
N493   N     0.78605   0.43256   0.89731   0.00000  Uiso   1.00
O494   O     0.81833   0.43361   0.87420   0.00000  Uiso   1.00
O495   O     0.76413   0.39815   0.90016   0.00000  Uiso   1.00
N496   N     0.71366   0.06757   0.10333   0.00000  Uiso   1.00
O497   O     0.68049   0.06592   0.12531   0.00000  Uiso   1.00
O498   O     0.73689   0.10126   0.10347   0.00000  Uiso   1.00
N499   N     0.57537   0.23381   0.89774   0.00000  Uiso   1.00
O500   O     0.58019   0.20736   0.86933   0.00000  Uiso   1.00
O501   O     0.60591   0.25934   0.90654   0.00000  Uiso   1.00
N502   N     0.94202   0.30063   0.10233   0.00000  Uiso   1.00
O503   O     0.91725   0.28693   0.12950   0.00000  Uiso   1.00
O504   O     0.94537   0.34093   0.09648   0.00000  Uiso   1.00
C505   C     0.58471   0.16531   0.46243   0.00000  Uiso   1.00
H506   H     0.57390   0.13622   0.44774   0.00000  Uiso   1.00
H507   H     0.60216   0.18599   0.44220   0.00000  Uiso   1.00
H508   H     0.60824   0.15618   0.48472   0.00000  Uiso   1.00
C509   C     0.91251   0.33061   0.53759   0.00000  Uiso   1.00
H510   H     0.89696   0.30978   0.55896   0.00000  Uiso   1.00
H511   H     0.92156   0.36099   0.55104   0.00000  Uiso   1.00
H512   H     0.88808   0.33685   0.51528   0.00000  Uiso   1.00
C513   C     0.86210   0.45986   0.46081   0.00000  Uiso   1.00
H514   H     0.88846   0.46540   0.48135   0.00000  Uiso   1.00
H515   H     0.86491   0.42721   0.44973   0.00000  Uiso   1.00
H516   H     0.86699   0.48307   0.43727   0.00000  Uiso   1.00
C517   C     0.65454   0.07103   0.54033   0.00000  Uiso   1.00
H518   H     0.62522   0.05558   0.55031   0.00000  Uiso   1.00
H519   H     0.67078   0.08669   0.56487   0.00000  Uiso   1.00
H520   H     0.64582   0.09695   0.52031   0.00000  Uiso   1.00
C521   C     0.94682   0.35723   0.46289   0.00000  Uiso   1.00
H522   H     0.97182   0.36774   0.44273   0.00000  Uiso   1.00
H523   H     0.91571   0.35620   0.44833   0.00000  Uiso   1.00
H524   H     0.94536   0.38211   0.48544   0.00000  Uiso   1.00
C525   C     0.55004   0.14082   0.53759   0.00000  Uiso   1.00
H526   H     0.58138   0.14076   0.55177   0.00000  Uiso   1.00
H527   H     0.52501   0.13158   0.55825   0.00000  Uiso   1.00
H528   H     0.55005   0.11567   0.51525   0.00000  Uiso   1.00
C529   C     0.63877   0.04366   0.46073   0.00000  Uiso   1.00
H530   H     0.63715   0.07616   0.44912   0.00000  Uiso   1.00
H531   H     0.63280   0.02014   0.43764   0.00000  Uiso   1.00
H532   H     0.61232   0.03961   0.48135   0.00000  Uiso   1.00
C533   C     0.84726   0.43173   0.54026   0.00000  Uiso   1.00
H534   H     0.87576   0.44802   0.55118   0.00000  Uiso   1.00
H535   H     0.83111   0.41475   0.56403   0.00000  Uiso   1.00
H536   H     0.85741   0.40679   0.51983   0.00000  Uiso   1.00
C537   C     0.83708   0.41892   0.96242   0.00000  Uiso   1.00
H538   H     0.82785   0.38859   0.94896   0.00000  Uiso   1.00
H539   H     0.85277   0.43966   0.94106   0.00000  Uiso   1.00
H540   H     0.86146   0.41252   0.98474   0.00000  Uiso   1.00
C541   C     0.66572   0.08515   0.03756   0.00000  Uiso   1.00
H542   H     0.64812   0.06457   0.05776   0.00000  Uiso   1.00
H543   H     0.67672   0.11416   0.05228   0.00000  Uiso   1.00
H544   H     0.64227   0.09446   0.01527   0.00000  Uiso   1.00
C545   C     0.59580   0.17942   0.95967   0.00000  Uiso   1.00
H546   H     0.60465   0.15354   0.97969   0.00000  Uiso   1.00
H547   H     0.57964   0.16369   0.93512   0.00000  Uiso   1.00
H548   H     0.62504   0.19502   0.94970   0.00000  Uiso   1.00
C549   C     0.88770   0.28954   0.03922   0.00000  Uiso   1.00
H550   H     0.86137   0.28377   0.01870   0.00000  Uiso   1.00
H551   H     0.88297   0.26635   0.06280   0.00000  Uiso   1.00
H552   H     0.88468   0.32219   0.05024   0.00000  Uiso   1.00
C553   C     0.70054   0.10942   0.96240   0.00000  Uiso   1.00
H554   H     0.72558   0.11848   0.94169   0.00000  Uiso   1.00
H555   H     0.66917   0.10969   0.94826   0.00000  Uiso   1.00
H556   H     0.70074   0.13458   0.98473   0.00000  Uiso   1.00
C557   C     0.80260   0.39251   0.03712   0.00000  Uiso   1.00
H558   H     0.83375   0.39332   0.05163   0.00000  Uiso   1.00
H559   H     0.77758   0.38218   0.05734   0.00000  Uiso   1.00
H560   H     0.80383   0.36761   0.01458   0.00000  Uiso   1.00
C561   C     0.90233   0.31771   0.95975   0.00000  Uiso   1.00
H562   H     0.91838   0.33482   0.93600   0.00000  Uiso   1.00
H563   H     0.87395   0.30123   0.94880   0.00000  Uiso   1.00
H564   H     0.89198   0.34256   0.98018   0.00000  Uiso   1.00
C565   C     0.61141   0.20683   0.03928   0.00000  Uiso   1.00
H566   H     0.61726   0.23035   0.06240   0.00000  Uiso   1.00
H567   H     0.61320   0.17433   0.05086   0.00000  Uiso   1.00
H568   H     0.63784   0.21104   0.01868   0.00000  Uiso   1.00
Zn569  Zn    0.20053   0.50000   0.21730   0.00000  Uiso   1.00
Zn570  Zn    0.29948   0.50000   0.78270   0.00000  Uiso   1.00
Zn571  Zn    0.00000   0.70052   0.21730   0.00000  Uiso   1.00
Zn572  Zn    0.00000   0.79948   0.78270   0.00000  Uiso   1.00
Zn573  Zn    0.29948   0.50000   0.21730   0.00000  Uiso   1.00
Zn574  Zn    0.20053   0.50000   0.78270   0.00000  Uiso   1.00
Zn575  Zn    0.00000   0.79948   0.21730   0.00000  Uiso   1.00
Zn576  Zn    0.00000   0.70053   0.78270   0.00000  Uiso   1.00
Zn577  Zn    0.45053   0.75000   0.71730   0.00000  Uiso   1.00
Zn578  Zn    0.04948   0.75000   0.28270   0.00000  Uiso   1.00
Zn579  Zn    0.25000   0.95052   0.71730   0.00000  Uiso   1.00
Zn580  Zn    0.25000   0.54947   0.28270   0.00000  Uiso   1.00
Zn581  Zn    0.04948   0.75000   0.71730   0.00000  Uiso   1.00
Zn582  Zn    0.45053   0.75000   0.28270   0.00000  Uiso   1.00
Zn583  Zn    0.25000   0.54947   0.71730   0.00000  Uiso   1.00
Zn584  Zn    0.25000   0.95052   0.28270   0.00000  Uiso   1.00
O585   O     0.25000   0.50000   0.25000   0.00000  Uiso   1.00
O586   O     0.25000   0.50000   0.75000   0.00000  Uiso   1.00
O587   O     0.00000   0.75000   0.25000   0.00000  Uiso   1.00
O588   O     0.00000   0.75000   0.75000   0.00000  Uiso   1.00
O589   O     0.25000   0.96538   0.33749   0.00000  Uiso   1.00
O590   O     0.25000   0.53461   0.66251   0.00000  Uiso   1.00
O591   O     0.03462   0.75000   0.33749   0.00000  Uiso   1.00
O592   O     0.46539   0.75000   0.66251   0.00000  Uiso   1.00
O593   O     0.25000   0.53461   0.33749   0.00000  Uiso   1.00
O594   O     0.25000   0.96538   0.66251   0.00000  Uiso   1.00
O595   O     0.46539   0.75000   0.33749   0.00000  Uiso   1.00
O596   O     0.03462   0.75000   0.66251   0.00000  Uiso   1.00
O597   O     0.00000   0.71539   0.83749   0.00000  Uiso   1.00
O598   O     0.00000   0.78462   0.16251   0.00000  Uiso   1.00
O599   O     0.28462   0.50000   0.83749   0.00000  Uiso   1.00
O600   O     0.21539   0.50000   0.16251   0.00000  Uiso   1.00
O601   O     0.00000   0.78462   0.83749   0.00000  Uiso   1.00
O602   O     0.00000   0.71539   0.16251   0.00000  Uiso   1.00
O603   O     0.21539   0.50000   0.83749   0.00000  Uiso   1.00
O604   O     0.28462   0.50000   0.16251   0.00000  Uiso   1.00
O605   O     0.20127   0.58332   0.27298   0.00000  Uiso   1.00
O606   O     0.29874   0.91668   0.72702   0.00000  Uiso   1.00
O607   O     0.41668   0.70126   0.27298   0.00000  Uiso   1.00
O608   O     0.08332   0.79874   0.72702   0.00000  Uiso   1.00
O609   O     0.29874   0.91668   0.27298   0.00000  Uiso   1.00
O610   O     0.20127   0.58332   0.72702   0.00000  Uiso   1.00
O611   O     0.08332   0.79874   0.27298   0.00000  Uiso   1.00
O612   O     0.41668   0.70126   0.72702   0.00000  Uiso   1.00
O613   O     0.20127   0.91668   0.72702   0.00000  Uiso   1.00
O614   O     0.29874   0.58332   0.27298   0.00000  Uiso   1.00
O615   O     0.41668   0.79873   0.72702   0.00000  Uiso   1.00
O616   O     0.08332   0.70127   0.27298   0.00000  Uiso   1.00
O617   O     0.29874   0.58332   0.72702   0.00000  Uiso   1.00
O618   O     0.20127   0.91668   0.27298   0.00000  Uiso   1.00
O619   O     0.08332   0.70127   0.72702   0.00000  Uiso   1.00
O620   O     0.41668   0.79873   0.27298   0.00000  Uiso   1.00
O621   O     0.45127   0.83332   0.77298   0.00000  Uiso   1.00
O622   O     0.04874   0.66668   0.22702   0.00000  Uiso   1.00
O623   O     0.16668   0.95127   0.77298   0.00000  Uiso   1.00
O624   O     0.33332   0.54873   0.22702   0.00000  Uiso   1.00
O625   O     0.04874   0.66668   0.77298   0.00000  Uiso   1.00
O626   O     0.45127   0.83332   0.22702   0.00000  Uiso   1.00
O627   O     0.33332   0.54873   0.77298   0.00000  Uiso   1.00
O628   O     0.16668   0.95127   0.22702   0.00000  Uiso   1.00
O629   O     0.45127   0.66668   0.22702   0.00000  Uiso   1.00
O630   O     0.04874   0.83332   0.77298   0.00000  Uiso   1.00
O631   O     0.16668   0.54873   0.22702   0.00000  Uiso   1.00
O632   O     0.33332   0.95126   0.77298   0.00000  Uiso   1.00
O633   O     0.04874   0.83332   0.22702   0.00000  Uiso   1.00
O634   O     0.45127   0.66668   0.77298   0.00000  Uiso   1.00
O635   O     0.33332   0.95126   0.22702   0.00000  Uiso   1.00
O636   O     0.16668   0.54873   0.77298   0.00000  Uiso   1.00
C637   C     0.24994   0.50002   0.35593   0.00000  Uiso   1.00
C638   C     0.24994   0.50001   0.64418   0.00000  Uiso   1.00
C639   C     0.00013   0.74971   0.35587   0.00000  Uiso   1.00
C640   C     0.49986   0.75021   0.64413   0.00000  Uiso   1.00
C641   C     0.00006   0.74999   0.85582   0.00000  Uiso   1.00
C642   C     0.00006   0.74998   0.14407   0.00000  Uiso   1.00
C643   C     0.25014   0.99979   0.85587   0.00000  Uiso   1.00
C644   C     0.24987   0.50029   0.14413   0.00000  Uiso   1.00
C645   C     0.16998   0.58001   0.24999   0.00000  Uiso   1.00
C646   C     0.33002   0.91999   0.75001   0.00000  Uiso   1.00
C647   C     0.41999   0.66998   0.24999   0.00000  Uiso   1.00
C648   C     0.08001   0.83002   0.75001   0.00000  Uiso   1.00
C649   C     0.33000   0.91999   0.25001   0.00000  Uiso   1.00
C650   C     0.17000   0.58001   0.75000   0.00000  Uiso   1.00
C651   C     0.08003   0.83001   0.25001   0.00000  Uiso   1.00
C652   C     0.41996   0.66999   0.74999   0.00000  Uiso   1.00
C653   C     0.16999   0.91998   0.74999   0.00000  Uiso   1.00
C654   C     0.33001   0.58002   0.25001   0.00000  Uiso   1.00
C655   C     0.41998   0.83001   0.74999   0.00000  Uiso   1.00
C656   C     0.08002   0.66999   0.25001   0.00000  Uiso   1.00
C657   C     0.33004   0.58001   0.75001   0.00000  Uiso   1.00
C658   C     0.16997   0.91999   0.24999   0.00000  Uiso   1.00
C659   C     0.08000   0.66999   0.75001   0.00000  Uiso   1.00
C660   C     0.42000   0.83001   0.24999   0.00000  Uiso   1.00
C661   C     0.13832   0.88834   0.24998   0.00000  Uiso   1.00
C662   C     0.36168   0.61166   0.75002   0.00000  Uiso   1.00
C663   C     0.11167   0.63835   0.25001   0.00000  Uiso   1.00
C664   C     0.38833   0.86165   0.74999   0.00000  Uiso   1.00
C665   C     0.36166   0.61168   0.25001   0.00000  Uiso   1.00
C666   C     0.13834   0.88832   0.74999   0.00000  Uiso   1.00
C667   C     0.38835   0.86167   0.24999   0.00000  Uiso   1.00
C668   C     0.11165   0.63833   0.75001   0.00000  Uiso   1.00
C669   C     0.13835   0.61167   0.74999   0.00000  Uiso   1.00
C670   C     0.36165   0.88833   0.25001   0.00000  Uiso   1.00
C671   C     0.11166   0.86168   0.75001   0.00000  Uiso   1.00
C672   C     0.38834   0.63832   0.24999   0.00000  Uiso   1.00
C673   C     0.36167   0.88835   0.75001   0.00000  Uiso   1.00
C674   C     0.13833   0.61165   0.24999   0.00000  Uiso   1.00
C675   C     0.38832   0.63834   0.74998   0.00000  Uiso   1.00
C676   C     0.11168   0.86166   0.25002   0.00000  Uiso   1.00
C677   C     0.47857   0.78175   0.41801   0.00000  Uiso   1.00
C678   C     0.02100   0.71746   0.58209   0.00000  Uiso   1.00
C679   C     0.21892   0.52293   0.41832   0.00000  Uiso   1.00
C680   C     0.28618   0.98725   0.58210   0.00000  Uiso   1.00
C681   C     0.02294   0.71887   0.41810   0.00000  Uiso   1.00
C682   C     0.47677   0.78040   0.58179   0.00000  Uiso   1.00
C683   C     0.28116   0.97784   0.41853   0.00000  Uiso   1.00
C684   C     0.21404   0.51344   0.58190   0.00000  Uiso   1.00
C685   C     0.22912   0.53261   0.91791   0.00000  Uiso   1.00
C686   C     0.27131   0.96817   0.08199   0.00000  Uiso   1.00
C687   C     0.46375   0.76257   0.91790   0.00000  Uiso   1.00
C688   C     0.03116   0.72718   0.08168   0.00000  Uiso   1.00
C689   C     0.27311   0.96951   0.91820   0.00000  Uiso   1.00
C690   C     0.22718   0.53122   0.08191   0.00000  Uiso   1.00
C691   C     0.03602   0.73673   0.91810   0.00000  Uiso   1.00
C692   C     0.46875   0.77202   0.08147   0.00000  Uiso   1.00
C693   C     0.00091   0.75043   0.39820   0.00000  Uiso   1.00
C694   C     0.49899   0.74911   0.60183   0.00000  Uiso   1.00
C695   C     0.24994   0.50016   0.39834   0.00000  Uiso   1.00
C696   C     0.25000   0.50009   0.60199   0.00000  Uiso   1.00
C697   C     0.25101   0.50088   0.89817   0.00000  Uiso   1.00
C698   C     0.24909   0.99958   0.10181   0.00000  Uiso   1.00
C699   C    -0.00000   0.74990   0.89801   0.00000  Uiso   1.00
C700   C     0.00006   0.74984   0.10166   0.00000  Uiso   1.00
C701   C     0.02422   0.71916   0.45905   0.00000  Uiso   1.00
C702   C     0.47491   0.77938   0.54092   0.00000  Uiso   1.00
C703   C     0.28417   0.98178   0.45928   0.00000  Uiso   1.00
C704   C     0.21572   0.51835   0.54122   0.00000  Uiso   1.00
C705   C     0.47893   0.78264   0.45901   0.00000  Uiso   1.00
C706   C     0.02016   0.71612   0.54107   0.00000  Uiso   1.00
C707   C     0.21621   0.51974   0.45917   0.00000  Uiso   1.00
C708   C     0.28488   0.98307   0.54131   0.00000  Uiso   1.00
C709   C     0.27496   0.97050   0.95908   0.00000  Uiso   1.00
C710   C     0.22591   0.53095   0.04095   0.00000  Uiso   1.00
C711   C     0.03436   0.73181   0.95878   0.00000  Uiso   1.00
C712   C     0.46574   0.76804   0.04073   0.00000  Uiso   1.00
C713   C     0.22998   0.53396   0.95893   0.00000  Uiso   1.00
C714   C     0.27092   0.96727   0.04099   0.00000  Uiso   1.00
C715   C     0.46502   0.76674   0.95869   0.00000  Uiso   1.00
C716   C     0.03386   0.73039   0.04083   0.00000  Uiso   1.00
C717   C     0.00027   0.74990   0.47948   0.00000  Uiso   1.00
C718   C     0.49887   0.74874   0.52052   0.00000  Uiso   1.00
C719   C     0.25022   0.50077   0.47973   0.00000  Uiso   1.00
C720   C     0.25028   0.50074   0.52072   0.00000  Uiso   1.00
C721   C     0.25114   0.50125   0.97948   0.00000  Uiso   1.00
C722   C     0.24972   0.50011   0.02052   0.00000  Uiso   1.00
C723   C     0.49971   0.74924   0.97928   0.00000  Uiso   1.00
C724   C     0.49977   0.74921   0.02027   0.00000  Uiso   1.00
C725   C     0.04785   0.68886   0.48019   0.00000  Uiso   1.00
C726   C     0.45052   0.80897   0.51990   0.00000  Uiso   1.00
C727   C     0.31970   0.96663   0.48015   0.00000  Uiso   1.00
C728   C     0.18338   0.53949   0.52056   0.00000  Uiso   1.00
C729   C     0.45786   0.81468   0.48026   0.00000  Uiso   1.00
C730   C     0.04048   0.68359   0.51994   0.00000  Uiso   1.00
C731   C     0.18104   0.53563   0.48006   0.00000  Uiso   1.00
C732   C     0.31759   0.96263   0.52063   0.00000  Uiso   1.00
C733   C     0.29919   0.94078   0.98010   0.00000  Uiso   1.00
C734   C     0.20244   0.56138   0.01980   0.00000  Uiso   1.00
C735   C     0.06680   0.71081   0.97944   0.00000  Uiso   1.00
C736   C     0.43012   0.78301   0.01986   0.00000  Uiso   1.00
C737   C     0.20984   0.56660   0.98005   0.00000  Uiso   1.00
C738   C     0.29182   0.93512   0.01975   0.00000  Uiso   1.00
C739   C     0.43220   0.78700   0.97938   0.00000  Uiso   1.00
C740   C     0.06911   0.71467   0.01994   0.00000  Uiso   1.00
N741   N     0.45181   0.80930   0.39602   0.00000  Uiso   1.00
O742   O     0.46823   0.83619   0.37200   0.00000  Uiso   1.00
O743   O     0.41155   0.80193   0.39455   0.00000  Uiso   1.00
N744   N     0.04804   0.69011   0.60402   0.00000  Uiso   1.00
O745   O     0.03201   0.66386   0.62884   0.00000  Uiso   1.00
O746   O     0.08846   0.69673   0.60413   0.00000  Uiso   1.00
N747   N     0.19226   0.55131   0.39707   0.00000  Uiso   1.00
O748   O     0.16700   0.53718   0.37036   0.00000  Uiso   1.00
O749   O     0.19677   0.59172   0.40147   0.00000  Uiso   1.00
N750   N     0.32530   0.98395   0.60292   0.00000  Uiso   1.00
O751   O     0.32999   0.95656   0.63059   0.00000  Uiso   1.00
O752   O     0.35549   0.51042   0.59571   0.00000  Uiso   1.00
N753   N     0.03655   0.68254   0.39670   0.00000  Uiso   1.00
O754   O     0.06971   0.68427   0.37470   0.00000  Uiso   1.00
O755   O     0.01350   0.64874   0.39668   0.00000  Uiso   1.00
N756   N     0.46371   0.81732   0.60267   0.00000  Uiso   1.00
O757   O     0.43143   0.81617   0.62577   0.00000  Uiso   1.00
O758   O     0.48546   0.85182   0.59973   0.00000  Uiso   1.00
N759   N     0.30779   0.94916   0.39766   0.00000  Uiso   1.00
O760   O     0.33267   0.96280   0.37054   0.00000  Uiso   1.00
O761   O     0.30420   0.90885   0.40340   0.00000  Uiso   1.00
N762   N     0.17470   0.51653   0.60225   0.00000  Uiso   1.00
O763   O     0.16997   0.54304   0.63064   0.00000  Uiso   1.00
O764   O     0.14404   0.99113   0.59346   0.00000  Uiso   1.00
N765   N     0.20215   0.56004   0.89599   0.00000  Uiso   1.00
O766   O     0.21824   0.58618   0.87110   0.00000  Uiso   1.00
O767   O     0.16170   0.55364   0.89600   0.00000  Uiso   1.00
N768   N     0.29801   0.94055   0.10397   0.00000  Uiso   1.00
O769   O     0.28154   0.91378   0.12806   0.00000  Uiso   1.00
O770   O     0.33831   0.94771   0.10530   0.00000  Uiso   1.00
N771   N     0.42463   0.76570   0.89706   0.00000  Uiso   1.00
O772   O     0.41985   0.79308   0.86939   0.00000  Uiso   1.00
O773   O     0.39459   0.73904   0.90420   0.00000  Uiso   1.00
N774   N     0.05792   0.69890   0.10293   0.00000  Uiso   1.00
O775   O     0.08309   0.71311   0.12968   0.00000  Uiso   1.00
O776   O     0.05361   0.65847   0.09847   0.00000  Uiso   1.00
N777   N     0.28605   0.93256   0.89731   0.00000  Uiso   1.00
O778   O     0.31833   0.93361   0.87420   0.00000  Uiso   1.00
O779   O     0.26413   0.89815   0.90016   0.00000  Uiso   1.00
N780   N     0.21366   0.56757   0.10333   0.00000  Uiso   1.00
O781   O     0.18049   0.56592   0.12531   0.00000  Uiso   1.00
O782   O     0.23689   0.60126   0.10347   0.00000  Uiso   1.00
N783   N     0.07537   0.73381   0.89774   0.00000  Uiso   1.00
O784   O     0.08019   0.70736   0.86933   0.00000  Uiso   1.00
O785   O     0.10591   0.75934   0.90654   0.00000  Uiso   1.00
N786   N     0.44202   0.80063   0.10233   0.00000  Uiso   1.00
O787   O     0.41725   0.78693   0.12950   0.00000  Uiso   1.00
O788   O     0.44537   0.84093   0.09648   0.00000  Uiso   1.00
C789   C     0.08471   0.66531   0.46243   0.00000  Uiso   1.00
H790   H     0.07390   0.63622   0.44774   0.00000  Uiso   1.00
H791   H     0.10216   0.68599   0.44220   0.00000  Uiso   1.00
H792   H     0.10824   0.65618   0.48472   0.00000  Uiso   1.00
C793   C     0.41251   0.83061   0.53759   0.00000  Uiso   1.00
H794   H     0.39696   0.80978   0.55896   0.00000  Uiso   1.00
H795   H     0.42156   0.86099   0.55104   0.00000  Uiso   1.00
H796   H     0.38808   0.83685   0.51528   0.00000  Uiso   1.00
C797   C     0.36210   0.95986   0.46081   0.00000  Uiso   1.00
H798   H     0.38846   0.96540   0.48135   0.00000  Uiso   1.00
H799   H     0.36491   0.92721   0.44973   0.00000  Uiso   1.00
H800   H     0.36699   0.98307   0.43727   0.00000  Uiso   1.00
C801   C     0.15454   0.57103   0.54033   0.00000  Uiso   1.00
H802   H     0.12522   0.55558   0.55031   0.00000  Uiso   1.00
H803   H     0.17078   0.58669   0.56487   0.00000  Uiso   1.00
H804   H     0.14582   0.59695   0.52031   0.00000  Uiso   1.00
C805   C     0.44682   0.85723   0.46289   0.00000  Uiso   1.00
H806   H     0.47182   0.86774   0.44273   0.00000  Uiso   1.00
H807   H     0.41571   0.85620   0.44833   0.00000  Uiso   1.00
H808   H     0.44536   0.88211   0.48544   0.00000  Uiso   1.00
C809   C     0.05004   0.64082   0.53759   0.00000  Uiso   1.00
H810   H     0.08138   0.64076   0.55177   0.00000  Uiso   1.00
H811   H     0.02501   0.63158   0.55825   0.00000  Uiso   1.00
H812   H     0.05005   0.61567   0.51525   0.00000  Uiso   1.00
C813   C     0.13877   0.54366   0.46073   0.00000  Uiso   1.00
H814   H     0.13715   0.57616   0.44912   0.00000  Uiso   1.00
H815   H     0.13280   0.52014   0.43764   0.00000  Uiso   1.00
H816   H     0.11232   0.53961   0.48135   0.00000  Uiso   1.00
C817   C     0.34726   0.93173   0.54026   0.00000  Uiso   1.00
H818   H     0.37576   0.94802   0.55118   0.00000  Uiso   1.00
H819   H     0.33111   0.91475   0.56403   0.00000  Uiso   1.00
H820   H     0.35741   0.90679   0.51983   0.00000  Uiso   1.00
C821   C     0.33708   0.91892   0.96242   0.00000  Uiso   1.00
H822   H     0.32785   0.88859   0.94896   0.00000  Uiso   1.00
H823   H     0.35277   0.93966   0.94106   0.00000  Uiso   1.00
H824   H     0.36146   0.91252   0.98474   0.00000  Uiso   1.00
C825   C     0.16572   0.58515   0.03756   0.00000  Uiso   1.00
H826   H     0.14812   0.56457   0.05776   0.00000  Uiso   1.00
H827   H     0.17672   0.61416   0.05228   0.00000  Uiso   1.00
H828   H     0.14227   0.59446   0.01527   0.00000  Uiso   1.00
C829   C     0.09580   0.67942   0.95967   0.00000  Uiso   1.00
H830   H     0.10465   0.65354   0.97969   0.00000  Uiso   1.00
H831   H     0.07964   0.66369   0.93512   0.00000  Uiso   1.00
H832   H     0.12504   0.69502   0.94970   0.00000  Uiso   1.00
C833   C     0.38770   0.78954   0.03922   0.00000  Uiso   1.00
H834   H     0.36137   0.78377   0.01870   0.00000  Uiso   1.00
H835   H     0.38297   0.76635   0.06280   0.00000  Uiso   1.00
H836   H     0.38468   0.82219   0.05024   0.00000  Uiso   1.00
C837   C     0.20054   0.60942   0.96240   0.00000  Uiso   1.00
H838   H     0.22558   0.61848   0.94169   0.00000  Uiso   1.00
H839   H     0.16917   0.60969   0.94826   0.00000  Uiso   1.00
H840   H     0.20074   0.63458   0.98473   0.00000  Uiso   1.00
C841   C     0.30260   0.89251   0.03712   0.00000  Uiso   1.00
H842   H     0.33375   0.89332   0.05163   0.00000  Uiso   1.00
H843   H     0.27758   0.88218   0.05734   0.00000  Uiso   1.00
H844   H     0.30383   0.86761   0.01458   0.00000  Uiso   1.00
C845   C     0.40233   0.81771   0.95975   0.00000  Uiso   1.00
H846   H     0.41838   0.83482   0.93600   0.00000  Uiso   1.00
H847   H     0.37395   0.80123   0.94880   0.00000  Uiso   1.00
H848   H     0.39198   0.84256   0.98018   0.00000  Uiso   1.00
C849   C     0.11141   0.70683   0.03928   0.00000  Uiso   1.00
H850   H     0.11726   0.73035   0.06240   0.00000  Uiso   1.00
H851   H     0.11320   0.67433   0.05086   0.00000  Uiso   1.00
H852   H     0.13784   0.71104   0.01868   0.00000  Uiso   1.00
Zn853  Zn    0.70053   0.50000   0.21730   0.00000  Uiso   1.00
Zn854  Zn    0.79948   0.50000   0.78270   0.00000  Uiso   1.00
Zn855  Zn    0.50000   0.70052   0.21730   0.00000  Uiso   1.00
Zn856  Zn    0.50000   0.79948   0.78270   0.00000  Uiso   1.00
Zn857  Zn    0.79948   0.50000   0.21730   0.00000  Uiso   1.00
Zn858  Zn    0.70053   0.50000   0.78270   0.00000  Uiso   1.00
Zn859  Zn    0.50000   0.79948   0.21730   0.00000  Uiso   1.00
Zn860  Zn    0.50000   0.70053   0.78270   0.00000  Uiso   1.00
Zn861  Zn    0.95053   0.75000   0.71730   0.00000  Uiso   1.00
Zn862  Zn    0.54948   0.75000   0.28270   0.00000  Uiso   1.00
Zn863  Zn    0.75000   0.95052   0.71730   0.00000  Uiso   1.00
Zn864  Zn    0.75000   0.54947   0.28270   0.00000  Uiso   1.00
Zn865  Zn    0.54948   0.75000   0.71730   0.00000  Uiso   1.00
Zn866  Zn    0.95053   0.75000   0.28270   0.00000  Uiso   1.00
Zn867  Zn    0.75000   0.54947   0.71730   0.00000  Uiso   1.00
Zn868  Zn    0.75000   0.95052   0.28270   0.00000  Uiso   1.00
O869   O     0.75000   0.50000   0.25000   0.00000  Uiso   1.00
O870   O     0.75000   0.50000   0.75000   0.00000  Uiso   1.00
O871   O     0.50000   0.75000   0.25000   0.00000  Uiso   1.00
O872   O     0.50000   0.75000   0.75000   0.00000  Uiso   1.00
O873   O     0.75000   0.96538   0.33749   0.00000  Uiso   1.00
O874   O     0.75000   0.53461   0.66251   0.00000  Uiso   1.00
O875   O     0.53462   0.75000   0.33749   0.00000  Uiso   1.00
O876   O     0.96539   0.75000   0.66251   0.00000  Uiso   1.00
O877   O     0.75000   0.53461   0.33749   0.00000  Uiso   1.00
O878   O     0.75000   0.96538   0.66251   0.00000  Uiso   1.00
O879   O     0.96539   0.75000   0.33749   0.00000  Uiso   1.00
O880   O     0.53462   0.75000   0.66251   0.00000  Uiso   1.00
O881   O     0.50000   0.71539   0.83749   0.00000  Uiso   1.00
O882   O     0.50000   0.78462   0.16251   0.00000  Uiso   1.00
O883   O     0.78462   0.50000   0.83749   0.00000  Uiso   1.00
O884   O     0.71539   0.50000   0.16251   0.00000  Uiso   1.00
O885   O     0.50000   0.78462   0.83749   0.00000  Uiso   1.00
O886   O     0.50000   0.71539   0.16251   0.00000  Uiso   1.00
O887   O     0.71539   0.50000   0.83749   0.00000  Uiso   1.00
O888   O     0.78462   0.50000   0.16251   0.00000  Uiso   1.00
O889   O     0.70127   0.58332   0.27298   0.00000  Uiso   1.00
O890   O     0.79874   0.91668   0.72702   0.00000  Uiso   1.00
O891   O     0.91668   0.70126   0.27298   0.00000  Uiso   1.00
O892   O     0.58332   0.79874   0.72702   0.00000  Uiso   1.00
O893   O     0.79874   0.91668   0.27298   0.00000  Uiso   1.00
O894   O     0.70127   0.58332   0.72702   0.00000  Uiso   1.00
O895   O     0.58332   0.79874   0.27298   0.00000  Uiso   1.00
O896   O     0.91668   0.70126   0.72702   0.00000  Uiso   1.00
O897   O     0.70127   0.91668   0.72702   0.00000  Uiso   1.00
O898   O     0.79874   0.58332   0.27298   0.00000  Uiso   1.00
O899   O     0.91668   0.79873   0.72702   0.00000  Uiso   1.00
O900   O     0.58332   0.70127   0.27298   0.00000  Uiso   1.00
O901   O     0.79874   0.58332   0.72702   0.00000  Uiso   1.00
O902   O     0.70127   0.91668   0.27298   0.00000  Uiso   1.00
O903   O     0.58332   0.70127   0.72702   0.00000  Uiso   1.00
O904   O     0.91668   0.79873   0.27298   0.00000  Uiso   1.00
O905   O     0.95127   0.83332   0.77298   0.00000  Uiso   1.00
O906   O     0.54874   0.66668   0.22702   0.00000  Uiso   1.00
O907   O     0.66668   0.95127   0.77298   0.00000  Uiso   1.00
O908   O     0.83332   0.54873   0.22702   0.00000  Uiso   1.00
O909   O     0.54874   0.66668   0.77298   0.00000  Uiso   1.00
O910   O     0.95127   0.83332   0.22702   0.00000  Uiso   1.00
O911   O     0.83332   0.54873   0.77298   0.00000  Uiso   1.00
O912   O     0.66668   0.95127   0.22702   0.00000  Uiso   1.00
O913   O     0.95127   0.66668   0.22702   0.00000  Uiso   1.00
O914   O     0.54874   0.83332   0.77298   0.00000  Uiso   1.00
O915   O     0.66668   0.54873   0.22702   0.00000  Uiso   1.00
O916   O     0.83332   0.95126   0.77298   0.00000  Uiso   1.00
O917   O     0.54874   0.83332   0.22702   0.00000  Uiso   1.00
O918   O     0.95127   0.66668   0.77298   0.00000  Uiso   1.00
O919   O     0.83332   0.95126   0.22702   0.00000  Uiso   1.00
O920   O     0.66668   0.54873   0.77298   0.00000  Uiso   1.00
C921   C     0.74994   0.50002   0.35593   0.00000  Uiso   1.00
C922   C     0.74994   0.50001   0.64418   0.00000  Uiso   1.00
C923   C     0.50013   0.74971   0.35587   0.00000  Uiso   1.00
C924   C     0.99986   0.75021   0.64413   0.00000  Uiso   1.00
C925   C     0.50006   0.74999   0.85582   0.00000  Uiso   1.00
C926   C     0.50006   0.74998   0.14407   0.00000  Uiso   1.00
C927   C     0.75014   0.99979   0.85587   0.00000  Uiso   1.00
C928   C     0.74987   0.50029   0.14413   0.00000  Uiso   1.00
C929   C     0.66998   0.58001   0.24999   0.00000  Uiso   1.00
C930   C     0.83002   0.91999   0.75001   0.00000  Uiso   1.00
C931   C     0.91999   0.66998   0.24999   0.00000  Uiso   1.00
C932   C     0.58001   0.83002   0.75001   0.00000  Uiso   1.00
C933   C     0.83000   0.91999   0.25001   0.00000  Uiso   1.00
C934   C     0.67000   0.58001   0.75000   0.00000  Uiso   1.00
C935   C     0.58003   0.83001   0.25001   0.00000  Uiso   1.00
C936   C     0.91996   0.66999   0.74999   0.00000  Uiso   1.00
C937   C     0.66999   0.91998   0.74999   0.00000  Uiso   1.00
C938   C     0.83001   0.58002   0.25001   0.00000  Uiso   1.00
C939   C     0.91998   0.83001   0.74999   0.00000  Uiso   1.00
C940   C     0.58002   0.66999   0.25001   0.00000  Uiso   1.00
C941   C     0.83004   0.58001   0.75001   0.00000  Uiso   1.00
C942   C     0.66997   0.91999   0.24999   0.00000  Uiso   1.00
C943   C     0.58000   0.66999   0.75001   0.00000  Uiso   1.00
C944   C     0.92000   0.83001   0.24999   0.00000  Uiso   1.00
C945   C     0.63832   0.88834   0.24998   0.00000  Uiso   1.00
C946   C     0.86168   0.61166   0.75002   0.00000  Uiso   1.00
C947   C     0.61167   0.63835   0.25001   0.00000  Uiso   1.00
C948   C     0.88833   0.86165   0.74999   0.00000  Uiso   1.00
C949   C     0.86166   0.61168   0.25001   0.00000  Uiso   1.00
C950   C     0.63834   0.88832   0.74999   0.00000  Uiso   1.00
C951   C     0.88835   0.86167   0.24999   0.00000  Uiso   1.00
C952   C     0.61165   0.63833   0.75001   0.00000  Uiso   1.00
C953   C     0.63835   0.61167   0.74999   0.00000  Uiso   1.00
C954   C     0.86165   0.88833   0.25001   0.00000  Uiso   1.00
C955   C     0.61166   0.86168   0.75001   0.00000  Uiso   1.00
C956   C     0.88834   0.63832   0.24999   0.00000  Uiso   1.00
C957   C     0.86167   0.88835   0.75001   0.00000  Uiso   1.00
C958   C     0.63833   0.61165   0.24999   0.00000  Uiso   1.00
C959   C     0.88832   0.63834   0.74998   0.00000  Uiso   1.00
C960   C     0.61168   0.86166   0.25002   0.00000  Uiso   1.00
C961   C     0.97857   0.78175   0.41801   0.00000  Uiso   1.00
C962   C     0.52100   0.71746   0.58209   0.00000  Uiso   1.00
C963   C     0.71892   0.52293   0.41832   0.00000  Uiso   1.00
C964   C     0.78618   0.98725   0.58210   0.00000  Uiso   1.00
C965   C     0.52294   0.71887   0.41810   0.00000  Uiso   1.00
C966   C     0.97677   0.78040   0.58179   0.00000  Uiso   1.00
C967   C     0.78116   0.97784   0.41853   0.00000  Uiso   1.00
C968   C     0.71404   0.51344   0.58190   0.00000  Uiso   1.00
C969   C     0.72912   0.53261   0.91791   0.00000  Uiso   1.00
C970   C     0.77131   0.96817   0.08199   0.00000  Uiso   1.00
C971   C     0.96375   0.76257   0.91790   0.00000  Uiso   1.00
C972   C     0.53116   0.72718   0.08168   0.00000  Uiso   1.00
C973   C     0.77311   0.96951   0.91820   0.00000  Uiso   1.00
C974   C     0.72718   0.53122   0.08191   0.00000  Uiso   1.00
C975   C     0.53602   0.73673   0.91810   0.00000  Uiso   1.00
C976   C     0.96875   0.77202   0.08147   0.00000  Uiso   1.00
C977   C     0.50091   0.75043   0.39820   0.00000  Uiso   1.00
C978   C     0.99899   0.74911   0.60183   0.00000  Uiso   1.00
C979   C     0.74994   0.50016   0.39834   0.00000  Uiso   1.00
C980   C     0.75000   0.50009   0.60199   0.00000  Uiso   1.00
C981   C     0.75101   0.50088   0.89817   0.00000  Uiso   1.00
C982   C     0.74909   0.99958   0.10181   0.00000  Uiso   1.00
C983   C     0.50000   0.74990   0.89801   0.00000  Uiso   1.00
C984   C     0.50006   0.74984   0.10166   0.00000  Uiso   1.00
C985   C     0.52422   0.71916   0.45905   0.00000  Uiso   1.00
C986   C     0.97491   0.77938   0.54092   0.00000  Uiso   1.00
C987   C     0.78417   0.98178   0.45928   0.00000  Uiso   1.00
C988   C     0.71572   0.51835   0.54122   0.00000  Uiso   1.00
C989   C     0.97893   0.78264   0.45901   0.00000  Uiso   1.00
C990   C     0.52016   0.71612   0.54107   0.00000  Uiso   1.00
C991   C     0.71621   0.51974   0.45917   0.00000  Uiso   1.00
C992   C     0.78488   0.98307   0.54131   0.00000  Uiso   1.00
C993   C     0.77496   0.97050   0.95908   0.00000  Uiso   1.00
C994   C     0.72591   0.53095   0.04095   0.00000  Uiso   1.00
C995   C     0.53436   0.73181   0.95878   0.00000  Uiso   1.00
C996   C     0.96574   0.76804   0.04073   0.00000  Uiso   1.00
C997   C     0.72998   0.53396   0.95893   0.00000  Uiso   1.00
C998   C     0.77092   0.96727   0.04099   0.00000  Uiso   1.00
C999   C     0.96502   0.76674   0.95869   0.00000  Uiso   1.00
C1000  C     0.53386   0.73039   0.04083   0.00000  Uiso   1.00
C1001  C     0.50027   0.74990   0.47948   0.00000  Uiso   1.00
C1002  C     0.99887   0.74874   0.52052   0.00000  Uiso   1.00
C1003  C     0.75022   0.50077   0.47973   0.00000  Uiso   1.00
C1004  C     0.75028   0.50074   0.52072   0.00000  Uiso   1.00
C1005  C     0.75114   0.50125   0.97948   0.00000  Uiso   1.00
C1006  C     0.74972   0.50011   0.02052   0.00000  Uiso   1.00
C1007  C     0.99971   0.74924   0.97928   0.00000  Uiso   1.00
C1008  C     0.99977   0.74921   0.02027   0.00000  Uiso   1.00
C1009  C     0.54785   0.68886   0.48019   0.00000  Uiso   1.00
C1010  C     0.95052   0.80897   0.51990   0.00000  Uiso   1.00
C1011  C     0.81970   0.96663   0.48015   0.00000  Uiso   1.00
C1012  C     0.68338   0.53949   0.52056   0.00000  Uiso   1.00
C1013  C     0.95786   0.81468   0.48026   0.00000  Uiso   1.00
C1014  C     0.54048   0.68359   0.51994   0.00000  Uiso   1.00
C1015  C     0.68104   0.53563   0.48006   0.00000  Uiso   1.00
C1016  C     0.81759   0.96263   0.52063   0.00000  Uiso   1.00
C1017  C     0.79919   0.94078   0.98010   0.00000  Uiso   1.00
C1018  C     0.70244   0.56138   0.01980   0.00000  Uiso   1.00
C1019  C     0.56680   0.71081   0.97944   0.00000  Uiso   1.00
C1020  C     0.93012   0.78301   0.01986   0.00000  Uiso   1.00
C1021  C     0.70984   0.56660   0.98005   0.00000  Uiso   1.00
C1022  C     0.79182   0.93512   0.01975   0.00000  Uiso   1.00
C1023  C     0.93220   0.78700   0.97938   0.00000  Uiso   1.00
C1024  C     0.56911   0.71467   0.01994   0.00000  Uiso   1.00
N1025  N     0.95181   0.80930   0.39602   0.00000  Uiso   1.00
O1026  O     0.96823   0.83619   0.37200   0.00000  Uiso   1.00
O1027  O     0.91155   0.80193   0.39455   0.00000  Uiso   1.00
N1028  N     0.54804   0.69011   0.60402   0.00000  Uiso   1.00
O1029  O     0.53201   0.66386   0.62884   0.00000  Uiso   1.00
O1030  O     0.58846   0.69673   0.60413   0.00000  Uiso   1.00
N1031  N     0.69226   0.55131   0.39707   0.00000  Uiso   1.00
O1032  O     0.66700   0.53718   0.37036   0.00000  Uiso   1.00
O1033  O     0.69677   0.59172   0.40147   0.00000  Uiso   1.00
N1034  N     0.82530   0.98395   0.60292   0.00000  Uiso   1.00
O1035  O     0.82999   0.95656   0.63059   0.00000  Uiso   1.00
O1036  O     0.85549   0.51042   0.59571   0.00000  Uiso   1.00
N1037  N     0.53655   0.68254   0.39670   0.00000  Uiso   1.00
O1038  O     0.56971   0.68427   0.37470   0.00000  Uiso   1.00
O1039  O     0.51350   0.64874   0.39668   0.00000  Uiso   1.00
N1040  N     0.96371   0.81732   0.60267   0.00000  Uiso   1.00
O1041  O     0.93143   0.81617   0.62577   0.00000  Uiso   1.00
O1042  O     0.98546   0.85182   0.59973   0.00000  Uiso   1.00
N1043  N     0.80779   0.94916   0.39766   0.00000  Uiso   1.00
O1044  O     0.83267   0.96280   0.37054   0.00000  Uiso   1.00
O1045  O     0.80420   0.90885   0.40340   0.00000  Uiso   1.00
N1046  N     0.67470   0.51653   0.60225   0.00000  Uiso   1.00
O1047  O     0.66997   0.54304   0.63064   0.00000  Uiso   1.00
O1048  O     0.64404   0.99113   0.59346   0.00000  Uiso   1.00
N1049  N     0.70215   0.56004   0.89599   0.00000  Uiso   1.00
O1050  O     0.71824   0.58618   0.87110   0.00000  Uiso   1.00
O1051  O     0.66170   0.55364   0.89600   0.00000  Uiso   1.00
N1052  N     0.79801   0.94055   0.10397   0.00000  Uiso   1.00
O1053  O     0.78154   0.91378   0.12806   0.00000  Uiso   1.00
O1054  O     0.83831   0.94771   0.10530   0.00000  Uiso   1.00
N1055  N     0.92463   0.76570   0.89706   0.00000  Uiso   1.00
O1056  O     0.91985   0.79308   0.86939   0.00000  Uiso   1.00
O1057  O     0.89459   0.73904   0.90420   0.00000  Uiso   1.00
N1058  N     0.55792   0.69890   0.10293   0.00000  Uiso   1.00
O1059  O     0.58309   0.71311   0.12968   0.00000  Uiso   1.00
O1060  O     0.55361   0.65847   0.09847   0.00000  Uiso   1.00
N1061  N     0.78605   0.93256   0.89731   0.00000  Uiso   1.00
O1062  O     0.81833   0.93361   0.87420   0.00000  Uiso   1.00
O1063  O     0.76413   0.89815   0.90016   0.00000  Uiso   1.00
N1064  N     0.71366   0.56757   0.10333   0.00000  Uiso   1.00
O1065  O     0.68049   0.56592   0.12531   0.00000  Uiso   1.00
O1066  O     0.73689   0.60126   0.10347   0.00000  Uiso   1.00
N1067  N     0.57537   0.73381   0.89774   0.00000  Uiso   1.00
O1068  O     0.58019   0.70736   0.86933   0.00000  Uiso   1.00
O1069  O     0.60591   0.75934   0.90654   0.00000  Uiso   1.00
N1070  N     0.94202   0.80063   0.10233   0.00000  Uiso   1.00
O1071  O     0.91725   0.78693   0.12950   0.00000  Uiso   1.00
O1072  O     0.94537   0.84093   0.09648   0.00000  Uiso   1.00
C1073  C     0.58471   0.66531   0.46243   0.00000  Uiso   1.00
H1074  H     0.57390   0.63622   0.44774   0.00000  Uiso   1.00
H1075  H     0.60216   0.68599   0.44220   0.00000  Uiso   1.00
H1076  H     0.60824   0.65618   0.48472   0.00000  Uiso   1.00
C1077  C     0.91251   0.83061   0.53759   0.00000  Uiso   1.00
H1078  H     0.89696   0.80978   0.55896   0.00000  Uiso   1.00
H1079  H     0.92156   0.86099   0.55104   0.00000  Uiso   1.00
H1080  H     0.88808   0.83685   0.51528   0.00000  Uiso   1.00
C1081  C     0.86210   0.95986   0.46081   0.00000  Uiso   1.00
H1082  H     0.88846   0.96540   0.48135   0.00000  Uiso   1.00
H1083  H     0.86491   0.92721   0.44973   0.00000  Uiso   1.00
H1084  H     0.86699   0.98307   0.43727   0.00000  Uiso   1.00
C1085  C     0.65454   0.57103   0.54033   0.00000  Uiso   1.00
H1086  H     0.62522   0.55558   0.55031   0.00000  Uiso   1.00
H1087  H     0.67078   0.58669   0.56487   0.00000  Uiso   1.00
H1088  H     0.64582   0.59695   0.52031   0.00000  Uiso   1.00
C1089  C     0.94682   0.85723   0.46289   0.00000  Uiso   1.00
H1090  H     0.97182   0.86774   0.44273   0.00000  Uiso   1.00
H1091  H     0.91571   0.85620   0.44833   0.00000  Uiso   1.00
H1092  H     0.94536   0.88211   0.48544   0.00000  Uiso   1.00
C1093  C     0.55004   0.64082   0.53759   0.00000  Uiso   1.00
H1094  H     0.58138   0.64076   0.55177   0.00000  Uiso   1.00
H1095  H     0.52501   0.63158   0.55825   0.00000  Uiso   1.00
H1096  H     0.55005   0.61567   0.51525   0.00000  Uiso   1.00
C1097  C     0.63877   0.54366   0.46073   0.00000  Uiso   1.00
H1098  H     0.63715   0.57616   0.44912   0.00000  Uiso   1.00
H1099  H     0.63280   0.52014   0.43764   0.00000  Uiso   1.00
H1100  H     0.61232   0.53961   0.48135   0.00000  Uiso   1.00
C1101  C     0.84726   0.93173   0.54026   0.00000  Uiso   1.00
H1102  H     0.87576   0.94802   0.55118   0.00000  Uiso   1.00
H1103  H     0.83111   0.91475   0.56403   0.00000  Uiso   1.00
H1104  H     0.85741   0.90679   0.51983   0.00000  Uiso   1.00
C1105  C     0.83708   0.91892   0.96242   0.00000  Uiso   1.00
H1106  H     0.82785   0.88859   0.94896   0.00000  Uiso   1.00
H1107  H     0.85277   0.93966   0.94106   0.00000  Uiso   1.00
H1108  H     0.86146   0.91252   0.98474   0.00000  Uiso   1.00
C1109  C     0.66572   0.58515   0.03756   0.00000  Uiso   1.00
H1110  H     0.64812   0.56457   0.05776   0.00000  Uiso   1.00
H1111  H     0.67672   0.61416   0.05228   0.00000  Uiso   1.00
H1112  H     0.64227   0.59446   0.01527   0.00000  Uiso   1.00
C1113  C     0.59580   0.67942   0.95967   0.00000  Uiso   1.00
H1114  H     0.60465   0.65354   0.97969   0.00000  Uiso   1.00
H1115  H     0.57964   0.66369   0.93512   0.00000  Uiso   1.00
H1116  H     0.62504   0.69502   0.94970   0.00000  Uiso   1.00
C1117  C     0.88770   0.78954   0.03922   0.00000  Uiso   1.00
H1118  H     0.86137   0.78377   0.01870   0.00000  Uiso   1.00
H1119  H     0.88297   0.76635   0.06280   0.00000  Uiso   1.00
H1120  H     0.88468   0.82219   0.05024   0.00000  Uiso   1.00
C1121  C     0.70054   0.60942   0.96240   0.00000  Uiso   1.00
H1122  H     0.72558   0.61848   0.94169   0.00000  Uiso   1.00
H1123  H     0.66917   0.60969   0.94826   0.00000  Uiso   1.00
H1124  H     0.70074   0.63458   0.98473   0.00000  Uiso   1.00
C1125  C     0.80260   0.89251   0.03712   0.00000  Uiso   1.00
H1126  H     0.83375   0.89332   0.05163   0.00000  Uiso   1.00
H1127  H     0.77758   0.88218   0.05734   0.00000  Uiso   1.00
H1128  H     0.80383   0.86761   0.01458   0.00000  Uiso   1.00
C1129  C     0.90233   0.81771   0.95975   0.00000  Uiso   1.00
H1130  H     0.91838   0.83482   0.93600   0.00000  Uiso   1.00
H1131  H     0.87395   0.80123   0.94880   0.00000  Uiso   1.00
H1132  H     0.89198   0.84256   0.98018   0.00000  Uiso   1.00
C1133  C     0.61141   0.70683   0.03928   0.00000  Uiso   1.00
H1134  H     0.61726   0.73035   0.06240   0.00000  Uiso   1.00
H1135  H     0.61320   0.67433   0.05086   0.00000  Uiso   1.00
H1136  H     0.63784   0.71104   0.01868   0.00000  Uiso   1.00
loop_
_geom_bond_atom_site_label_1
_geom_bond_atom_site_label_2
_geom_bond_distance
_geom_bond_site_symmetry_2
_ccdc_geom_bond_type
Zn1    O63     1.913   .     S
Zn1    O32     1.952   .     S
Zn1    O17     1.933   .     S
Zn1    O628    1.917   1_545 S
Zn2    O18     1.933   .     S
Zn2    O31     1.952   .     S
Zn2    O59     1.917   .     S
Zn2    O632    1.913   1_545 S
Zn3    O345    1.917   1_455 S
Zn3    O19     1.936   .     S
Zn3    O34     1.951   .     S
Zn3    O54     1.912   .     S
Zn4    O62     1.917   .     S
Zn4    O33     1.951   .     S
Zn4    O20     1.936   .     S
Zn4    O337    1.912   1_455 S
Zn5    O56     1.916   .     S
Zn5    O36     1.950   .     S
Zn5    O17     1.937   .     S
Zn5    O635    1.913   1_545 S
Zn6    O35     1.950   .     S
Zn6    O18     1.937   .     S
Zn6    O68     1.913   .     S
Zn6    O623    1.916   1_545 S
Zn7    O30     1.951   .     S
Zn7    O65     1.915   .     S
Zn7    O19     1.936   .     S
Zn7    O342    1.913   1_455 S
Zn8    O29     1.951   .     S
Zn8    O57     1.913   .     S
Zn8    O20     1.936   .     S
Zn8    O350    1.915   1_455 S
Zn9    O47     1.913   .     S
Zn9    O44     1.917   .     S
Zn9    O24     1.952   .     S
Zn9    O304    1.933   .     S
Zn10   O19     1.933   .     S
Zn10   O48     1.913   .     S
Zn10   O43     1.917   .     S
Zn10   O23     1.952   .     S
Zn11   O45     1.917   .     S
Zn11   O26     1.951   .     S
Zn11   O38     1.912   .     S
Zn11   O586    1.936   .     S
Zn12   O37     1.912   .     S
Zn12   O17     1.936   .     S
Zn12   O46     1.917   .     S
Zn12   O25     1.951   .     S
Zn13   O40     1.916   .     S
Zn13   O51     1.913   .     S
Zn13   O28     1.950   .     S
Zn13   O20     1.937   .     S
Zn14   O39     1.916   .     S
Zn14   O52     1.913   .     S
Zn14   O27     1.950   .     S
Zn14   O303    1.937   .     S
Zn15   O18     1.936   .     S
Zn15   O22     1.951   .     S
Zn15   O42     1.913   .     S
Zn15   O49     1.915   .     S
Zn16   O21     1.951   .     S
Zn16   O50     1.915   .     S
Zn16   O41     1.913   .     S
Zn16   O585    1.936   .     S
O17    Zn584   1.936   1_545 S
O18    Zn579   1.936   1_545 S
O19    Zn298   1.937   1_455 S
O20    Zn293   1.933   1_455 S
O21    C637    1.271   .     S
O22    C70     1.269   .     A
O23    C71     1.267   .     A
O24    C72     1.267   .     A
O25    C69     1.270   .     A
O26    C638    1.269   .     S
O27    C355    1.272   .     S
O28    C356    1.272   1_455 S
O29    C73     1.269   .     A
O30    C74     1.271   .     A
O31    C643    1.267   1_545 S
O32    C76     1.267   .     A
O33    C73     1.269   .     A
O34    C74     1.270   .     A
O35    C643    1.272   1_545 S
O36    C76     1.272   .     A
O37    C77     1.275   .     A
O38    C78     1.275   .     A
O39    C79     1.277   .     A
O40    C80     1.277   .     A
O41    C81     1.277   .     A
O42    C82     1.277   .     A
O43    C83     1.276   .     A
O44    C84     1.276   .     A
O45    C85     1.277   .     A
O46    C86     1.277   .     A
O47    C87     1.276   .     A
O48    C88     1.276   .     A
O49    C89     1.275   .     A
O50    C90     1.275   .     A
O51    C91     1.277   .     A
O52    C92     1.277   .     A
O53    C87     1.275   .     A
O53    Zn288   1.912   .     S
O54    C88     1.275   .     A
O55    C85     1.277   .     A
O55    Zn574   1.916   .     S
O56    C86     1.277   .     A
O57    C91     1.277   .     A
O58    C92     1.277   .     A
O58    Zn291   1.913   .     S
O59    C89     1.276   .     A
O60    C90     1.276   .     A
O60    Zn569   1.917   .     S
O61    Zn287   1.917   .     S
O61    C79     1.277   .     A
O62    C80     1.277   .     A
O63    C77     1.276   .     A
O64    C78     1.276   .     A
O64    Zn570   1.913   .     S
O65    C83     1.275   .     A
O66    C84     1.275   .     A
O66    Zn292   1.915   .     S
O67    C81     1.277   .     A
O67    Zn573   1.913   .     S
O68    C82     1.277   .     A
C69    C127    1.465   .     S
C69    O589    1.271   1_545 S
C70    C128    1.458   .     S
C70    O594    1.269   1_545 S
C71    C125    1.463   .     S
C71    O311    1.272   1_455 S
C72    C126    1.462   .     S
C72    O312    1.272   .     S
C73    C131    1.458   .     S
C74    C132    1.465   .     S
C75    O603    1.272   .     S
C75    O599    1.267   .     S
C75    C697    1.462   .     S
C76    C698    1.463   1_545 S
C77    C106    1.421   .     S
C78    C105    1.420   .     S
C79    C104    1.423   .     S
C80    C103    1.423   .     S
C81    C102    1.421   .     S
C82    C101    1.421   .     S
C83    C108    1.423   .     S
C84    C107    1.423   .     S
C85    C98     1.423   .     S
C86    C97     1.423   .     S
C87    C96     1.421   .     S
C88    C95     1.420   .     S
C89    C94     1.423   .     S
C90    C93     1.423   .     S
C91    C100    1.421   .     S
C92    C99     1.421   .     S
C93    C108    1.199   .     T
C94    C107    1.199   .     T
C95    C106    1.197   .     T
C96    C105    1.197   .     T
C97    C104    1.199   .     T
C98    C103    1.199   .     T
C99    C102    1.197   .     T
C100   C101    1.197   .     T
C109   N173    1.436   .     S
C109   C137    1.417   .     A
C109   C409    1.401   .     S
C110   C138    1.418   .     A
C110   N176    1.436   .     S
C110   C410    1.402   1_455 S
C111   N179    1.437   .     S
C111   C139    1.418   .     A
C111   C127    1.404   .     A
C112   C140    1.416   .     A
C112   N182    1.438   .     S
C112   C696    1.400   .     S
C113   N185    1.437   .     S
C113   C133    1.416   .     A
C113   C125    1.401   .     A
C114   N188    1.438   .     S
C114   C134    1.414   .     A
C114   C126    1.400   .     A
C115   N191    1.437   .     S
C115   C135    1.416   .     A
C115   C695    1.403   .     S
C116   N194    1.438   .     S
C116   C136    1.415   .     A
C116   C128    1.401   .     A
C117   N197    1.436   .     S
C117   C145    1.418   .     A
C117   C129    1.402   .     A
C118   N200    1.436   .     S
C118   C130    1.401   .     A
C118   C146    1.417   .     A
C119   C147    1.416   .     A
C119   C415    1.400   .     A
C119   N203    1.438   .     S
C120   N206    1.437   .     S
C120   C148    1.418   .     A
C120   C132    1.404   .     A
C121   N209    1.438   .     S
C121   C141    1.414   .     A
C121   C697    1.400   .     S
C122   N212    1.437   .     S
C122   C142    1.416   .     A
C122   C698    1.401   1_545 S
C123   N215    1.438   .     S
C123   C143    1.415   .     A
C123   C131    1.400   .     S
C124   C144    1.416   .     A
C124   N218    1.437   .     S
C124   C416    1.403   .     S
C125   C393    1.401   1_455 S
C126   C394    1.402   .     S
C127   C683    1.403   1_545 S
C128   C680    1.400   1_545 S
C129   C689    1.400   1_545 S
C129   C643    1.462   1_545 S
C130   C644    1.463   .     S
C130   C690    1.401   .     S
C131   C403    1.400   1_455 A
C132   C408    1.403   1_455 S
C133   C149    1.425   .     A
C133   C157    1.421   .     A
C134   C150    1.422   .     A
C134   C158    1.417   .     A
C135   C159    1.421   .     A
C135   C719    1.424   .     S
C136   C152    1.422   .     A
C136   C160    1.418   .     A
C137   C161    1.422   .     A
C137   C433    1.427   .     S
C138   C162    1.420   .     A
C138   C434    1.425   1_455 S
C139   C163    1.423   .     A
C139   C151    1.424   .     A
C140   C164    1.418   .     A
C140   C720    1.423   .     S
C141   C165    1.417   .     A
C141   C721    1.423   .     S
C142   C166    1.421   .     A
C142   C154    1.425   .     A
C143   C167    1.418   .     A
C143   C439    1.422   1_455 S
C144   C168    1.421   .     A
C144   C156    1.424   .     A
C145   C169    1.420   .     A
C145   C153    1.425   .     A
C146   C170    1.422   .     A
C146   C722    1.427   .     S
C147   C155    1.423   .     A
C147   C171    1.419   .     A
C148   C172    1.423   .     A
C148   C440    1.424   1_455 S
C149   C421    1.427   1_455 S
C149   C434    1.419   1_455 S
C150   C422    1.425   .     S
C150   C433    1.419   .     S
C151   C152    1.416   .     A
C151   C703    1.424   1_545 S
C152   C708    1.423   1_545 S
C153   C709    1.423   1_545 S
C153   C154    1.419   1_556 S
C154   C714    1.427   1_545 S
C154   C153    1.419   1_554 S
C155   C427    1.422   .     S
C155   C156    1.416   1_556 S
C156   C432    1.424   .     S
C156   C155    1.416   1_554 S
C157   C221    1.519   .     S
C157   C162    1.404   .     A
C158   C161    1.402   .     A
C158   C225    1.518   .     S
C159   C229    1.520   .     S
C159   C164    1.406   .     A
C160   C163    1.407   .     A
C160   C233    1.519   .     S
C161   C237    1.519   .     S
C162   C241    1.519   .     S
C163   C245    1.519   .     S
C164   C249    1.518   .     S
C165   C253    1.518   .     S
C165   C170    1.402   1_556 S
C166   C257    1.519   .     S
C166   C169    1.404   1_554 S
C167   C261    1.519   .     S
C167   C172    1.407   1_556 S
C168   C265    1.520   .     S
C168   C171    1.406   1_554 S
C169   C269    1.519   .     S
C169   C166    1.404   1_556 S
C170   C273    1.519   .     S
C170   C165    1.402   1_554 S
C171   C277    1.519   .     S
C171   C168    1.406   1_556 S
C172   C281    1.519   .     S
C172   C167    1.407   1_554 S
N173   O174    1.302   .     A
N173   O175    1.301   .     A
N176   O178    1.301   .     A
N176   O177    1.302   .     A
N179   O181    1.301   .     A
N179   O180    1.302   .     A
N182   O183    1.301   .     A
N182   O752    1.301   .     S
O184   N750    1.301   1_545 S
N185   O187    1.301   .     A
N185   O186    1.301   .     A
N188   O190    1.301   .     A
N188   O189    1.301   .     A
N191   O192    1.302   .     A
N191   O193    1.301   .     A
N194   O195    1.301   .     A
N194   O764    1.301   1_545 S
O196   N762    1.301   .     S
N197   O199    1.301   .     A
N197   O198    1.302   .     A
N200   O201    1.302   .     A
N200   O202    1.301   .     A
N203   O205    1.301   .     A
N203   O204    1.301   .     A
N206   O207    1.302   .     A
N206   O208    1.301   .     A
N209   O210    1.301   .     A
N209   O211    1.301   .     A
N212   O214    1.301   .     A
N212   O213    1.301   .     A
N215   O217    1.301   .     A
N215   O216    1.301   .     A
N218   O219    1.302   .     A
N218   O220    1.301   .     A
C221   H224    1.110   .     S
C221   H222    1.109   .     S
C221   H223    1.109   .     S
C225   H227    1.109   .     S
C225   H228    1.110   .     S
C225   H226    1.109   .     S
C229   H232    1.109   .     S
C229   H230    1.110   .     S
C229   H231    1.109   .     S
C233   H234    1.109   .     S
C233   H236    1.110   .     S
C233   H235    1.109   .     S
C237   H240    1.111   .     S
C237   H239    1.109   .     S
C237   H238    1.109   .     S
C241   H242    1.109   .     S
C241   H244    1.111   .     S
C241   H243    1.109   .     S
C245   H246    1.109   .     S
C245   H247    1.109   .     S
C245   H248    1.110   .     S
C249   H250    1.109   .     S
C249   H252    1.109   .     S
C249   H251    1.110   .     S
C253   H254    1.109   .     S
C253   H255    1.109   .     S
C253   H256    1.110   .     S
C257   H258    1.109   .     S
C257   H259    1.109   .     S
C257   H260    1.110   .     S
C261   H263    1.109   .     S
C261   H264    1.109   .     S
C261   H262    1.110   .     S
C265   H267    1.109   .     S
C265   H266    1.110   .     S
C265   H268    1.109   .     S
C269   H270    1.109   .     S
C269   H271    1.109   .     S
C269   H272    1.111   .     S
C273   H275    1.109   .     S
C273   H276    1.111   .     S
C273   H274    1.109   .     S
C277   H279    1.109   .     S
C277   H280    1.109   .     S
C277   H278    1.110   .     S
C281   H284    1.110   .     S
C281   H282    1.109   .     S
C281   H283    1.109   .     S
Zn285  O347    1.913   .     S
Zn285  O316    1.952   .     S
Zn285  O301    1.933   .     S
Zn285  O912    1.917   1_545 S
Zn286  O302    1.933   .     S
Zn286  O315    1.952   .     S
Zn286  O343    1.917   .     S
Zn286  O916    1.913   1_545 S
Zn287  O303    1.936   .     S
Zn287  O318    1.951   .     S
Zn287  O338    1.912   .     S
Zn288  O346    1.917   .     S
Zn288  O317    1.951   .     S
Zn288  O304    1.936   .     S
Zn289  O340    1.916   .     S
Zn289  O320    1.950   .     S
Zn289  O301    1.937   .     S
Zn289  O919    1.913   1_545 S
Zn290  O319    1.950   .     S
Zn290  O302    1.937   .     S
Zn290  O352    1.913   .     S
Zn290  O907    1.916   1_545 S
Zn291  O314    1.951   .     S
Zn291  O349    1.915   .     S
Zn291  O303    1.936   .     S
Zn292  O313    1.951   .     S
Zn292  O341    1.913   .     S
Zn292  O304    1.936   .     S
Zn293  O331    1.913   .     S
Zn293  O328    1.917   .     S
Zn293  O308    1.952   .     S
Zn293  O20     1.933   1_655 S
Zn294  O303    1.933   .     S
Zn294  O332    1.913   .     S
Zn294  O327    1.917   .     S
Zn294  O307    1.952   .     S
Zn295  O329    1.917   .     S
Zn295  O310    1.951   .     S
Zn295  O322    1.912   .     S
Zn295  O870    1.936   .     S
Zn296  O321    1.912   .     S
Zn296  O301    1.936   .     S
Zn296  O330    1.917   .     S
Zn296  O309    1.951   .     S
Zn297  O324    1.916   .     S
Zn297  O335    1.913   .     S
Zn297  O312    1.950   .     S
Zn297  O304    1.937   .     S
Zn298  O323    1.916   .     S
Zn298  O336    1.913   .     S
Zn298  O311    1.950   .     S
Zn298  O19     1.937   1_655 S
Zn299  O302    1.936   .     S
Zn299  O306    1.951   .     S
Zn299  O326    1.913   .     S
Zn299  O333    1.915   .     S
Zn300  O305    1.951   .     S
Zn300  O334    1.915   .     S
Zn300  O325    1.913   .     S
Zn300  O869    1.936   .     S
O301   Zn868   1.936   1_545 S
O302   Zn863   1.936   1_545 S
O305   C921    1.271   .     S
O306   C354    1.269   .     A
O307   C355    1.267   .     A
O308   C356    1.267   .     A
O309   C353    1.270   .     A
O310   C922    1.269   .     S
O311   C71     1.272   1_655 S
O313   C357    1.269   .     A
O314   C358    1.271   .     A
O315   C927    1.267   1_545 S
O316   C360    1.267   .     A
O317   C357    1.269   .     A
O318   C358    1.270   .     A
O319   C927    1.272   1_545 S
O320   C360    1.272   .     A
O321   C361    1.275   .     A
O322   C362    1.275   .     A
O323   C363    1.277   .     A
O324   C364    1.277   .     A
O325   C365    1.277   .     A
O326   C366    1.277   .     A
O327   C367    1.276   .     A
O328   C368    1.276   .     A
O329   C369    1.277   .     A
O330   C370    1.277   .     A
O331   C371    1.276   .     A
O332   C372    1.276   .     A
O333   C373    1.275   .     A
O334   C374    1.275   .     A
O335   C375    1.277   .     A
O336   C376    1.277   .     A
O337   C371    1.275   .     A
O337   Zn4     1.912   1_655 S
O338   C372    1.275   .     A
O339   C369    1.277   .     A
O339   Zn858   1.916   .     S
O340   C370    1.277   .     A
O341   C375    1.277   .     A
O342   C376    1.277   .     A
O342   Zn7     1.913   1_655 S
O343   C373    1.276   .     A
O344   C374    1.276   .     A
O344   Zn853   1.917   .     S
O345   Zn3     1.917   1_655 S
O345   C363    1.277   .     A
O346   C364    1.277   .     A
O347   C361    1.276   .     A
O348   C362    1.276   .     A
O348   Zn854   1.913   .     S
O349   C367    1.275   .     A
O350   C368    1.275   .     A
O350   Zn8     1.915   1_655 S
O351   C365    1.277   .     A
O351   Zn857   1.913   .     S
O352   C366    1.277   .     A
C353   C411    1.465   .     S
C353   O873    1.271   1_545 S
C354   C412    1.458   .     S
C354   O878    1.269   1_545 S
C355   C409    1.463   .     S
C356   C410    1.462   .     S
C356   O28     1.272   1_655 S
C357   C415    1.458   .     S
C358   C416    1.465   .     S
C359   O887    1.272   .     S
C359   O883    1.267   .     S
C359   C981    1.462   .     S
C360   C982    1.463   1_545 S
C361   C390    1.421   .     S
C362   C389    1.420   .     S
C363   C388    1.423   .     S
C364   C387    1.423   .     S
C365   C386    1.421   .     S
C366   C385    1.421   .     S
C367   C392    1.423   .     S
C368   C391    1.423   .     S
C369   C382    1.423   .     S
C370   C381    1.423   .     S
C371   C380    1.421   .     S
C372   C379    1.420   .     S
C373   C378    1.423   .     S
C374   C377    1.423   .     S
C375   C384    1.421   .     S
C376   C383    1.421   .     S
C377   C392    1.199   .     T
C378   C391    1.199   .     T
C379   C390    1.197   .     T
C380   C389    1.197   .     T
C381   C388    1.199   .     T
C382   C387    1.199   .     T
C383   C386    1.197   .     T
C384   C385    1.197   .     T
C393   N457    1.436   .     S
C393   C421    1.417   .     A
C393   C125    1.401   1_655 S
C394   C422    1.418   .     A
C394   N460    1.436   .     S
C395   N463    1.437   .     S
C395   C423    1.418   .     A
C395   C411    1.404   .     A
C396   C424    1.416   .     A
C396   N466    1.438   .     S
C396   C980    1.400   .     S
C397   N469    1.437   .     S
C397   C417    1.416   .     A
C397   C409    1.401   .     A
C398   N472    1.438   .     S
C398   C418    1.414   .     A
C398   C410    1.400   .     A
C399   N475    1.437   .     S
C399   C419    1.416   .     A
C399   C979    1.403   .     S
C400   N478    1.438   .     S
C400   C420    1.415   .     A
C400   C412    1.401   .     A
C401   N481    1.436   .     S
C401   C429    1.418   .     A
C401   C413    1.402   .     A
C402   N484    1.436   .     S
C402   C414    1.401   .     A
C402   C430    1.417   .     A
C403   C431    1.416   .     A
C403   C131    1.400   1_655 A
C403   N487    1.438   .     S
C404   N490    1.437   .     S
C404   C432    1.418   .     A
C404   C416    1.404   .     A
C405   N493    1.438   .     S
C405   C425    1.414   .     A
C405   C981    1.400   .     S
C406   N496    1.437   .     S
C406   C426    1.416   .     A
C406   C982    1.401   1_545 S
C407   N499    1.438   .     S
C407   C427    1.415   .     A
C407   C415    1.400   .     S
C408   C428    1.416   .     A
C408   N502    1.437   .     S
C408   C132    1.403   1_655 S
C410   C110    1.402   1_655 S
C411   C967    1.403   1_545 S
C412   C964    1.400   1_545 S
C413   C973    1.400   1_545 S
C413   C927    1.462   1_545 S
C414   C928    1.463   .     S
C414   C974    1.401   .     S
C417   C433    1.425   .     A
C417   C441    1.421   .     A
C418   C434    1.422   .     A
C418   C442    1.417   .     A
C419   C443    1.421   .     A
C419   C1003   1.424   .     S
C420   C436    1.422   .     A
C420   C444    1.418   .     A
C421   C445    1.422   .     A
C421   C149    1.427   1_655 S
C422   C446    1.420   .     A
C423   C447    1.423   .     A
C423   C435    1.424   .     A
C424   C448    1.418   .     A
C424   C1004   1.423   .     S
C425   C449    1.417   .     A
C425   C1005   1.423   .     S
C426   C450    1.421   .     A
C426   C438    1.425   .     A
C427   C451    1.418   .     A
C428   C452    1.421   .     A
C428   C440    1.424   .     A
C429   C453    1.420   .     A
C429   C437    1.425   .     A
C430   C454    1.422   .     A
C430   C1006   1.427   .     S
C431   C439    1.423   .     A
C431   C455    1.419   .     A
C432   C456    1.423   .     A
C434   C138    1.425   1_655 S
C434   C149    1.419   1_655 S
C435   C436    1.416   .     A
C435   C987    1.424   1_545 S
C436   C992    1.423   1_545 S
C437   C993    1.423   1_545 S
C437   C438    1.419   1_556 S
C438   C998    1.427   1_545 S
C438   C437    1.419   1_554 S
C439   C143    1.422   1_655 S
C439   C440    1.416   1_556 S
C440   C148    1.424   1_655 S
C440   C439    1.416   1_554 S
C441   C505    1.519   .     S
C441   C446    1.404   .     A
C442   C445    1.402   .     A
C442   C509    1.518   .     S
C443   C513    1.520   .     S
C443   C448    1.406   .     A
C444   C447    1.407   .     A
C444   C517    1.519   .     S
C445   C521    1.519   .     S
C446   C525    1.519   .     S
C447   C529    1.519   .     S
C448   C533    1.518   .     S
C449   C537    1.518   .     S
C449   C454    1.402   1_556 S
C450   C541    1.519   .     S
C450   C453    1.404   1_554 S
C451   C545    1.519   .     S
C451   C456    1.407   1_556 S
C452   C549    1.520   .     S
C452   C455    1.406   1_554 S
C453   C553    1.519   .     S
C453   C450    1.404   1_556 S
C454   C557    1.519   .     S
C454   C449    1.402   1_554 S
C455   C561    1.519   .     S
C455   C452    1.406   1_556 S
C456   C565    1.519   .     S
C456   C451    1.407   1_554 S
N457   O458    1.302   .     A
N457   O459    1.301   .     A
N460   O462    1.301   .     A
N460   O461    1.302   .     A
N463   O465    1.301   .     A
N463   O464    1.302   .     A
N466   O467    1.301   .     A
N466   O1036   1.301   .     S
O468   N1034   1.301   1_545 S
N469   O471    1.301   .     A
N469   O470    1.301   .     A
N472   O474    1.301   .     A
N472   O473    1.301   .     A
N475   O476    1.302   .     A
N475   O477    1.301   .     A
N478   O479    1.301   .     A
N478   O1048   1.301   1_545 S
O480   N1046   1.301   .     S
N481   O483    1.301   .     A
N481   O482    1.302   .     A
N484   O485    1.302   .     A
N484   O486    1.301   .     A
N487   O489    1.301   .     A
N487   O488    1.301   .     A
N490   O491    1.302   .     A
N490   O492    1.301   .     A
N493   O494    1.301   .     A
N493   O495    1.301   .     A
N496   O498    1.301   .     A
N496   O497    1.301   .     A
N499   O501    1.301   .     A
N499   O500    1.301   .     A
N502   O503    1.302   .     A
N502   O504    1.301   .     A
C505   H508    1.110   .     S
C505   H506    1.109   .     S
C505   H507    1.109   .     S
C509   H511    1.109   .     S
C509   H512    1.110   .     S
C509   H510    1.109   .     S
C513   H516    1.109   .     S
C513   H514    1.110   .     S
C513   H515    1.109   .     S
C517   H518    1.109   .     S
C517   H520    1.110   .     S
C517   H519    1.109   .     S
C521   H524    1.111   .     S
C521   H523    1.109   .     S
C521   H522    1.109   .     S
C525   H526    1.109   .     S
C525   H528    1.111   .     S
C525   H527    1.109   .     S
C529   H530    1.109   .     S
C529   H531    1.109   .     S
C529   H532    1.110   .     S
C533   H534    1.109   .     S
C533   H536    1.109   .     S
C533   H535    1.110   .     S
C537   H538    1.109   .     S
C537   H539    1.109   .     S
C537   H540    1.110   .     S
C541   H542    1.109   .     S
C541   H543    1.109   .     S
C541   H544    1.110   .     S
C545   H547    1.109   .     S
C545   H548    1.109   .     S
C545   H546    1.110   .     S
C549   H551    1.109   .     S
C549   H550    1.110   .     S
C549   H552    1.109   .     S
C553   H554    1.109   .     S
C553   H555    1.109   .     S
C553   H556    1.111   .     S
C557   H559    1.109   .     S
C557   H560    1.111   .     S
C557   H558    1.109   .     S
C561   H563    1.109   .     S
C561   H564    1.109   .     S
C561   H562    1.110   .     S
C565   H568    1.110   .     S
C565   H566    1.109   .     S
C565   H567    1.109   .     S
Zn569  O631    1.913   .     S
Zn569  O600    1.952   .     S
Zn569  O585    1.933   .     S
Zn570  O586    1.933   .     S
Zn570  O599    1.952   .     S
Zn570  O627    1.917   .     S
Zn571  O913    1.917   1_455 S
Zn571  O587    1.936   .     S
Zn571  O602    1.951   .     S
Zn571  O622    1.912   .     S
Zn572  O630    1.917   .     S
Zn572  O601    1.951   .     S
Zn572  O588    1.936   .     S
Zn572  O905    1.912   1_455 S
Zn573  O624    1.916   .     S
Zn573  O604    1.950   .     S
Zn573  O585    1.937   .     S
Zn574  O603    1.950   .     S
Zn574  O586    1.937   .     S
Zn574  O636    1.913   .     S
Zn575  O598    1.951   .     S
Zn575  O633    1.915   .     S
Zn575  O587    1.936   .     S
Zn575  O910    1.913   1_455 S
Zn576  O597    1.951   .     S
Zn576  O625    1.913   .     S
Zn576  O588    1.936   .     S
Zn576  O918    1.915   1_455 S
Zn577  O615    1.913   .     S
Zn577  O612    1.917   .     S
Zn577  O592    1.952   .     S
Zn577  O872    1.933   .     S
Zn578  O587    1.933   .     S
Zn578  O616    1.913   .     S
Zn578  O611    1.917   .     S
Zn578  O591    1.952   .     S
Zn579  O613    1.917   .     S
Zn579  O594    1.951   .     S
Zn579  O606    1.912   .     S
Zn579  O18     1.936   1_565 S
Zn580  O605    1.912   .     S
Zn580  O585    1.936   .     S
Zn580  O614    1.917   .     S
Zn580  O593    1.951   .     S
Zn581  O608    1.916   .     S
Zn581  O619    1.913   .     S
Zn581  O596    1.950   .     S
Zn581  O588    1.937   .     S
Zn582  O607    1.916   .     S
Zn582  O620    1.913   .     S
Zn582  O595    1.950   .     S
Zn582  O871    1.937   .     S
Zn583  O586    1.936   .     S
Zn583  O590    1.951   .     S
Zn583  O610    1.913   .     S
Zn583  O617    1.915   .     S
Zn584  O589    1.951   .     S
Zn584  O618    1.915   .     S
Zn584  O609    1.913   .     S
Zn584  O17     1.936   1_565 S
O587   Zn866   1.937   1_455 S
O588   Zn861   1.933   1_455 S
O589   C69     1.271   1_565 S
O590   C638    1.269   .     A
O591   C639    1.267   .     A
O592   C640    1.267   .     A
O593   C637    1.270   .     A
O594   C70     1.269   1_565 S
O595   C923    1.272   .     S
O596   C924    1.272   1_455 S
O597   C641    1.269   .     A
O598   C642    1.271   .     A
O600   C644    1.267   .     A
O601   C641    1.269   .     A
O602   C642    1.270   .     A
O604   C644    1.272   .     A
O605   C645    1.275   .     A
O606   C646    1.275   .     A
O607   C647    1.277   .     A
O608   C648    1.277   .     A
O609   C649    1.277   .     A
O610   C650    1.277   .     A
O611   C651    1.276   .     A
O612   C652    1.276   .     A
O613   C653    1.277   .     A
O614   C654    1.277   .     A
O615   C655    1.276   .     A
O616   C656    1.276   .     A
O617   C657    1.275   .     A
O618   C658    1.275   .     A
O619   C659    1.277   .     A
O620   C660    1.277   .     A
O621   C655    1.275   .     A
O621   Zn856   1.912   .     S
O622   C656    1.275   .     A
O623   C653    1.277   .     A
O623   Zn6     1.916   1_565 S
O624   C654    1.277   .     A
O625   C659    1.277   .     A
O626   C660    1.277   .     A
O626   Zn859   1.913   .     S
O627   C657    1.276   .     A
O628   C658    1.276   .     A
O628   Zn1     1.917   1_565 S
O629   Zn855   1.917   .     S
O629   C647    1.277   .     A
O630   C648    1.277   .     A
O631   C645    1.276   .     A
O632   C646    1.276   .     A
O632   Zn2     1.913   1_565 S
O633   C651    1.275   .     A
O634   C652    1.275   .     A
O634   Zn860   1.915   .     S
O635   C649    1.277   .     A
O635   Zn5     1.913   1_565 S
O636   C650    1.277   .     A
C637   C695    1.465   .     S
C638   C696    1.458   .     S
C639   C693    1.463   .     S
C639   O879    1.272   1_455 S
C640   C694    1.462   .     S
C640   O880    1.272   .     S
C641   C699    1.458   .     S
C642   C700    1.465   .     S
C643   O35     1.272   1_565 S
C643   O31     1.267   1_565 S
C643   C129    1.462   1_565 S
C645   C674    1.421   .     S
C646   C673    1.420   .     S
C647   C672    1.423   .     S
C648   C671    1.423   .     S
C649   C670    1.421   .     S
C650   C669    1.421   .     S
C651   C676    1.423   .     S
C652   C675    1.423   .     S
C653   C666    1.423   .     S
C654   C665    1.423   .     S
C655   C664    1.421   .     S
C656   C663    1.420   .     S
C657   C662    1.423   .     S
C658   C661    1.423   .     S
C659   C668    1.421   .     S
C660   C667    1.421   .     S
C661   C676    1.199   .     T
C662   C675    1.199   .     T
C663   C674    1.197   .     T
C664   C673    1.197   .     T
C665   C672    1.199   .     T
C666   C671    1.199   .     T
C667   C670    1.197   .     T
C668   C669    1.197   .     T
C677   N741    1.436   .     S
C677   C705    1.417   .     A
C677   C977    1.401   .     S
C678   C706    1.418   .     A
C678   N744    1.436   .     S
C678   C978    1.402   1_455 S
C679   N747    1.437   .     S
C679   C707    1.418   .     A
C679   C695    1.404   .     A
C680   C708    1.416   .     A
C680   N750    1.438   .     S
C680   C128    1.400   1_565 S
C681   N753    1.437   .     S
C681   C701    1.416   .     A
C681   C693    1.401   .     A
C682   N756    1.438   .     S
C682   C702    1.414   .     A
C682   C694    1.400   .     A
C683   N759    1.437   .     S
C683   C703    1.416   .     A
C683   C127    1.403   1_565 S
C684   N762    1.438   .     S
C684   C704    1.415   .     A
C684   C696    1.401   .     A
C685   N765    1.436   .     S
C685   C713    1.418   .     A
C685   C697    1.402   .     A
C686   N768    1.436   .     S
C686   C698    1.401   .     A
C686   C714    1.417   .     A
C687   C715    1.416   .     A
C687   C983    1.400   .     A
C687   N771    1.438   .     S
C688   N774    1.437   .     S
C688   C716    1.418   .     A
C688   C700    1.404   .     A
C689   N777    1.438   .     S
C689   C709    1.414   .     A
C689   C129    1.400   1_565 S
C690   N780    1.437   .     S
C690   C710    1.416   .     A
C691   N783    1.438   .     S
C691   C711    1.415   .     A
C691   C699    1.400   .     S
C692   C712    1.416   .     A
C692   N786    1.437   .     S
C692   C984    1.403   .     S
C693   C961    1.401   1_455 S
C694   C962    1.402   .     S
C698   C76     1.463   1_565 S
C698   C122    1.401   1_565 S
C699   C971    1.400   1_455 A
C700   C976    1.403   1_455 S
C701   C717    1.425   .     A
C701   C725    1.421   .     A
C702   C718    1.422   .     A
C702   C726    1.417   .     A
C703   C727    1.421   .     A
C703   C151    1.424   1_565 S
C704   C720    1.422   .     A
C704   C728    1.418   .     A
C705   C729    1.422   .     A
C705   C1001   1.427   .     S
C706   C730    1.420   .     A
C706   C1002   1.425   1_455 S
C707   C731    1.423   .     A
C707   C719    1.424   .     A
C708   C732    1.418   .     A
C708   C152    1.423   1_565 S
C709   C733    1.417   .     A
C709   C153    1.423   1_565 S
C710   C734    1.421   .     A
C710   C722    1.425   .     A
C711   C735    1.418   .     A
C711   C1007   1.422   1_455 S
C712   C736    1.421   .     A
C712   C724    1.424   .     A
C713   C737    1.420   .     A
C713   C721    1.425   .     A
C714   C738    1.422   .     A
C714   C154    1.427   1_565 S
C715   C723    1.423   .     A
C715   C739    1.419   .     A
C716   C740    1.423   .     A
C716   C1008   1.424   1_455 S
C717   C989    1.427   1_455 S
C717   C1002   1.419   1_455 S
C718   C990    1.425   .     S
C718   C1001   1.419   .     S
C719   C720    1.416   .     A
C721   C722    1.419   1_556 S
C722   C721    1.419   1_554 S
C723   C995    1.422   .     S
C723   C724    1.416   1_556 S
C724   C1000   1.424   .     S
C724   C723    1.416   1_554 S
C725   C789    1.519   .     S
C725   C730    1.404   .     A
C726   C729    1.402   .     A
C726   C793    1.518   .     S
C727   C797    1.520   .     S
C727   C732    1.406   .     A
C728   C731    1.407   .     A
C728   C801    1.519   .     S
C729   C805    1.519   .     S
C730   C809    1.519   .     S
C731   C813    1.519   .     S
C732   C817    1.518   .     S
C733   C821    1.518   .     S
C733   C738    1.402   1_556 S
C734   C825    1.519   .     S
C734   C737    1.404   1_554 S
C735   C829    1.519   .     S
C735   C740    1.407   1_556 S
C736   C833    1.520   .     S
C736   C739    1.406   1_554 S
C737   C837    1.519   .     S
C737   C734    1.404   1_556 S
C738   C841    1.519   .     S
C738   C733    1.402   1_554 S
C739   C845    1.519   .     S
C739   C736    1.406   1_556 S
C740   C849    1.519   .     S
C740   C735    1.407   1_554 S
N741   O742    1.302   .     A
N741   O743    1.301   .     A
N744   O746    1.301   .     A
N744   O745    1.302   .     A
N747   O749    1.301   .     A
N747   O748    1.302   .     A
N750   O751    1.301   .     A
N750   O184    1.301   1_565 S
N753   O755    1.301   .     A
N753   O754    1.301   .     A
N756   O758    1.301   .     A
N756   O757    1.301   .     A
N759   O760    1.302   .     A
N759   O761    1.301   .     A
N762   O763    1.301   .     A
O764   N194    1.301   1_565 S
N765   O767    1.301   .     A
N765   O766    1.302   .     A
N768   O769    1.302   .     A
N768   O770    1.301   .     A
N771   O773    1.301   .     A
N771   O772    1.301   .     A
N774   O775    1.302   .     A
N774   O776    1.301   .     A
N777   O778    1.301   .     A
N777   O779    1.301   .     A
N780   O782    1.301   .     A
N780   O781    1.301   .     A
N783   O785    1.301   .     A
N783   O784    1.301   .     A
N786   O787    1.302   .     A
N786   O788    1.301   .     A
C789   H792    1.110   .     S
C789   H790    1.109   .     S
C789   H791    1.109   .     S
C793   H795    1.109   .     S
C793   H796    1.110   .     S
C793   H794    1.109   .     S
C797   H800    1.109   .     S
C797   H798    1.110   .     S
C797   H799    1.109   .     S
C801   H802    1.109   .     S
C801   H804    1.110   .     S
C801   H803    1.109   .     S
C805   H808    1.111   .     S
C805   H807    1.109   .     S
C805   H806    1.109   .     S
C809   H810    1.109   .     S
C809   H812    1.111   .     S
C809   H811    1.109   .     S
C813   H814    1.109   .     S
C813   H815    1.109   .     S
C813   H816    1.110   .     S
C817   H818    1.109   .     S
C817   H820    1.109   .     S
C817   H819    1.110   .     S
C821   H822    1.109   .     S
C821   H823    1.109   .     S
C821   H824    1.110   .     S
C825   H826    1.109   .     S
C825   H827    1.109   .     S
C825   H828    1.110   .     S
C829   H831    1.109   .     S
C829   H832    1.109   .     S
C829   H830    1.110   .     S
C833   H835    1.109   .     S
C833   H834    1.110   .     S
C833   H836    1.109   .     S
C837   H838    1.109   .     S
C837   H839    1.109   .     S
C837   H840    1.111   .     S
C841   H843    1.109   .     S
C841   H844    1.111   .     S
C841   H842    1.109   .     S
C845   H847    1.109   .     S
C845   H848    1.109   .     S
C845   H846    1.110   .     S
C849   H852    1.110   .     S
C849   H850    1.109   .     S
C849   H851    1.109   .     S
Zn853  O915    1.913   .     S
Zn853  O884    1.952   .     S
Zn853  O869    1.933   .     S
Zn854  O870    1.933   .     S
Zn854  O883    1.952   .     S
Zn854  O911    1.917   .     S
Zn855  O871    1.936   .     S
Zn855  O886    1.951   .     S
Zn855  O906    1.912   .     S
Zn856  O914    1.917   .     S
Zn856  O885    1.951   .     S
Zn856  O872    1.936   .     S
Zn857  O908    1.916   .     S
Zn857  O888    1.950   .     S
Zn857  O869    1.937   .     S
Zn858  O887    1.950   .     S
Zn858  O870    1.937   .     S
Zn858  O920    1.913   .     S
Zn859  O882    1.951   .     S
Zn859  O917    1.915   .     S
Zn859  O871    1.936   .     S
Zn860  O881    1.951   .     S
Zn860  O909    1.913   .     S
Zn860  O872    1.936   .     S
Zn861  O899    1.913   .     S
Zn861  O896    1.917   .     S
Zn861  O876    1.952   .     S
Zn861  O588    1.933   1_655 S
Zn862  O871    1.933   .     S
Zn862  O900    1.913   .     S
Zn862  O895    1.917   .     S
Zn862  O875    1.952   .     S
Zn863  O897    1.917   .     S
Zn863  O878    1.951   .     S
Zn863  O890    1.912   .     S
Zn863  O302    1.936   1_565 S
Zn864  O889    1.912   .     S
Zn864  O869    1.936   .     S
Zn864  O898    1.917   .     S
Zn864  O877    1.951   .     S
Zn865  O892    1.916   .     S
Zn865  O903    1.913   .     S
Zn865  O880    1.950   .     S
Zn865  O872    1.937   .     S
Zn866  O891    1.916   .     S
Zn866  O904    1.913   .     S
Zn866  O879    1.950   .     S
Zn866  O587    1.937   1_655 S
Zn867  O870    1.936   .     S
Zn867  O874    1.951   .     S
Zn867  O894    1.913   .     S
Zn867  O901    1.915   .     S
Zn868  O873    1.951   .     S
Zn868  O902    1.915   .     S
Zn868  O893    1.913   .     S
Zn868  O301    1.936   1_565 S
O873   C353    1.271   1_565 S
O874   C922    1.269   .     A
O875   C923    1.267   .     A
O876   C924    1.267   .     A
O877   C921    1.270   .     A
O878   C354    1.269   1_565 S
O879   C639    1.272   1_655 S
O881   C925    1.269   .     A
O882   C926    1.271   .     A
O884   C928    1.267   .     A
O885   C925    1.269   .     A
O886   C926    1.270   .     A
O888   C928    1.272   .     A
O889   C929    1.275   .     A
O890   C930    1.275   .     A
O891   C931    1.277   .     A
O892   C932    1.277   .     A
O893   C933    1.277   .     A
O894   C934    1.277   .     A
O895   C935    1.276   .     A
O896   C936    1.276   .     A
O897   C937    1.277   .     A
O898   C938    1.277   .     A
O899   C939    1.276   .     A
O900   C940    1.276   .     A
O901   C941    1.275   .     A
O902   C942    1.275   .     A
O903   C943    1.277   .     A
O904   C944    1.277   .     A
O905   C939    1.275   .     A
O905   Zn572   1.912   1_655 S
O906   C940    1.275   .     A
O907   C937    1.277   .     A
O907   Zn290   1.916   1_565 S
O908   C938    1.277   .     A
O909   C943    1.277   .     A
O910   C944    1.277   .     A
O910   Zn575   1.913   1_655 S
O911   C941    1.276   .     A
O912   C942    1.276   .     A
O912   Zn285   1.917   1_565 S
O913   Zn571   1.917   1_655 S
O913   C931    1.277   .     A
O914   C932    1.277   .     A
O915   C929    1.276   .     A
O916   C930    1.276   .     A
O916   Zn286   1.913   1_565 S
O917   C935    1.275   .     A
O918   C936    1.275   .     A
O918   Zn576   1.915   1_655 S
O919   C933    1.277   .     A
O919   Zn289   1.913   1_565 S
O920   C934    1.277   .     A
C921   C979    1.465   .     S
C922   C980    1.458   .     S
C923   C977    1.463   .     S
C924   C978    1.462   .     S
C924   O596    1.272   1_655 S
C925   C983    1.458   .     S
C926   C984    1.465   .     S
C927   O319    1.272   1_565 S
C927   O315    1.267   1_565 S
C927   C413    1.462   1_565 S
C929   C958    1.421   .     S
C930   C957    1.420   .     S
C931   C956    1.423   .     S
C932   C955    1.423   .     S
C933   C954    1.421   .     S
C934   C953    1.421   .     S
C935   C960    1.423   .     S
C936   C959    1.423   .     S
C937   C950    1.423   .     S
C938   C949    1.423   .     S
C939   C948    1.421   .     S
C940   C947    1.420   .     S
C941   C946    1.423   .     S
C942   C945    1.423   .     S
C943   C952    1.421   .     S
C944   C951    1.421   .     S
C945   C960    1.199   .     T
C946   C959    1.199   .     T
C947   C958    1.197   .     T
C948   C957    1.197   .     T
C949   C956    1.199   .     T
C950   C955    1.199   .     T
C951   C954    1.197   .     T
C952   C953    1.197   .     T
C961   N1025   1.436   .     S
C961   C989    1.417   .     A
C961   C693    1.401   1_655 S
C962   C990    1.418   .     A
C962   N1028   1.436   .     S
C963   N1031   1.437   .     S
C963   C991    1.418   .     A
C963   C979    1.404   .     A
C964   C992    1.416   .     A
C964   N1034   1.438   .     S
C964   C412    1.400   1_565 S
C965   N1037   1.437   .     S
C965   C985    1.416   .     A
C965   C977    1.401   .     A
C966   N1040   1.438   .     S
C966   C986    1.414   .     A
C966   C978    1.400   .     A
C967   N1043   1.437   .     S
C967   C987    1.416   .     A
C967   C411    1.403   1_565 S
C968   N1046   1.438   .     S
C968   C988    1.415   .     A
C968   C980    1.401   .     A
C969   N1049   1.436   .     S
C969   C997    1.418   .     A
C969   C981    1.402   .     A
C970   N1052   1.436   .     S
C970   C982    1.401   .     A
C970   C998    1.417   .     A
C971   C999    1.416   .     A
C971   C699    1.400   1_655 A
C971   N1055   1.438   .     S
C972   N1058   1.437   .     S
C972   C1000   1.418   .     A
C972   C984    1.404   .     A
C973   N1061   1.438   .     S
C973   C993    1.414   .     A
C973   C413    1.400   1_565 S
C974   N1064   1.437   .     S
C974   C994    1.416   .     A
C975   N1067   1.438   .     S
C975   C995    1.415   .     A
C975   C983    1.400   .     S
C976   C996    1.416   .     A
C976   N1070   1.437   .     S
C976   C700    1.403   1_655 S
C978   C678    1.402   1_655 S
C982   C360    1.463   1_565 S
C982   C406    1.401   1_565 S
C985   C1001   1.425   .     A
C985   C1009   1.421   .     A
C986   C1002   1.422   .     A
C986   C1010   1.417   .     A
C987   C1011   1.421   .     A
C987   C435    1.424   1_565 S
C988   C1004   1.422   .     A
C988   C1012   1.418   .     A
C989   C1013   1.422   .     A
C989   C717    1.427   1_655 S
C990   C1014   1.420   .     A
C991   C1015   1.423   .     A
C991   C1003   1.424   .     A
C992   C1016   1.418   .     A
C992   C436    1.423   1_565 S
C993   C1017   1.417   .     A
C993   C437    1.423   1_565 S
C994   C1018   1.421   .     A
C994   C1006   1.425   .     A
C995   C1019   1.418   .     A
C996   C1020   1.421   .     A
C996   C1008   1.424   .     A
C997   C1021   1.420   .     A
C997   C1005   1.425   .     A
C998   C1022   1.422   .     A
C998   C438    1.427   1_565 S
C999   C1007   1.423   .     A
C999   C1023   1.419   .     A
C1000  C1024   1.423   .     A
C1002  C706    1.425   1_655 S
C1002  C717    1.419   1_655 S
C1003  C1004   1.416   .     A
C1005  C1006   1.419   1_556 S
C1006  C1005   1.419   1_554 S
C1007  C711    1.422   1_655 S
C1007  C1008   1.416   1_556 S
C1008  C716    1.424   1_655 S
C1008  C1007   1.416   1_554 S
C1009  C1073   1.519   .     S
C1009  C1014   1.404   .     A
C1010  C1013   1.402   .     A
C1010  C1077   1.518   .     S
C1011  C1081   1.520   .     S
C1011  C1016   1.406   .     A
C1012  C1015   1.407   .     A
C1012  C1085   1.519   .     S
C1013  C1089   1.519   .     S
C1014  C1093   1.519   .     S
C1015  C1097   1.519   .     S
C1016  C1101   1.518   .     S
C1017  C1105   1.518   .     S
C1017  C1022   1.402   1_556 S
C1018  C1109   1.519   .     S
C1018  C1021   1.404   1_554 S
C1019  C1113   1.519   .     S
C1019  C1024   1.407   1_556 S
C1020  C1117   1.520   .     S
C1020  C1023   1.406   1_554 S
C1021  C1121   1.519   .     S
C1021  C1018   1.404   1_556 S
C1022  C1125   1.519   .     S
C1022  C1017   1.402   1_554 S
C1023  C1129   1.519   .     S
C1023  C1020   1.406   1_556 S
C1024  C1133   1.519   .     S
C1024  C1019   1.407   1_554 S
N1025  O1026   1.302   .     A
N1025  O1027   1.301   .     A
N1028  O1030   1.301   .     A
N1028  O1029   1.302   .     A
N1031  O1033   1.301   .     A
N1031  O1032   1.302   .     A
N1034  O1035   1.301   .     A
N1034  O468    1.301   1_565 S
N1037  O1039   1.301   .     A
N1037  O1038   1.301   .     A
N1040  O1042   1.301   .     A
N1040  O1041   1.301   .     A
N1043  O1044   1.302   .     A
N1043  O1045   1.301   .     A
N1046  O1047   1.301   .     A
O1048  N478    1.301   1_565 S
N1049  O1051   1.301   .     A
N1049  O1050   1.302   .     A
N1052  O1053   1.302   .     A
N1052  O1054   1.301   .     A
N1055  O1057   1.301   .     A
N1055  O1056   1.301   .     A
N1058  O1059   1.302   .     A
N1058  O1060   1.301   .     A
N1061  O1062   1.301   .     A
N1061  O1063   1.301   .     A
N1064  O1066   1.301   .     A
N1064  O1065   1.301   .     A
N1067  O1069   1.301   .     A
N1067  O1068   1.301   .     A
N1070  O1071   1.302   .     A
N1070  O1072   1.301   .     A
C1073  H1076   1.110   .     S
C1073  H1074   1.109   .     S
C1073  H1075   1.109   .     S
C1077  H1079   1.109   .     S
C1077  H1080   1.110   .     S
C1077  H1078   1.109   .     S
C1081  H1084   1.109   .     S
C1081  H1082   1.110   .     S
C1081  H1083   1.109   .     S
C1085  H1086   1.109   .     S
C1085  H1088   1.110   .     S
C1085  H1087   1.109   .     S
C1089  H1092   1.111   .     S
C1089  H1091   1.109   .     S
C1089  H1090   1.109   .     S
C1093  H1094   1.109   .     S
C1093  H1096   1.111   .     S
C1093  H1095   1.109   .     S
C1097  H1098   1.109   .     S
C1097  H1099   1.109   .     S
C1097  H1100   1.110   .     S
C1101  H1102   1.109   .     S
C1101  H1104   1.109   .     S
C1101  H1103   1.110   .     S
C1105  H1106   1.109   .     S
C1105  H1107   1.109   .     S
C1105  H1108   1.110   .     S
C1109  H1110   1.109   .     S
C1109  H1111   1.109   .     S
C1109  H1112   1.110   .     S
C1113  H1115   1.109   .     S
C1113  H1116   1.109   .     S
C1113  H1114   1.110   .     S
C1117  H1119   1.109   .     S
C1117  H1118   1.110   .     S
C1117  H1120   1.109   .     S
C1121  H1122   1.109   .     S
C1121  H1123   1.109   .     S
C1121  H1124   1.111   .     S
C1125  H1127   1.109   .     S
C1125  H1128   1.111   .     S
C1125  H1126   1.109   .     S
C1129  H1131   1.109   .     S
C1129  H1132   1.109   .     S
C1129  H1130   1.110   .     S
C1133  H1136   1.110   .     S
C1133  H1134   1.109   .     S
C1133  H1135   1.109   .     S
