data_str_m3_o10_o17_pcu_sym.181
_audit_creation_date              2020-01-03
_audit_creation_method            'Materials Studio'
_symmetry_space_group_name_H-M    'P1'
_symmetry_Int_Tables_number       1
_symmetry_cell_setting            triclinic
loop_
_symmetry_equiv_pos_as_xyz
  x,y,z
_cell_length_a                    23.2647
_cell_length_b                    25.7210
_cell_length_c                    29.9468
_cell_angle_alpha                 91.1610
_cell_angle_beta                  85.7866
_cell_angle_gamma                 93.7830
loop_
_atom_site_label
_atom_site_type_symbol
_atom_site_fract_x
_atom_site_fract_y
_atom_site_fract_z
_atom_site_U_iso_or_equiv
_atom_site_adp_type
_atom_site_occupancy
C1     C     0.18197   0.26494   0.24883   0.00000  Uiso   1.00
C2     C     0.15136   0.06840   0.25117   0.00000  Uiso   1.00
C3     C     0.26674   0.20346   0.47253   0.00000  Uiso   1.00
C4     C     0.06660   0.12987   0.02746   0.00000  Uiso   1.00
C5     C     0.19003   0.31944   0.24815   0.00000  Uiso   1.00
C6     C     0.14331   0.01389   0.25185   0.00000  Uiso   1.00
C7     C     0.16739   0.16669   0.33657   0.00000  Uiso   1.00
C8     C     0.16594   0.16664   0.16343   0.00000  Uiso   1.00
C9     C     0.11514   0.14920   0.09513   0.00000  Uiso   1.00
C10    C     0.21819   0.18414   0.40487   0.00000  Uiso   1.00
C11    C     0.16485   0.16744   0.11565   0.00000  Uiso   1.00
C12    C     0.16848   0.16590   0.38435   0.00000  Uiso   1.00
C13    C     0.21474   0.18582   0.09057   0.00000  Uiso   1.00
C14    C     0.11859   0.14752   0.40943   0.00000  Uiso   1.00
C15    C     0.21594   0.18584   0.04435   0.00000  Uiso   1.00
C16    C     0.11740   0.14749   0.45564   0.00000  Uiso   1.00
C17    C     0.16620   0.16700   0.02328   0.00000  Uiso   1.00
C18    C     0.16713   0.16634   0.47672   0.00000  Uiso   1.00
C19    C     0.11558   0.14871   0.04876   0.00000  Uiso   1.00
C20    C     0.21775   0.18462   0.45124   0.00000  Uiso   1.00
C21    C     0.26591   0.20415   0.01892   0.00000  Uiso   1.00
C22    C     0.06742   0.12919   0.48108   0.00000  Uiso   1.00
H23    H     0.25260   0.20026   0.10724   0.00000  Uiso   1.00
H24    H     0.08074   0.13307   0.39276   0.00000  Uiso   1.00
H25    H     0.30578   0.21765   0.45341   0.00000  Uiso   1.00
H26    H     0.02756   0.11569   0.04659   0.00000  Uiso   1.00
H27    H     0.23413   0.00320   0.24461   0.00000  Uiso   1.00
H28    H     0.09921   0.33014   0.25539   0.00000  Uiso   1.00
H29    H     0.00470   0.12764   0.21610   0.00000  Uiso   1.00
H30    H     0.32864   0.20570   0.28390   0.00000  Uiso   1.00
N31    N     0.31678   0.15265   0.23783   0.00000  Uiso   1.00
N32    N     0.01656   0.18068   0.26217   0.00000  Uiso   1.00
O33    O     0.12975   0.24619   0.25298   0.00000  Uiso   1.00
O34    O     0.20358   0.08714   0.24701   0.00000  Uiso   1.00
O35    O     0.22613   0.23721   0.24518   0.00000  Uiso   1.00
O36    O     0.10720   0.09613   0.25481   0.00000  Uiso   1.00
O37    O     0.11847   0.17117   0.31997   0.00000  Uiso   1.00
O38    O     0.21486   0.16216   0.18002   0.00000  Uiso   1.00
O39    O     0.21485   0.16219   0.31217   0.00000  Uiso   1.00
O40    O     0.11848   0.17115   0.18782   0.00000  Uiso   1.00
Zn41   Zn    0.10231   0.17266   0.25521   0.00000  Uiso   1.00
Zn42   Zn    0.23102   0.16067   0.24479   0.00000  Uiso   1.00
F43    F     0.06728   0.13046   0.12009   0.00000  Uiso   1.00
F44    F     0.26606   0.20287   0.37991   0.00000  Uiso   1.00
F45    F     0.31385   0.22274   0.03886   0.00000  Uiso   1.00
F46    F     0.01948   0.11059   0.46114   0.00000  Uiso   1.00
C47    C     0.51531   0.26494   0.24883   0.00000  Uiso   1.00
C48    C     0.48469   0.06840   0.25117   0.00000  Uiso   1.00
C49    C     0.60007   0.20346   0.47253   0.00000  Uiso   1.00
C50    C     0.39993   0.12987   0.02746   0.00000  Uiso   1.00
C51    C     0.52336   0.31944   0.24815   0.00000  Uiso   1.00
C52    C     0.47664   0.01389   0.25185   0.00000  Uiso   1.00
C53    C     0.50073   0.16669   0.33657   0.00000  Uiso   1.00
C54    C     0.49927   0.16664   0.16343   0.00000  Uiso   1.00
C55    C     0.44847   0.14920   0.09513   0.00000  Uiso   1.00
C56    C     0.55153   0.18414   0.40487   0.00000  Uiso   1.00
C57    C     0.49819   0.16744   0.11565   0.00000  Uiso   1.00
C58    C     0.50181   0.16590   0.38435   0.00000  Uiso   1.00
C59    C     0.54808   0.18582   0.09057   0.00000  Uiso   1.00
C60    C     0.45192   0.14752   0.40943   0.00000  Uiso   1.00
C61    C     0.54927   0.18584   0.04435   0.00000  Uiso   1.00
C62    C     0.45073   0.14749   0.45564   0.00000  Uiso   1.00
C63    C     0.49954   0.16700   0.02328   0.00000  Uiso   1.00
C64    C     0.50046   0.16634   0.47672   0.00000  Uiso   1.00
C65    C     0.44891   0.14871   0.04876   0.00000  Uiso   1.00
C66    C     0.55109   0.18462   0.45124   0.00000  Uiso   1.00
C67    C     0.59924   0.20415   0.01892   0.00000  Uiso   1.00
C68    C     0.40076   0.12919   0.48108   0.00000  Uiso   1.00
H69    H     0.58593   0.20026   0.10724   0.00000  Uiso   1.00
H70    H     0.41407   0.13307   0.39276   0.00000  Uiso   1.00
H71    H     0.63911   0.21765   0.45341   0.00000  Uiso   1.00
H72    H     0.36089   0.11569   0.04659   0.00000  Uiso   1.00
H73    H     0.56746   0.00320   0.24461   0.00000  Uiso   1.00
H74    H     0.43254   0.33014   0.25539   0.00000  Uiso   1.00
H75    H     0.33803   0.12764   0.21610   0.00000  Uiso   1.00
H76    H     0.66197   0.20570   0.28390   0.00000  Uiso   1.00
N77    N     0.65011   0.15265   0.23783   0.00000  Uiso   1.00
N78    N     0.34989   0.18068   0.26217   0.00000  Uiso   1.00
O79    O     0.46308   0.24619   0.25298   0.00000  Uiso   1.00
O80    O     0.53692   0.08714   0.24701   0.00000  Uiso   1.00
O81    O     0.55946   0.23721   0.24518   0.00000  Uiso   1.00
O82    O     0.44054   0.09613   0.25481   0.00000  Uiso   1.00
O83    O     0.45181   0.17117   0.31997   0.00000  Uiso   1.00
O84    O     0.54819   0.16216   0.18002   0.00000  Uiso   1.00
O85    O     0.54819   0.16219   0.31217   0.00000  Uiso   1.00
O86    O     0.45181   0.17115   0.18782   0.00000  Uiso   1.00
Zn87   Zn    0.43565   0.17266   0.25521   0.00000  Uiso   1.00
Zn88   Zn    0.56435   0.16067   0.24479   0.00000  Uiso   1.00
F89    F     0.40061   0.13046   0.12009   0.00000  Uiso   1.00
F90    F     0.59939   0.20287   0.37991   0.00000  Uiso   1.00
F91    F     0.64719   0.22274   0.03886   0.00000  Uiso   1.00
F92    F     0.35281   0.11059   0.46114   0.00000  Uiso   1.00
C93    C     0.84864   0.26494   0.24883   0.00000  Uiso   1.00
C94    C     0.81803   0.06840   0.25117   0.00000  Uiso   1.00
C95    C     0.93340   0.20346   0.47253   0.00000  Uiso   1.00
C96    C     0.73326   0.12987   0.02746   0.00000  Uiso   1.00
C97    C     0.85669   0.31944   0.24815   0.00000  Uiso   1.00
C98    C     0.80997   0.01389   0.25185   0.00000  Uiso   1.00
C99    C     0.83406   0.16669   0.33657   0.00000  Uiso   1.00
C100   C     0.83261   0.16664   0.16343   0.00000  Uiso   1.00
C101   C     0.78181   0.14920   0.09513   0.00000  Uiso   1.00
C102   C     0.88486   0.18414   0.40487   0.00000  Uiso   1.00
C103   C     0.83152   0.16744   0.11565   0.00000  Uiso   1.00
C104   C     0.83515   0.16590   0.38435   0.00000  Uiso   1.00
C105   C     0.88141   0.18582   0.09057   0.00000  Uiso   1.00
C106   C     0.78526   0.14752   0.40943   0.00000  Uiso   1.00
C107   C     0.88260   0.18584   0.04435   0.00000  Uiso   1.00
C108   C     0.78406   0.14749   0.45564   0.00000  Uiso   1.00
C109   C     0.83287   0.16700   0.02328   0.00000  Uiso   1.00
C110   C     0.83380   0.16634   0.47672   0.00000  Uiso   1.00
C111   C     0.78224   0.14871   0.04876   0.00000  Uiso   1.00
C112   C     0.88442   0.18462   0.45124   0.00000  Uiso   1.00
C113   C     0.93258   0.20415   0.01892   0.00000  Uiso   1.00
C114   C     0.73409   0.12919   0.48108   0.00000  Uiso   1.00
H115   H     0.91927   0.20026   0.10724   0.00000  Uiso   1.00
H116   H     0.74740   0.13307   0.39276   0.00000  Uiso   1.00
H117   H     0.97244   0.21765   0.45341   0.00000  Uiso   1.00
H118   H     0.69422   0.11569   0.04659   0.00000  Uiso   1.00
H119   H     0.90079   0.00320   0.24461   0.00000  Uiso   1.00
H120   H     0.76587   0.33014   0.25539   0.00000  Uiso   1.00
H121   H     0.67136   0.12764   0.21610   0.00000  Uiso   1.00
H122   H     0.99530   0.20570   0.28390   0.00000  Uiso   1.00
N123   N     0.98344   0.15265   0.23783   0.00000  Uiso   1.00
N124   N     0.68322   0.18068   0.26217   0.00000  Uiso   1.00
O125   O     0.79642   0.24619   0.25298   0.00000  Uiso   1.00
O126   O     0.87025   0.08714   0.24701   0.00000  Uiso   1.00
O127   O     0.89280   0.23721   0.24518   0.00000  Uiso   1.00
O128   O     0.77387   0.09613   0.25481   0.00000  Uiso   1.00
O129   O     0.78514   0.17117   0.31997   0.00000  Uiso   1.00
O130   O     0.88153   0.16216   0.18002   0.00000  Uiso   1.00
O131   O     0.88152   0.16219   0.31217   0.00000  Uiso   1.00
O132   O     0.78515   0.17115   0.18782   0.00000  Uiso   1.00
Zn133  Zn    0.76898   0.17266   0.25521   0.00000  Uiso   1.00
Zn134  Zn    0.89769   0.16067   0.24479   0.00000  Uiso   1.00
F135   F     0.73394   0.13046   0.12009   0.00000  Uiso   1.00
F136   F     0.93272   0.20287   0.37991   0.00000  Uiso   1.00
F137   F     0.98052   0.22274   0.03886   0.00000  Uiso   1.00
F138   F     0.68615   0.11059   0.46114   0.00000  Uiso   1.00
C139   C     0.18197   0.59827   0.24883   0.00000  Uiso   1.00
C140   C     0.15136   0.40173   0.25117   0.00000  Uiso   1.00
C141   C     0.26674   0.53680   0.47253   0.00000  Uiso   1.00
C142   C     0.06660   0.46321   0.02746   0.00000  Uiso   1.00
C143   C     0.19003   0.65278   0.24815   0.00000  Uiso   1.00
C144   C     0.14331   0.34722   0.25185   0.00000  Uiso   1.00
C145   C     0.16739   0.50002   0.33657   0.00000  Uiso   1.00
C146   C     0.16594   0.49998   0.16343   0.00000  Uiso   1.00
C147   C     0.11514   0.48253   0.09513   0.00000  Uiso   1.00
C148   C     0.21819   0.51747   0.40487   0.00000  Uiso   1.00
C149   C     0.16485   0.50077   0.11565   0.00000  Uiso   1.00
C150   C     0.16848   0.49923   0.38435   0.00000  Uiso   1.00
C151   C     0.21474   0.51915   0.09057   0.00000  Uiso   1.00
C152   C     0.11859   0.48085   0.40943   0.00000  Uiso   1.00
C153   C     0.21594   0.51917   0.04435   0.00000  Uiso   1.00
C154   C     0.11740   0.48083   0.45564   0.00000  Uiso   1.00
C155   C     0.16620   0.50033   0.02328   0.00000  Uiso   1.00
C156   C     0.16713   0.49967   0.47672   0.00000  Uiso   1.00
C157   C     0.11558   0.48205   0.04876   0.00000  Uiso   1.00
C158   C     0.21775   0.51795   0.45124   0.00000  Uiso   1.00
C159   C     0.26591   0.53748   0.01892   0.00000  Uiso   1.00
C160   C     0.06742   0.46252   0.48108   0.00000  Uiso   1.00
H161   H     0.25260   0.53359   0.10724   0.00000  Uiso   1.00
H162   H     0.08074   0.46641   0.39276   0.00000  Uiso   1.00
H163   H     0.30578   0.55098   0.45341   0.00000  Uiso   1.00
H164   H     0.02756   0.44902   0.04659   0.00000  Uiso   1.00
H165   H     0.23413   0.33653   0.24461   0.00000  Uiso   1.00
H166   H     0.09921   0.66347   0.25539   0.00000  Uiso   1.00
H167   H     0.00470   0.46097   0.21610   0.00000  Uiso   1.00
H168   H     0.32864   0.53903   0.28390   0.00000  Uiso   1.00
N169   N     0.31678   0.48598   0.23783   0.00000  Uiso   1.00
N170   N     0.01656   0.51402   0.26217   0.00000  Uiso   1.00
O171   O     0.12975   0.57952   0.25298   0.00000  Uiso   1.00
O172   O     0.20358   0.42048   0.24701   0.00000  Uiso   1.00
O173   O     0.22613   0.57054   0.24518   0.00000  Uiso   1.00
O174   O     0.10720   0.42946   0.25481   0.00000  Uiso   1.00
O175   O     0.11847   0.50450   0.31997   0.00000  Uiso   1.00
O176   O     0.21486   0.49550   0.18002   0.00000  Uiso   1.00
O177   O     0.21485   0.49552   0.31217   0.00000  Uiso   1.00
O178   O     0.11848   0.50448   0.18782   0.00000  Uiso   1.00
Zn179  Zn    0.10231   0.50600   0.25521   0.00000  Uiso   1.00
Zn180  Zn    0.23102   0.49400   0.24479   0.00000  Uiso   1.00
F181   F     0.06728   0.46379   0.12009   0.00000  Uiso   1.00
F182   F     0.26606   0.53621   0.37991   0.00000  Uiso   1.00
F183   F     0.31385   0.55607   0.03886   0.00000  Uiso   1.00
F184   F     0.01948   0.44392   0.46114   0.00000  Uiso   1.00
C185   C     0.51531   0.59827   0.24883   0.00000  Uiso   1.00
C186   C     0.48469   0.40173   0.25117   0.00000  Uiso   1.00
C187   C     0.60007   0.53680   0.47253   0.00000  Uiso   1.00
C188   C     0.39993   0.46321   0.02746   0.00000  Uiso   1.00
C189   C     0.52336   0.65278   0.24815   0.00000  Uiso   1.00
C190   C     0.47664   0.34722   0.25185   0.00000  Uiso   1.00
C191   C     0.50073   0.50002   0.33657   0.00000  Uiso   1.00
C192   C     0.49927   0.49998   0.16343   0.00000  Uiso   1.00
C193   C     0.44847   0.48253   0.09513   0.00000  Uiso   1.00
C194   C     0.55153   0.51747   0.40487   0.00000  Uiso   1.00
C195   C     0.49819   0.50077   0.11565   0.00000  Uiso   1.00
C196   C     0.50181   0.49923   0.38435   0.00000  Uiso   1.00
C197   C     0.54808   0.51915   0.09057   0.00000  Uiso   1.00
C198   C     0.45192   0.48085   0.40943   0.00000  Uiso   1.00
C199   C     0.54927   0.51917   0.04435   0.00000  Uiso   1.00
C200   C     0.45073   0.48083   0.45564   0.00000  Uiso   1.00
C201   C     0.49954   0.50033   0.02328   0.00000  Uiso   1.00
C202   C     0.50046   0.49967   0.47672   0.00000  Uiso   1.00
C203   C     0.44891   0.48205   0.04876   0.00000  Uiso   1.00
C204   C     0.55109   0.51795   0.45124   0.00000  Uiso   1.00
C205   C     0.59924   0.53748   0.01892   0.00000  Uiso   1.00
C206   C     0.40076   0.46252   0.48108   0.00000  Uiso   1.00
H207   H     0.58593   0.53359   0.10724   0.00000  Uiso   1.00
H208   H     0.41407   0.46641   0.39276   0.00000  Uiso   1.00
H209   H     0.63911   0.55098   0.45341   0.00000  Uiso   1.00
H210   H     0.36089   0.44902   0.04659   0.00000  Uiso   1.00
H211   H     0.56746   0.33653   0.24461   0.00000  Uiso   1.00
H212   H     0.43254   0.66347   0.25539   0.00000  Uiso   1.00
H213   H     0.33803   0.46097   0.21610   0.00000  Uiso   1.00
H214   H     0.66197   0.53903   0.28390   0.00000  Uiso   1.00
N215   N     0.65011   0.48598   0.23783   0.00000  Uiso   1.00
N216   N     0.34989   0.51402   0.26217   0.00000  Uiso   1.00
O217   O     0.46308   0.57952   0.25298   0.00000  Uiso   1.00
O218   O     0.53692   0.42048   0.24701   0.00000  Uiso   1.00
O219   O     0.55946   0.57054   0.24518   0.00000  Uiso   1.00
O220   O     0.44054   0.42946   0.25481   0.00000  Uiso   1.00
O221   O     0.45181   0.50450   0.31997   0.00000  Uiso   1.00
O222   O     0.54819   0.49550   0.18002   0.00000  Uiso   1.00
O223   O     0.54819   0.49552   0.31217   0.00000  Uiso   1.00
O224   O     0.45181   0.50448   0.18782   0.00000  Uiso   1.00
Zn225  Zn    0.43565   0.50600   0.25521   0.00000  Uiso   1.00
Zn226  Zn    0.56435   0.49400   0.24479   0.00000  Uiso   1.00
F227   F     0.40061   0.46379   0.12009   0.00000  Uiso   1.00
F228   F     0.59939   0.53621   0.37991   0.00000  Uiso   1.00
F229   F     0.64719   0.55607   0.03886   0.00000  Uiso   1.00
F230   F     0.35281   0.44392   0.46114   0.00000  Uiso   1.00
C231   C     0.84864   0.59827   0.24883   0.00000  Uiso   1.00
C232   C     0.81803   0.40173   0.25117   0.00000  Uiso   1.00
C233   C     0.93340   0.53680   0.47253   0.00000  Uiso   1.00
C234   C     0.73326   0.46321   0.02746   0.00000  Uiso   1.00
C235   C     0.85669   0.65278   0.24815   0.00000  Uiso   1.00
C236   C     0.80997   0.34722   0.25185   0.00000  Uiso   1.00
C237   C     0.83406   0.50002   0.33657   0.00000  Uiso   1.00
C238   C     0.83261   0.49998   0.16343   0.00000  Uiso   1.00
C239   C     0.78181   0.48253   0.09513   0.00000  Uiso   1.00
C240   C     0.88486   0.51747   0.40487   0.00000  Uiso   1.00
C241   C     0.83152   0.50077   0.11565   0.00000  Uiso   1.00
C242   C     0.83515   0.49923   0.38435   0.00000  Uiso   1.00
C243   C     0.88141   0.51915   0.09057   0.00000  Uiso   1.00
C244   C     0.78526   0.48085   0.40943   0.00000  Uiso   1.00
C245   C     0.88260   0.51917   0.04435   0.00000  Uiso   1.00
C246   C     0.78406   0.48083   0.45564   0.00000  Uiso   1.00
C247   C     0.83287   0.50033   0.02328   0.00000  Uiso   1.00
C248   C     0.83380   0.49967   0.47672   0.00000  Uiso   1.00
C249   C     0.78224   0.48205   0.04876   0.00000  Uiso   1.00
C250   C     0.88442   0.51795   0.45124   0.00000  Uiso   1.00
C251   C     0.93258   0.53748   0.01892   0.00000  Uiso   1.00
C252   C     0.73409   0.46252   0.48108   0.00000  Uiso   1.00
H253   H     0.91927   0.53359   0.10724   0.00000  Uiso   1.00
H254   H     0.74740   0.46641   0.39276   0.00000  Uiso   1.00
H255   H     0.97244   0.55098   0.45341   0.00000  Uiso   1.00
H256   H     0.69422   0.44902   0.04659   0.00000  Uiso   1.00
H257   H     0.90079   0.33653   0.24461   0.00000  Uiso   1.00
H258   H     0.76587   0.66347   0.25539   0.00000  Uiso   1.00
H259   H     0.67136   0.46097   0.21610   0.00000  Uiso   1.00
H260   H     0.99530   0.53903   0.28390   0.00000  Uiso   1.00
N261   N     0.98344   0.48598   0.23783   0.00000  Uiso   1.00
N262   N     0.68322   0.51402   0.26217   0.00000  Uiso   1.00
O263   O     0.79642   0.57952   0.25298   0.00000  Uiso   1.00
O264   O     0.87025   0.42048   0.24701   0.00000  Uiso   1.00
O265   O     0.89280   0.57054   0.24518   0.00000  Uiso   1.00
O266   O     0.77387   0.42946   0.25481   0.00000  Uiso   1.00
O267   O     0.78514   0.50450   0.31997   0.00000  Uiso   1.00
O268   O     0.88153   0.49550   0.18002   0.00000  Uiso   1.00
O269   O     0.88152   0.49552   0.31217   0.00000  Uiso   1.00
O270   O     0.78515   0.50448   0.18782   0.00000  Uiso   1.00
Zn271  Zn    0.76898   0.50600   0.25521   0.00000  Uiso   1.00
Zn272  Zn    0.89769   0.49400   0.24479   0.00000  Uiso   1.00
F273   F     0.73394   0.46379   0.12009   0.00000  Uiso   1.00
F274   F     0.93272   0.53621   0.37991   0.00000  Uiso   1.00
F275   F     0.98052   0.55607   0.03886   0.00000  Uiso   1.00
F276   F     0.68615   0.44392   0.46114   0.00000  Uiso   1.00
C277   C     0.18197   0.93160   0.24883   0.00000  Uiso   1.00
C278   C     0.15136   0.73506   0.25117   0.00000  Uiso   1.00
C279   C     0.26674   0.87013   0.47253   0.00000  Uiso   1.00
C280   C     0.06660   0.79654   0.02746   0.00000  Uiso   1.00
C281   C     0.19003   0.98611   0.24815   0.00000  Uiso   1.00
C282   C     0.14331   0.68056   0.25185   0.00000  Uiso   1.00
C283   C     0.16739   0.83336   0.33657   0.00000  Uiso   1.00
C284   C     0.16594   0.83331   0.16343   0.00000  Uiso   1.00
C285   C     0.11514   0.81586   0.09513   0.00000  Uiso   1.00
C286   C     0.21819   0.85080   0.40487   0.00000  Uiso   1.00
C287   C     0.16485   0.83410   0.11565   0.00000  Uiso   1.00
C288   C     0.16848   0.83257   0.38435   0.00000  Uiso   1.00
C289   C     0.21474   0.85248   0.09057   0.00000  Uiso   1.00
C290   C     0.11859   0.81418   0.40943   0.00000  Uiso   1.00
C291   C     0.21594   0.85251   0.04435   0.00000  Uiso   1.00
C292   C     0.11740   0.81416   0.45564   0.00000  Uiso   1.00
C293   C     0.16620   0.83366   0.02328   0.00000  Uiso   1.00
C294   C     0.16713   0.83301   0.47672   0.00000  Uiso   1.00
C295   C     0.11558   0.81538   0.04876   0.00000  Uiso   1.00
C296   C     0.21775   0.85129   0.45124   0.00000  Uiso   1.00
C297   C     0.26591   0.87081   0.01892   0.00000  Uiso   1.00
C298   C     0.06742   0.79585   0.48108   0.00000  Uiso   1.00
H299   H     0.25260   0.86692   0.10724   0.00000  Uiso   1.00
H300   H     0.08074   0.79974   0.39276   0.00000  Uiso   1.00
H301   H     0.30578   0.88431   0.45341   0.00000  Uiso   1.00
H302   H     0.02756   0.78235   0.04659   0.00000  Uiso   1.00
H303   H     0.23413   0.66986   0.24461   0.00000  Uiso   1.00
H304   H     0.09921   0.99680   0.25539   0.00000  Uiso   1.00
H305   H     0.00470   0.79430   0.21610   0.00000  Uiso   1.00
H306   H     0.32864   0.87236   0.28390   0.00000  Uiso   1.00
N307   N     0.31678   0.81932   0.23783   0.00000  Uiso   1.00
N308   N     0.01656   0.84735   0.26217   0.00000  Uiso   1.00
O309   O     0.12975   0.91286   0.25298   0.00000  Uiso   1.00
O310   O     0.20358   0.75381   0.24701   0.00000  Uiso   1.00
O311   O     0.22613   0.90387   0.24518   0.00000  Uiso   1.00
O312   O     0.10720   0.76279   0.25481   0.00000  Uiso   1.00
O313   O     0.11847   0.83784   0.31997   0.00000  Uiso   1.00
O314   O     0.21486   0.82883   0.18002   0.00000  Uiso   1.00
O315   O     0.21485   0.82885   0.31217   0.00000  Uiso   1.00
O316   O     0.11848   0.83781   0.18782   0.00000  Uiso   1.00
Zn317  Zn    0.10231   0.83933   0.25521   0.00000  Uiso   1.00
Zn318  Zn    0.23102   0.82734   0.24479   0.00000  Uiso   1.00
F319   F     0.06728   0.79713   0.12009   0.00000  Uiso   1.00
F320   F     0.26606   0.86954   0.37991   0.00000  Uiso   1.00
F321   F     0.31385   0.88941   0.03886   0.00000  Uiso   1.00
F322   F     0.01948   0.77726   0.46114   0.00000  Uiso   1.00
C323   C     0.51531   0.93160   0.24883   0.00000  Uiso   1.00
C324   C     0.48469   0.73506   0.25117   0.00000  Uiso   1.00
C325   C     0.60007   0.87013   0.47253   0.00000  Uiso   1.00
C326   C     0.39993   0.79654   0.02746   0.00000  Uiso   1.00
C327   C     0.52336   0.98611   0.24815   0.00000  Uiso   1.00
C328   C     0.47664   0.68056   0.25185   0.00000  Uiso   1.00
C329   C     0.50073   0.83336   0.33657   0.00000  Uiso   1.00
C330   C     0.49927   0.83331   0.16343   0.00000  Uiso   1.00
C331   C     0.44847   0.81586   0.09513   0.00000  Uiso   1.00
C332   C     0.55153   0.85080   0.40487   0.00000  Uiso   1.00
C333   C     0.49819   0.83410   0.11565   0.00000  Uiso   1.00
C334   C     0.50181   0.83257   0.38435   0.00000  Uiso   1.00
C335   C     0.54808   0.85248   0.09057   0.00000  Uiso   1.00
C336   C     0.45192   0.81418   0.40943   0.00000  Uiso   1.00
C337   C     0.54927   0.85251   0.04435   0.00000  Uiso   1.00
C338   C     0.45073   0.81416   0.45564   0.00000  Uiso   1.00
C339   C     0.49954   0.83366   0.02328   0.00000  Uiso   1.00
C340   C     0.50046   0.83301   0.47672   0.00000  Uiso   1.00
C341   C     0.44891   0.81538   0.04876   0.00000  Uiso   1.00
C342   C     0.55109   0.85129   0.45124   0.00000  Uiso   1.00
C343   C     0.59924   0.87081   0.01892   0.00000  Uiso   1.00
C344   C     0.40076   0.79585   0.48108   0.00000  Uiso   1.00
H345   H     0.58593   0.86692   0.10724   0.00000  Uiso   1.00
H346   H     0.41407   0.79974   0.39276   0.00000  Uiso   1.00
H347   H     0.63911   0.88431   0.45341   0.00000  Uiso   1.00
H348   H     0.36089   0.78235   0.04659   0.00000  Uiso   1.00
H349   H     0.56746   0.66986   0.24461   0.00000  Uiso   1.00
H350   H     0.43254   0.99680   0.25539   0.00000  Uiso   1.00
H351   H     0.33803   0.79430   0.21610   0.00000  Uiso   1.00
H352   H     0.66197   0.87236   0.28390   0.00000  Uiso   1.00
N353   N     0.65011   0.81932   0.23783   0.00000  Uiso   1.00
N354   N     0.34989   0.84735   0.26217   0.00000  Uiso   1.00
O355   O     0.46308   0.91286   0.25298   0.00000  Uiso   1.00
O356   O     0.53692   0.75381   0.24701   0.00000  Uiso   1.00
O357   O     0.55946   0.90387   0.24518   0.00000  Uiso   1.00
O358   O     0.44054   0.76279   0.25481   0.00000  Uiso   1.00
O359   O     0.45181   0.83784   0.31997   0.00000  Uiso   1.00
O360   O     0.54819   0.82883   0.18002   0.00000  Uiso   1.00
O361   O     0.54819   0.82885   0.31217   0.00000  Uiso   1.00
O362   O     0.45181   0.83781   0.18782   0.00000  Uiso   1.00
Zn363  Zn    0.43565   0.83933   0.25521   0.00000  Uiso   1.00
Zn364  Zn    0.56435   0.82734   0.24479   0.00000  Uiso   1.00
F365   F     0.40061   0.79713   0.12009   0.00000  Uiso   1.00
F366   F     0.59939   0.86954   0.37991   0.00000  Uiso   1.00
F367   F     0.64719   0.88941   0.03886   0.00000  Uiso   1.00
F368   F     0.35281   0.77726   0.46114   0.00000  Uiso   1.00
C369   C     0.84864   0.93160   0.24883   0.00000  Uiso   1.00
C370   C     0.81803   0.73506   0.25117   0.00000  Uiso   1.00
C371   C     0.93340   0.87013   0.47253   0.00000  Uiso   1.00
C372   C     0.73326   0.79654   0.02746   0.00000  Uiso   1.00
C373   C     0.85669   0.98611   0.24815   0.00000  Uiso   1.00
C374   C     0.80997   0.68056   0.25185   0.00000  Uiso   1.00
C375   C     0.83406   0.83336   0.33657   0.00000  Uiso   1.00
C376   C     0.83261   0.83331   0.16343   0.00000  Uiso   1.00
C377   C     0.78181   0.81586   0.09513   0.00000  Uiso   1.00
C378   C     0.88486   0.85080   0.40487   0.00000  Uiso   1.00
C379   C     0.83152   0.83410   0.11565   0.00000  Uiso   1.00
C380   C     0.83515   0.83257   0.38435   0.00000  Uiso   1.00
C381   C     0.88141   0.85248   0.09057   0.00000  Uiso   1.00
C382   C     0.78526   0.81418   0.40943   0.00000  Uiso   1.00
C383   C     0.88260   0.85251   0.04435   0.00000  Uiso   1.00
C384   C     0.78406   0.81416   0.45564   0.00000  Uiso   1.00
C385   C     0.83287   0.83366   0.02328   0.00000  Uiso   1.00
C386   C     0.83380   0.83301   0.47672   0.00000  Uiso   1.00
C387   C     0.78224   0.81538   0.04876   0.00000  Uiso   1.00
C388   C     0.88442   0.85129   0.45124   0.00000  Uiso   1.00
C389   C     0.93258   0.87081   0.01892   0.00000  Uiso   1.00
C390   C     0.73409   0.79585   0.48108   0.00000  Uiso   1.00
H391   H     0.91927   0.86692   0.10724   0.00000  Uiso   1.00
H392   H     0.74740   0.79974   0.39276   0.00000  Uiso   1.00
H393   H     0.97244   0.88431   0.45341   0.00000  Uiso   1.00
H394   H     0.69422   0.78235   0.04659   0.00000  Uiso   1.00
H395   H     0.90079   0.66986   0.24461   0.00000  Uiso   1.00
H396   H     0.76587   0.99680   0.25539   0.00000  Uiso   1.00
H397   H     0.67136   0.79430   0.21610   0.00000  Uiso   1.00
H398   H     0.99530   0.87236   0.28390   0.00000  Uiso   1.00
N399   N     0.98344   0.81932   0.23783   0.00000  Uiso   1.00
N400   N     0.68322   0.84735   0.26217   0.00000  Uiso   1.00
O401   O     0.79642   0.91286   0.25298   0.00000  Uiso   1.00
O402   O     0.87025   0.75381   0.24701   0.00000  Uiso   1.00
O403   O     0.89280   0.90387   0.24518   0.00000  Uiso   1.00
O404   O     0.77387   0.76279   0.25481   0.00000  Uiso   1.00
O405   O     0.78514   0.83784   0.31997   0.00000  Uiso   1.00
O406   O     0.88153   0.82883   0.18002   0.00000  Uiso   1.00
O407   O     0.88152   0.82885   0.31217   0.00000  Uiso   1.00
O408   O     0.78515   0.83781   0.18782   0.00000  Uiso   1.00
Zn409  Zn    0.76898   0.83933   0.25521   0.00000  Uiso   1.00
Zn410  Zn    0.89769   0.82734   0.24479   0.00000  Uiso   1.00
F411   F     0.73394   0.79713   0.12009   0.00000  Uiso   1.00
F412   F     0.93272   0.86954   0.37991   0.00000  Uiso   1.00
F413   F     0.98052   0.88941   0.03886   0.00000  Uiso   1.00
F414   F     0.68615   0.77726   0.46114   0.00000  Uiso   1.00
C415   C     0.18197   0.26494   0.74883   0.00000  Uiso   1.00
C416   C     0.15136   0.06840   0.75117   0.00000  Uiso   1.00
C417   C     0.26674   0.20346   0.97253   0.00000  Uiso   1.00
C418   C     0.06660   0.12987   0.52746   0.00000  Uiso   1.00
C419   C     0.19003   0.31944   0.74815   0.00000  Uiso   1.00
C420   C     0.14331   0.01389   0.75185   0.00000  Uiso   1.00
C421   C     0.16739   0.16669   0.83657   0.00000  Uiso   1.00
C422   C     0.16594   0.16664   0.66343   0.00000  Uiso   1.00
C423   C     0.11514   0.14920   0.59513   0.00000  Uiso   1.00
C424   C     0.21819   0.18414   0.90487   0.00000  Uiso   1.00
C425   C     0.16485   0.16744   0.61565   0.00000  Uiso   1.00
C426   C     0.16848   0.16590   0.88435   0.00000  Uiso   1.00
C427   C     0.21474   0.18582   0.59057   0.00000  Uiso   1.00
C428   C     0.11859   0.14752   0.90943   0.00000  Uiso   1.00
C429   C     0.21594   0.18584   0.54435   0.00000  Uiso   1.00
C430   C     0.11740   0.14749   0.95564   0.00000  Uiso   1.00
C431   C     0.16620   0.16700   0.52328   0.00000  Uiso   1.00
C432   C     0.16713   0.16634   0.97672   0.00000  Uiso   1.00
C433   C     0.11558   0.14871   0.54876   0.00000  Uiso   1.00
C434   C     0.21775   0.18462   0.95124   0.00000  Uiso   1.00
C435   C     0.26591   0.20415   0.51892   0.00000  Uiso   1.00
C436   C     0.06742   0.12919   0.98108   0.00000  Uiso   1.00
H437   H     0.25260   0.20026   0.60724   0.00000  Uiso   1.00
H438   H     0.08074   0.13307   0.89276   0.00000  Uiso   1.00
H439   H     0.30578   0.21765   0.95341   0.00000  Uiso   1.00
H440   H     0.02756   0.11569   0.54659   0.00000  Uiso   1.00
H441   H     0.23413   0.00320   0.74461   0.00000  Uiso   1.00
H442   H     0.09921   0.33014   0.75539   0.00000  Uiso   1.00
H443   H     0.00470   0.12764   0.71610   0.00000  Uiso   1.00
H444   H     0.32864   0.20570   0.78390   0.00000  Uiso   1.00
N445   N     0.31678   0.15265   0.73783   0.00000  Uiso   1.00
N446   N     0.01656   0.18068   0.76217   0.00000  Uiso   1.00
O447   O     0.12975   0.24619   0.75298   0.00000  Uiso   1.00
O448   O     0.20358   0.08714   0.74701   0.00000  Uiso   1.00
O449   O     0.22613   0.23721   0.74518   0.00000  Uiso   1.00
O450   O     0.10720   0.09613   0.75481   0.00000  Uiso   1.00
O451   O     0.11847   0.17117   0.81997   0.00000  Uiso   1.00
O452   O     0.21486   0.16216   0.68002   0.00000  Uiso   1.00
O453   O     0.21485   0.16219   0.81217   0.00000  Uiso   1.00
O454   O     0.11848   0.17115   0.68782   0.00000  Uiso   1.00
Zn455  Zn    0.10231   0.17266   0.75521   0.00000  Uiso   1.00
Zn456  Zn    0.23102   0.16067   0.74479   0.00000  Uiso   1.00
F457   F     0.06728   0.13046   0.62009   0.00000  Uiso   1.00
F458   F     0.26606   0.20287   0.87991   0.00000  Uiso   1.00
F459   F     0.31385   0.22274   0.53886   0.00000  Uiso   1.00
F460   F     0.01948   0.11059   0.96114   0.00000  Uiso   1.00
C461   C     0.51531   0.26494   0.74883   0.00000  Uiso   1.00
C462   C     0.48469   0.06840   0.75117   0.00000  Uiso   1.00
C463   C     0.60007   0.20346   0.97253   0.00000  Uiso   1.00
C464   C     0.39993   0.12987   0.52746   0.00000  Uiso   1.00
C465   C     0.52336   0.31944   0.74815   0.00000  Uiso   1.00
C466   C     0.47664   0.01389   0.75185   0.00000  Uiso   1.00
C467   C     0.50073   0.16669   0.83657   0.00000  Uiso   1.00
C468   C     0.49927   0.16664   0.66343   0.00000  Uiso   1.00
C469   C     0.44847   0.14920   0.59513   0.00000  Uiso   1.00
C470   C     0.55153   0.18414   0.90487   0.00000  Uiso   1.00
C471   C     0.49819   0.16744   0.61565   0.00000  Uiso   1.00
C472   C     0.50181   0.16590   0.88435   0.00000  Uiso   1.00
C473   C     0.54808   0.18582   0.59057   0.00000  Uiso   1.00
C474   C     0.45192   0.14752   0.90943   0.00000  Uiso   1.00
C475   C     0.54927   0.18584   0.54435   0.00000  Uiso   1.00
C476   C     0.45073   0.14749   0.95564   0.00000  Uiso   1.00
C477   C     0.49954   0.16700   0.52328   0.00000  Uiso   1.00
C478   C     0.50046   0.16634   0.97672   0.00000  Uiso   1.00
C479   C     0.44891   0.14871   0.54876   0.00000  Uiso   1.00
C480   C     0.55109   0.18462   0.95124   0.00000  Uiso   1.00
C481   C     0.59924   0.20415   0.51892   0.00000  Uiso   1.00
C482   C     0.40076   0.12919   0.98108   0.00000  Uiso   1.00
H483   H     0.58593   0.20026   0.60724   0.00000  Uiso   1.00
H484   H     0.41407   0.13307   0.89276   0.00000  Uiso   1.00
H485   H     0.63911   0.21765   0.95341   0.00000  Uiso   1.00
H486   H     0.36089   0.11569   0.54659   0.00000  Uiso   1.00
H487   H     0.56746   0.00320   0.74461   0.00000  Uiso   1.00
H488   H     0.43254   0.33014   0.75539   0.00000  Uiso   1.00
H489   H     0.33803   0.12764   0.71610   0.00000  Uiso   1.00
H490   H     0.66197   0.20570   0.78390   0.00000  Uiso   1.00
N491   N     0.65011   0.15265   0.73783   0.00000  Uiso   1.00
N492   N     0.34989   0.18068   0.76217   0.00000  Uiso   1.00
O493   O     0.46308   0.24619   0.75298   0.00000  Uiso   1.00
O494   O     0.53692   0.08714   0.74701   0.00000  Uiso   1.00
O495   O     0.55946   0.23721   0.74518   0.00000  Uiso   1.00
O496   O     0.44054   0.09613   0.75481   0.00000  Uiso   1.00
O497   O     0.45181   0.17117   0.81997   0.00000  Uiso   1.00
O498   O     0.54819   0.16216   0.68002   0.00000  Uiso   1.00
O499   O     0.54819   0.16219   0.81217   0.00000  Uiso   1.00
O500   O     0.45181   0.17115   0.68782   0.00000  Uiso   1.00
Zn501  Zn    0.43565   0.17266   0.75521   0.00000  Uiso   1.00
Zn502  Zn    0.56435   0.16067   0.74479   0.00000  Uiso   1.00
F503   F     0.40061   0.13046   0.62009   0.00000  Uiso   1.00
F504   F     0.59939   0.20287   0.87991   0.00000  Uiso   1.00
F505   F     0.64719   0.22274   0.53886   0.00000  Uiso   1.00
F506   F     0.35281   0.11059   0.96114   0.00000  Uiso   1.00
C507   C     0.84864   0.26494   0.74883   0.00000  Uiso   1.00
C508   C     0.81803   0.06840   0.75117   0.00000  Uiso   1.00
C509   C     0.93340   0.20346   0.97253   0.00000  Uiso   1.00
C510   C     0.73326   0.12987   0.52746   0.00000  Uiso   1.00
C511   C     0.85669   0.31944   0.74815   0.00000  Uiso   1.00
C512   C     0.80997   0.01389   0.75185   0.00000  Uiso   1.00
C513   C     0.83406   0.16669   0.83657   0.00000  Uiso   1.00
C514   C     0.83261   0.16664   0.66343   0.00000  Uiso   1.00
C515   C     0.78181   0.14920   0.59513   0.00000  Uiso   1.00
C516   C     0.88486   0.18414   0.90487   0.00000  Uiso   1.00
C517   C     0.83152   0.16744   0.61565   0.00000  Uiso   1.00
C518   C     0.83515   0.16590   0.88435   0.00000  Uiso   1.00
C519   C     0.88141   0.18582   0.59057   0.00000  Uiso   1.00
C520   C     0.78526   0.14752   0.90943   0.00000  Uiso   1.00
C521   C     0.88260   0.18584   0.54435   0.00000  Uiso   1.00
C522   C     0.78406   0.14749   0.95564   0.00000  Uiso   1.00
C523   C     0.83287   0.16700   0.52328   0.00000  Uiso   1.00
C524   C     0.83380   0.16634   0.97672   0.00000  Uiso   1.00
C525   C     0.78224   0.14871   0.54876   0.00000  Uiso   1.00
C526   C     0.88442   0.18462   0.95124   0.00000  Uiso   1.00
C527   C     0.93258   0.20415   0.51892   0.00000  Uiso   1.00
C528   C     0.73409   0.12919   0.98108   0.00000  Uiso   1.00
H529   H     0.91927   0.20026   0.60724   0.00000  Uiso   1.00
H530   H     0.74740   0.13307   0.89276   0.00000  Uiso   1.00
H531   H     0.97244   0.21765   0.95341   0.00000  Uiso   1.00
H532   H     0.69422   0.11569   0.54659   0.00000  Uiso   1.00
H533   H     0.90079   0.00320   0.74461   0.00000  Uiso   1.00
H534   H     0.76587   0.33014   0.75539   0.00000  Uiso   1.00
H535   H     0.67136   0.12764   0.71610   0.00000  Uiso   1.00
H536   H     0.99530   0.20570   0.78390   0.00000  Uiso   1.00
N537   N     0.98344   0.15265   0.73783   0.00000  Uiso   1.00
N538   N     0.68322   0.18068   0.76217   0.00000  Uiso   1.00
O539   O     0.79642   0.24619   0.75298   0.00000  Uiso   1.00
O540   O     0.87025   0.08714   0.74701   0.00000  Uiso   1.00
O541   O     0.89280   0.23721   0.74518   0.00000  Uiso   1.00
O542   O     0.77387   0.09613   0.75481   0.00000  Uiso   1.00
O543   O     0.78514   0.17117   0.81997   0.00000  Uiso   1.00
O544   O     0.88153   0.16216   0.68002   0.00000  Uiso   1.00
O545   O     0.88152   0.16219   0.81217   0.00000  Uiso   1.00
O546   O     0.78515   0.17115   0.68782   0.00000  Uiso   1.00
Zn547  Zn    0.76898   0.17266   0.75521   0.00000  Uiso   1.00
Zn548  Zn    0.89769   0.16067   0.74479   0.00000  Uiso   1.00
F549   F     0.73394   0.13046   0.62009   0.00000  Uiso   1.00
F550   F     0.93272   0.20287   0.87991   0.00000  Uiso   1.00
F551   F     0.98052   0.22274   0.53886   0.00000  Uiso   1.00
F552   F     0.68615   0.11059   0.96114   0.00000  Uiso   1.00
C553   C     0.18197   0.59827   0.74883   0.00000  Uiso   1.00
C554   C     0.15136   0.40173   0.75117   0.00000  Uiso   1.00
C555   C     0.26674   0.53680   0.97253   0.00000  Uiso   1.00
C556   C     0.06660   0.46321   0.52746   0.00000  Uiso   1.00
C557   C     0.19003   0.65278   0.74815   0.00000  Uiso   1.00
C558   C     0.14331   0.34722   0.75185   0.00000  Uiso   1.00
C559   C     0.16739   0.50002   0.83657   0.00000  Uiso   1.00
C560   C     0.16594   0.49998   0.66343   0.00000  Uiso   1.00
C561   C     0.11514   0.48253   0.59513   0.00000  Uiso   1.00
C562   C     0.21819   0.51747   0.90487   0.00000  Uiso   1.00
C563   C     0.16485   0.50077   0.61565   0.00000  Uiso   1.00
C564   C     0.16848   0.49923   0.88435   0.00000  Uiso   1.00
C565   C     0.21474   0.51915   0.59057   0.00000  Uiso   1.00
C566   C     0.11859   0.48085   0.90943   0.00000  Uiso   1.00
C567   C     0.21594   0.51917   0.54435   0.00000  Uiso   1.00
C568   C     0.11740   0.48083   0.95564   0.00000  Uiso   1.00
C569   C     0.16620   0.50033   0.52328   0.00000  Uiso   1.00
C570   C     0.16713   0.49967   0.97672   0.00000  Uiso   1.00
C571   C     0.11558   0.48205   0.54876   0.00000  Uiso   1.00
C572   C     0.21775   0.51795   0.95124   0.00000  Uiso   1.00
C573   C     0.26591   0.53748   0.51892   0.00000  Uiso   1.00
C574   C     0.06742   0.46252   0.98108   0.00000  Uiso   1.00
H575   H     0.25260   0.53359   0.60724   0.00000  Uiso   1.00
H576   H     0.08074   0.46641   0.89276   0.00000  Uiso   1.00
H577   H     0.30578   0.55098   0.95341   0.00000  Uiso   1.00
H578   H     0.02756   0.44902   0.54659   0.00000  Uiso   1.00
H579   H     0.23413   0.33653   0.74461   0.00000  Uiso   1.00
H580   H     0.09921   0.66347   0.75539   0.00000  Uiso   1.00
H581   H     0.00470   0.46097   0.71610   0.00000  Uiso   1.00
H582   H     0.32864   0.53903   0.78390   0.00000  Uiso   1.00
N583   N     0.31678   0.48598   0.73783   0.00000  Uiso   1.00
N584   N     0.01656   0.51402   0.76217   0.00000  Uiso   1.00
O585   O     0.12975   0.57952   0.75298   0.00000  Uiso   1.00
O586   O     0.20358   0.42048   0.74701   0.00000  Uiso   1.00
O587   O     0.22613   0.57054   0.74518   0.00000  Uiso   1.00
O588   O     0.10720   0.42946   0.75481   0.00000  Uiso   1.00
O589   O     0.11847   0.50450   0.81997   0.00000  Uiso   1.00
O590   O     0.21486   0.49550   0.68002   0.00000  Uiso   1.00
O591   O     0.21485   0.49552   0.81217   0.00000  Uiso   1.00
O592   O     0.11848   0.50448   0.68782   0.00000  Uiso   1.00
Zn593  Zn    0.10231   0.50600   0.75521   0.00000  Uiso   1.00
Zn594  Zn    0.23102   0.49400   0.74479   0.00000  Uiso   1.00
F595   F     0.06728   0.46379   0.62009   0.00000  Uiso   1.00
F596   F     0.26606   0.53621   0.87991   0.00000  Uiso   1.00
F597   F     0.31385   0.55607   0.53886   0.00000  Uiso   1.00
F598   F     0.01948   0.44392   0.96114   0.00000  Uiso   1.00
C599   C     0.51531   0.59827   0.74883   0.00000  Uiso   1.00
C600   C     0.48469   0.40173   0.75117   0.00000  Uiso   1.00
C601   C     0.60007   0.53680   0.97253   0.00000  Uiso   1.00
C602   C     0.39993   0.46321   0.52746   0.00000  Uiso   1.00
C603   C     0.52336   0.65278   0.74815   0.00000  Uiso   1.00
C604   C     0.47664   0.34722   0.75185   0.00000  Uiso   1.00
C605   C     0.50073   0.50002   0.83657   0.00000  Uiso   1.00
C606   C     0.49927   0.49998   0.66343   0.00000  Uiso   1.00
C607   C     0.44847   0.48253   0.59513   0.00000  Uiso   1.00
C608   C     0.55153   0.51747   0.90487   0.00000  Uiso   1.00
C609   C     0.49819   0.50077   0.61565   0.00000  Uiso   1.00
C610   C     0.50181   0.49923   0.88435   0.00000  Uiso   1.00
C611   C     0.54808   0.51915   0.59057   0.00000  Uiso   1.00
C612   C     0.45192   0.48085   0.90943   0.00000  Uiso   1.00
C613   C     0.54927   0.51917   0.54435   0.00000  Uiso   1.00
C614   C     0.45073   0.48083   0.95564   0.00000  Uiso   1.00
C615   C     0.49954   0.50033   0.52328   0.00000  Uiso   1.00
C616   C     0.50046   0.49967   0.97672   0.00000  Uiso   1.00
C617   C     0.44891   0.48205   0.54876   0.00000  Uiso   1.00
C618   C     0.55109   0.51795   0.95124   0.00000  Uiso   1.00
C619   C     0.59924   0.53748   0.51892   0.00000  Uiso   1.00
C620   C     0.40076   0.46252   0.98108   0.00000  Uiso   1.00
H621   H     0.58593   0.53359   0.60724   0.00000  Uiso   1.00
H622   H     0.41407   0.46641   0.89276   0.00000  Uiso   1.00
H623   H     0.63911   0.55098   0.95341   0.00000  Uiso   1.00
H624   H     0.36089   0.44902   0.54659   0.00000  Uiso   1.00
H625   H     0.56746   0.33653   0.74461   0.00000  Uiso   1.00
H626   H     0.43254   0.66347   0.75539   0.00000  Uiso   1.00
H627   H     0.33803   0.46097   0.71610   0.00000  Uiso   1.00
H628   H     0.66197   0.53903   0.78390   0.00000  Uiso   1.00
N629   N     0.65011   0.48598   0.73783   0.00000  Uiso   1.00
N630   N     0.34989   0.51402   0.76217   0.00000  Uiso   1.00
O631   O     0.46308   0.57952   0.75298   0.00000  Uiso   1.00
O632   O     0.53692   0.42048   0.74701   0.00000  Uiso   1.00
O633   O     0.55946   0.57054   0.74518   0.00000  Uiso   1.00
O634   O     0.44054   0.42946   0.75481   0.00000  Uiso   1.00
O635   O     0.45181   0.50450   0.81997   0.00000  Uiso   1.00
O636   O     0.54819   0.49550   0.68002   0.00000  Uiso   1.00
O637   O     0.54819   0.49552   0.81217   0.00000  Uiso   1.00
O638   O     0.45181   0.50448   0.68782   0.00000  Uiso   1.00
Zn639  Zn    0.43565   0.50600   0.75521   0.00000  Uiso   1.00
Zn640  Zn    0.56435   0.49400   0.74479   0.00000  Uiso   1.00
F641   F     0.40061   0.46379   0.62009   0.00000  Uiso   1.00
F642   F     0.59939   0.53621   0.87991   0.00000  Uiso   1.00
F643   F     0.64719   0.55607   0.53886   0.00000  Uiso   1.00
F644   F     0.35281   0.44392   0.96114   0.00000  Uiso   1.00
C645   C     0.84864   0.59827   0.74883   0.00000  Uiso   1.00
C646   C     0.81803   0.40173   0.75117   0.00000  Uiso   1.00
C647   C     0.93340   0.53680   0.97253   0.00000  Uiso   1.00
C648   C     0.73326   0.46321   0.52746   0.00000  Uiso   1.00
C649   C     0.85669   0.65278   0.74815   0.00000  Uiso   1.00
C650   C     0.80997   0.34722   0.75185   0.00000  Uiso   1.00
C651   C     0.83406   0.50002   0.83657   0.00000  Uiso   1.00
C652   C     0.83261   0.49998   0.66343   0.00000  Uiso   1.00
C653   C     0.78181   0.48253   0.59513   0.00000  Uiso   1.00
C654   C     0.88486   0.51747   0.90487   0.00000  Uiso   1.00
C655   C     0.83152   0.50077   0.61565   0.00000  Uiso   1.00
C656   C     0.83515   0.49923   0.88435   0.00000  Uiso   1.00
C657   C     0.88141   0.51915   0.59057   0.00000  Uiso   1.00
C658   C     0.78526   0.48085   0.90943   0.00000  Uiso   1.00
C659   C     0.88260   0.51917   0.54435   0.00000  Uiso   1.00
C660   C     0.78406   0.48083   0.95564   0.00000  Uiso   1.00
C661   C     0.83287   0.50033   0.52328   0.00000  Uiso   1.00
C662   C     0.83380   0.49967   0.97672   0.00000  Uiso   1.00
C663   C     0.78224   0.48205   0.54876   0.00000  Uiso   1.00
C664   C     0.88442   0.51795   0.95124   0.00000  Uiso   1.00
C665   C     0.93258   0.53748   0.51892   0.00000  Uiso   1.00
C666   C     0.73409   0.46252   0.98108   0.00000  Uiso   1.00
H667   H     0.91927   0.53359   0.60724   0.00000  Uiso   1.00
H668   H     0.74740   0.46641   0.89276   0.00000  Uiso   1.00
H669   H     0.97244   0.55098   0.95341   0.00000  Uiso   1.00
H670   H     0.69422   0.44902   0.54659   0.00000  Uiso   1.00
H671   H     0.90079   0.33653   0.74461   0.00000  Uiso   1.00
H672   H     0.76587   0.66347   0.75539   0.00000  Uiso   1.00
H673   H     0.67136   0.46097   0.71610   0.00000  Uiso   1.00
H674   H     0.99530   0.53903   0.78390   0.00000  Uiso   1.00
N675   N     0.98344   0.48598   0.73783   0.00000  Uiso   1.00
N676   N     0.68322   0.51402   0.76217   0.00000  Uiso   1.00
O677   O     0.79642   0.57952   0.75298   0.00000  Uiso   1.00
O678   O     0.87025   0.42048   0.74701   0.00000  Uiso   1.00
O679   O     0.89280   0.57054   0.74518   0.00000  Uiso   1.00
O680   O     0.77387   0.42946   0.75481   0.00000  Uiso   1.00
O681   O     0.78514   0.50450   0.81997   0.00000  Uiso   1.00
O682   O     0.88153   0.49550   0.68002   0.00000  Uiso   1.00
O683   O     0.88152   0.49552   0.81217   0.00000  Uiso   1.00
O684   O     0.78515   0.50448   0.68782   0.00000  Uiso   1.00
Zn685  Zn    0.76898   0.50600   0.75521   0.00000  Uiso   1.00
Zn686  Zn    0.89769   0.49400   0.74479   0.00000  Uiso   1.00
F687   F     0.73394   0.46379   0.62009   0.00000  Uiso   1.00
F688   F     0.93272   0.53621   0.87991   0.00000  Uiso   1.00
F689   F     0.98052   0.55607   0.53886   0.00000  Uiso   1.00
F690   F     0.68615   0.44392   0.96114   0.00000  Uiso   1.00
C691   C     0.18197   0.93160   0.74883   0.00000  Uiso   1.00
C692   C     0.15136   0.73506   0.75117   0.00000  Uiso   1.00
C693   C     0.26674   0.87013   0.97253   0.00000  Uiso   1.00
C694   C     0.06660   0.79654   0.52746   0.00000  Uiso   1.00
C695   C     0.19003   0.98611   0.74815   0.00000  Uiso   1.00
C696   C     0.14331   0.68056   0.75185   0.00000  Uiso   1.00
C697   C     0.16739   0.83336   0.83657   0.00000  Uiso   1.00
C698   C     0.16594   0.83331   0.66343   0.00000  Uiso   1.00
C699   C     0.11514   0.81586   0.59513   0.00000  Uiso   1.00
C700   C     0.21819   0.85080   0.90487   0.00000  Uiso   1.00
C701   C     0.16485   0.83410   0.61565   0.00000  Uiso   1.00
C702   C     0.16848   0.83257   0.88435   0.00000  Uiso   1.00
C703   C     0.21474   0.85248   0.59057   0.00000  Uiso   1.00
C704   C     0.11859   0.81418   0.90943   0.00000  Uiso   1.00
C705   C     0.21594   0.85251   0.54435   0.00000  Uiso   1.00
C706   C     0.11740   0.81416   0.95564   0.00000  Uiso   1.00
C707   C     0.16620   0.83366   0.52328   0.00000  Uiso   1.00
C708   C     0.16713   0.83301   0.97672   0.00000  Uiso   1.00
C709   C     0.11558   0.81538   0.54876   0.00000  Uiso   1.00
C710   C     0.21775   0.85129   0.95124   0.00000  Uiso   1.00
C711   C     0.26591   0.87081   0.51892   0.00000  Uiso   1.00
C712   C     0.06742   0.79585   0.98108   0.00000  Uiso   1.00
H713   H     0.25260   0.86692   0.60724   0.00000  Uiso   1.00
H714   H     0.08074   0.79974   0.89276   0.00000  Uiso   1.00
H715   H     0.30578   0.88431   0.95341   0.00000  Uiso   1.00
H716   H     0.02756   0.78235   0.54659   0.00000  Uiso   1.00
H717   H     0.23413   0.66986   0.74461   0.00000  Uiso   1.00
H718   H     0.09921   0.99680   0.75539   0.00000  Uiso   1.00
H719   H     0.00470   0.79430   0.71610   0.00000  Uiso   1.00
H720   H     0.32864   0.87236   0.78390   0.00000  Uiso   1.00
N721   N     0.31678   0.81932   0.73783   0.00000  Uiso   1.00
N722   N     0.01656   0.84735   0.76217   0.00000  Uiso   1.00
O723   O     0.12975   0.91286   0.75298   0.00000  Uiso   1.00
O724   O     0.20358   0.75381   0.74701   0.00000  Uiso   1.00
O725   O     0.22613   0.90387   0.74518   0.00000  Uiso   1.00
O726   O     0.10720   0.76279   0.75481   0.00000  Uiso   1.00
O727   O     0.11847   0.83784   0.81997   0.00000  Uiso   1.00
O728   O     0.21486   0.82883   0.68002   0.00000  Uiso   1.00
O729   O     0.21485   0.82885   0.81217   0.00000  Uiso   1.00
O730   O     0.11848   0.83781   0.68782   0.00000  Uiso   1.00
Zn731  Zn    0.10231   0.83933   0.75521   0.00000  Uiso   1.00
Zn732  Zn    0.23102   0.82734   0.74479   0.00000  Uiso   1.00
F733   F     0.06728   0.79713   0.62009   0.00000  Uiso   1.00
F734   F     0.26606   0.86954   0.87991   0.00000  Uiso   1.00
F735   F     0.31385   0.88941   0.53886   0.00000  Uiso   1.00
F736   F     0.01948   0.77726   0.96114   0.00000  Uiso   1.00
C737   C     0.51531   0.93160   0.74883   0.00000  Uiso   1.00
C738   C     0.48469   0.73506   0.75117   0.00000  Uiso   1.00
C739   C     0.60007   0.87013   0.97253   0.00000  Uiso   1.00
C740   C     0.39993   0.79654   0.52746   0.00000  Uiso   1.00
C741   C     0.52336   0.98611   0.74815   0.00000  Uiso   1.00
C742   C     0.47664   0.68056   0.75185   0.00000  Uiso   1.00
C743   C     0.50073   0.83336   0.83657   0.00000  Uiso   1.00
C744   C     0.49927   0.83331   0.66343   0.00000  Uiso   1.00
C745   C     0.44847   0.81586   0.59513   0.00000  Uiso   1.00
C746   C     0.55153   0.85080   0.90487   0.00000  Uiso   1.00
C747   C     0.49819   0.83410   0.61565   0.00000  Uiso   1.00
C748   C     0.50181   0.83257   0.88435   0.00000  Uiso   1.00
C749   C     0.54808   0.85248   0.59057   0.00000  Uiso   1.00
C750   C     0.45192   0.81418   0.90943   0.00000  Uiso   1.00
C751   C     0.54927   0.85251   0.54435   0.00000  Uiso   1.00
C752   C     0.45073   0.81416   0.95564   0.00000  Uiso   1.00
C753   C     0.49954   0.83366   0.52328   0.00000  Uiso   1.00
C754   C     0.50046   0.83301   0.97672   0.00000  Uiso   1.00
C755   C     0.44891   0.81538   0.54876   0.00000  Uiso   1.00
C756   C     0.55109   0.85129   0.95124   0.00000  Uiso   1.00
C757   C     0.59924   0.87081   0.51892   0.00000  Uiso   1.00
C758   C     0.40076   0.79585   0.98108   0.00000  Uiso   1.00
H759   H     0.58593   0.86692   0.60724   0.00000  Uiso   1.00
H760   H     0.41407   0.79974   0.89276   0.00000  Uiso   1.00
H761   H     0.63911   0.88431   0.95341   0.00000  Uiso   1.00
H762   H     0.36089   0.78235   0.54659   0.00000  Uiso   1.00
H763   H     0.56746   0.66986   0.74461   0.00000  Uiso   1.00
H764   H     0.43254   0.99680   0.75539   0.00000  Uiso   1.00
H765   H     0.33803   0.79430   0.71610   0.00000  Uiso   1.00
H766   H     0.66197   0.87236   0.78390   0.00000  Uiso   1.00
N767   N     0.65011   0.81932   0.73783   0.00000  Uiso   1.00
N768   N     0.34989   0.84735   0.76217   0.00000  Uiso   1.00
O769   O     0.46308   0.91286   0.75298   0.00000  Uiso   1.00
O770   O     0.53692   0.75381   0.74701   0.00000  Uiso   1.00
O771   O     0.55946   0.90387   0.74518   0.00000  Uiso   1.00
O772   O     0.44054   0.76279   0.75481   0.00000  Uiso   1.00
O773   O     0.45181   0.83784   0.81997   0.00000  Uiso   1.00
O774   O     0.54819   0.82883   0.68002   0.00000  Uiso   1.00
O775   O     0.54819   0.82885   0.81217   0.00000  Uiso   1.00
O776   O     0.45181   0.83781   0.68782   0.00000  Uiso   1.00
Zn777  Zn    0.43565   0.83933   0.75521   0.00000  Uiso   1.00
Zn778  Zn    0.56435   0.82734   0.74479   0.00000  Uiso   1.00
F779   F     0.40061   0.79713   0.62009   0.00000  Uiso   1.00
F780   F     0.59939   0.86954   0.87991   0.00000  Uiso   1.00
F781   F     0.64719   0.88941   0.53886   0.00000  Uiso   1.00
F782   F     0.35281   0.77726   0.96114   0.00000  Uiso   1.00
C783   C     0.84864   0.93160   0.74883   0.00000  Uiso   1.00
C784   C     0.81803   0.73506   0.75117   0.00000  Uiso   1.00
C785   C     0.93340   0.87013   0.97253   0.00000  Uiso   1.00
C786   C     0.73326   0.79654   0.52746   0.00000  Uiso   1.00
C787   C     0.85669   0.98611   0.74815   0.00000  Uiso   1.00
C788   C     0.80997   0.68056   0.75185   0.00000  Uiso   1.00
C789   C     0.83406   0.83336   0.83657   0.00000  Uiso   1.00
C790   C     0.83261   0.83331   0.66343   0.00000  Uiso   1.00
C791   C     0.78181   0.81586   0.59513   0.00000  Uiso   1.00
C792   C     0.88486   0.85080   0.90487   0.00000  Uiso   1.00
C793   C     0.83152   0.83410   0.61565   0.00000  Uiso   1.00
C794   C     0.83515   0.83257   0.88435   0.00000  Uiso   1.00
C795   C     0.88141   0.85248   0.59057   0.00000  Uiso   1.00
C796   C     0.78526   0.81418   0.90943   0.00000  Uiso   1.00
C797   C     0.88260   0.85251   0.54435   0.00000  Uiso   1.00
C798   C     0.78406   0.81416   0.95564   0.00000  Uiso   1.00
C799   C     0.83287   0.83366   0.52328   0.00000  Uiso   1.00
C800   C     0.83380   0.83301   0.97672   0.00000  Uiso   1.00
C801   C     0.78224   0.81538   0.54876   0.00000  Uiso   1.00
C802   C     0.88442   0.85129   0.95124   0.00000  Uiso   1.00
C803   C     0.93258   0.87081   0.51892   0.00000  Uiso   1.00
C804   C     0.73409   0.79585   0.98108   0.00000  Uiso   1.00
H805   H     0.91927   0.86692   0.60724   0.00000  Uiso   1.00
H806   H     0.74740   0.79974   0.89276   0.00000  Uiso   1.00
H807   H     0.97244   0.88431   0.95341   0.00000  Uiso   1.00
H808   H     0.69422   0.78235   0.54659   0.00000  Uiso   1.00
H809   H     0.90079   0.66986   0.74461   0.00000  Uiso   1.00
H810   H     0.76587   0.99680   0.75539   0.00000  Uiso   1.00
H811   H     0.67136   0.79430   0.71610   0.00000  Uiso   1.00
H812   H     0.99530   0.87236   0.78390   0.00000  Uiso   1.00
N813   N     0.98344   0.81932   0.73783   0.00000  Uiso   1.00
N814   N     0.68322   0.84735   0.76217   0.00000  Uiso   1.00
O815   O     0.79642   0.91286   0.75298   0.00000  Uiso   1.00
O816   O     0.87025   0.75381   0.74701   0.00000  Uiso   1.00
O817   O     0.89280   0.90387   0.74518   0.00000  Uiso   1.00
O818   O     0.77387   0.76279   0.75481   0.00000  Uiso   1.00
O819   O     0.78514   0.83784   0.81997   0.00000  Uiso   1.00
O820   O     0.88153   0.82883   0.68002   0.00000  Uiso   1.00
O821   O     0.88152   0.82885   0.81217   0.00000  Uiso   1.00
O822   O     0.78515   0.83781   0.68782   0.00000  Uiso   1.00
Zn823  Zn    0.76898   0.83933   0.75521   0.00000  Uiso   1.00
Zn824  Zn    0.89769   0.82734   0.74479   0.00000  Uiso   1.00
F825   F     0.73394   0.79713   0.62009   0.00000  Uiso   1.00
F826   F     0.93272   0.86954   0.87991   0.00000  Uiso   1.00
F827   F     0.98052   0.88941   0.53886   0.00000  Uiso   1.00
F828   F     0.68615   0.77726   0.96114   0.00000  Uiso   1.00
loop_
_geom_bond_atom_site_label_1
_geom_bond_atom_site_label_2
_geom_bond_distance
_geom_bond_site_symmetry_2
_ccdc_geom_bond_type
C1     O33     1.276   .     A
C1     O35     1.286   .     A
C1     C5      1.402   .     S
C2     O34     1.276   .     A
C2     C6      1.402   .     S
C2     O36     1.286   .     A
C3     H25     1.084   .     S
C3     C20     1.401   .     A
C3     C435    1.388   .     S
C4     H26     1.084   .     S
C4     C19     1.401   .     A
C4     C436    1.388   1_554 S
C5     C144    1.336   .     S
C5     H165    1.088   .     S
C6     C281    1.336   1_545 S
C6     H304    1.088   1_545 S
C7     O37     1.288   .     A
C7     C12     1.434   .     S
C7     O39     1.289   .     A
C8     O38     1.288   .     A
C8     C11     1.434   .     S
C8     O40     1.289   .     A
C9     C11     1.399   .     A
C9     F43     1.361   .     S
C9     C19     1.388   .     A
C10    C12     1.399   .     A
C10    F44     1.361   .     S
C10    C20     1.388   .     A
C11    C13     1.396   .     A
C12    C14     1.396   .     A
C13    C15     1.382   .     A
C13    H23     1.085   .     S
C14    C16     1.382   .     A
C14    H24     1.085   .     S
C15    C21     1.402   .     A
C15    C17     1.412   .     A
C16    C18     1.412   .     A
C16    C22     1.402   .     A
C17    C19     1.414   .     A
C17    C432    1.393   1_554 S
C18    C20     1.414   .     A
C18    C431    1.393   .     S
C21    F45     1.358   .     S
C21    C417    1.388   1_554 S
C22    F46     1.358   .     S
C22    C418    1.388   .     S
H27    C281    1.088   1_545 S
H28    C144    1.088   .     S
H29    N123    1.029   1_455 S
H30    N78     1.029   .     S
N31    Zn42    2.014   .     S
N31    H75     1.029   .     S
N31    N78     1.278   .     S
N32    Zn41    2.014   .     S
N32    N123    1.278   1_455 S
N32    H122    1.029   1_455 S
O33    Zn41    1.957   .     S
O34    Zn42    1.957   .     S
O35    Zn42    1.979   .     S
O36    Zn41    1.979   .     S
O37    Zn41    2.004   .     S
O38    Zn42    2.004   .     S
O39    Zn42    2.025   .     S
O40    Zn41    2.025   .     S
C47    O79     1.276   .     A
C47    O81     1.286   .     A
C47    C51     1.402   .     S
C48    O80     1.276   .     A
C48    C52     1.402   .     S
C48    O82     1.286   .     A
C49    H71     1.084   .     S
C49    C66     1.401   .     A
C49    C481    1.388   .     S
C50    H72     1.084   .     S
C50    C65     1.401   .     A
C50    C482    1.388   1_554 S
C51    C190    1.336   .     S
C51    H211    1.088   .     S
C52    C327    1.336   1_545 S
C52    H350    1.088   1_545 S
C53    O83     1.288   .     A
C53    C58     1.434   .     S
C53    O85     1.289   .     A
C54    O84     1.288   .     A
C54    C57     1.434   .     S
C54    O86     1.289   .     A
C55    C57     1.399   .     A
C55    F89     1.361   .     S
C55    C65     1.388   .     A
C56    C58     1.399   .     A
C56    F90     1.361   .     S
C56    C66     1.388   .     A
C57    C59     1.396   .     A
C58    C60     1.396   .     A
C59    C61     1.382   .     A
C59    H69     1.085   .     S
C60    C62     1.382   .     A
C60    H70     1.085   .     S
C61    C67     1.402   .     A
C61    C63     1.412   .     A
C62    C64     1.412   .     A
C62    C68     1.402   .     A
C63    C65     1.414   .     A
C63    C478    1.393   1_554 S
C64    C66     1.414   .     A
C64    C477    1.393   .     S
C67    F91     1.358   .     S
C67    C463    1.388   1_554 S
C68    F92     1.358   .     S
C68    C464    1.388   .     S
H73    C327    1.088   1_545 S
H74    C190    1.088   .     S
H76    N124    1.029   .     S
N77    Zn88    2.014   .     S
N77    H121    1.029   .     S
N77    N124    1.278   .     S
N78    Zn87    2.014   .     S
O79    Zn87    1.957   .     S
O80    Zn88    1.957   .     S
O81    Zn88    1.979   .     S
O82    Zn87    1.979   .     S
O83    Zn87    2.004   .     S
O84    Zn88    2.004   .     S
O85    Zn88    2.025   .     S
O86    Zn87    2.025   .     S
C93    O125    1.276   .     A
C93    O127    1.286   .     A
C93    C97     1.402   .     S
C94    O126    1.276   .     A
C94    C98     1.402   .     S
C94    O128    1.286   .     A
C95    H117    1.084   .     S
C95    C112    1.401   .     A
C95    C527    1.388   .     S
C96    H118    1.084   .     S
C96    C111    1.401   .     A
C96    C528    1.388   1_554 S
C97    C236    1.336   .     S
C97    H257    1.088   .     S
C98    C373    1.336   1_545 S
C98    H396    1.088   1_545 S
C99    O129    1.288   .     A
C99    C104    1.434   .     S
C99    O131    1.289   .     A
C100   O130    1.288   .     A
C100   C103    1.434   .     S
C100   O132    1.289   .     A
C101   C103    1.399   .     A
C101   F135    1.361   .     S
C101   C111    1.388   .     A
C102   C104    1.399   .     A
C102   F136    1.361   .     S
C102   C112    1.388   .     A
C103   C105    1.396   .     A
C104   C106    1.396   .     A
C105   C107    1.382   .     A
C105   H115    1.085   .     S
C106   C108    1.382   .     A
C106   H116    1.085   .     S
C107   C113    1.402   .     A
C107   C109    1.412   .     A
C108   C110    1.412   .     A
C108   C114    1.402   .     A
C109   C111    1.414   .     A
C109   C524    1.393   1_554 S
C110   C112    1.414   .     A
C110   C523    1.393   .     S
C113   F137    1.358   .     S
C113   C509    1.388   1_554 S
C114   F138    1.358   .     S
C114   C510    1.388   .     S
H119   C373    1.088   1_545 S
H120   C236    1.088   .     S
H122   N32     1.029   1_655 S
N123   Zn134   2.014   .     S
N123   H29     1.029   1_655 S
N123   N32     1.278   1_655 S
N124   Zn133   2.014   .     S
O125   Zn133   1.957   .     S
O126   Zn134   1.957   .     S
O127   Zn134   1.979   .     S
O128   Zn133   1.979   .     S
O129   Zn133   2.004   .     S
O130   Zn134   2.004   .     S
O131   Zn134   2.025   .     S
O132   Zn133   2.025   .     S
C139   O171    1.276   .     A
C139   O173    1.286   .     A
C139   C143    1.402   .     S
C140   O172    1.276   .     A
C140   C144    1.402   .     S
C140   O174    1.286   .     A
C141   H163    1.084   .     S
C141   C158    1.401   .     A
C141   C573    1.388   .     S
C142   H164    1.084   .     S
C142   C157    1.401   .     A
C142   C574    1.388   1_554 S
C143   C282    1.336   .     S
C143   H303    1.088   .     S
C145   O175    1.288   .     A
C145   C150    1.434   .     S
C145   O177    1.289   .     A
C146   O176    1.288   .     A
C146   C149    1.434   .     S
C146   O178    1.289   .     A
C147   C149    1.399   .     A
C147   F181    1.361   .     S
C147   C157    1.388   .     A
C148   C150    1.399   .     A
C148   F182    1.361   .     S
C148   C158    1.388   .     A
C149   C151    1.396   .     A
C150   C152    1.396   .     A
C151   C153    1.382   .     A
C151   H161    1.085   .     S
C152   C154    1.382   .     A
C152   H162    1.085   .     S
C153   C159    1.402   .     A
C153   C155    1.412   .     A
C154   C156    1.412   .     A
C154   C160    1.402   .     A
C155   C157    1.414   .     A
C155   C570    1.393   1_554 S
C156   C158    1.414   .     A
C156   C569    1.393   .     S
C159   F183    1.358   .     S
C159   C555    1.388   1_554 S
C160   F184    1.358   .     S
C160   C556    1.388   .     S
H166   C282    1.088   .     S
H167   N261    1.029   1_455 S
H168   N216    1.029   .     S
N169   Zn180   2.014   .     S
N169   H213    1.029   .     S
N169   N216    1.278   .     S
N170   Zn179   2.014   .     S
N170   N261    1.278   1_455 S
N170   H260    1.029   1_455 S
O171   Zn179   1.957   .     S
O172   Zn180   1.957   .     S
O173   Zn180   1.979   .     S
O174   Zn179   1.979   .     S
O175   Zn179   2.004   .     S
O176   Zn180   2.004   .     S
O177   Zn180   2.025   .     S
O178   Zn179   2.025   .     S
C185   O217    1.276   .     A
C185   O219    1.286   .     A
C185   C189    1.402   .     S
C186   O218    1.276   .     A
C186   C190    1.402   .     S
C186   O220    1.286   .     A
C187   H209    1.084   .     S
C187   C204    1.401   .     A
C187   C619    1.388   .     S
C188   H210    1.084   .     S
C188   C203    1.401   .     A
C188   C620    1.388   1_554 S
C189   C328    1.336   .     S
C189   H349    1.088   .     S
C191   O221    1.288   .     A
C191   C196    1.434   .     S
C191   O223    1.289   .     A
C192   O222    1.288   .     A
C192   C195    1.434   .     S
C192   O224    1.289   .     A
C193   C195    1.399   .     A
C193   F227    1.361   .     S
C193   C203    1.388   .     A
C194   C196    1.399   .     A
C194   F228    1.361   .     S
C194   C204    1.388   .     A
C195   C197    1.396   .     A
C196   C198    1.396   .     A
C197   C199    1.382   .     A
C197   H207    1.085   .     S
C198   C200    1.382   .     A
C198   H208    1.085   .     S
C199   C205    1.402   .     A
C199   C201    1.412   .     A
C200   C202    1.412   .     A
C200   C206    1.402   .     A
C201   C203    1.414   .     A
C201   C616    1.393   1_554 S
C202   C204    1.414   .     A
C202   C615    1.393   .     S
C205   F229    1.358   .     S
C205   C601    1.388   1_554 S
C206   F230    1.358   .     S
C206   C602    1.388   .     S
H212   C328    1.088   .     S
H214   N262    1.029   .     S
N215   Zn226   2.014   .     S
N215   H259    1.029   .     S
N215   N262    1.278   .     S
N216   Zn225   2.014   .     S
O217   Zn225   1.957   .     S
O218   Zn226   1.957   .     S
O219   Zn226   1.979   .     S
O220   Zn225   1.979   .     S
O221   Zn225   2.004   .     S
O222   Zn226   2.004   .     S
O223   Zn226   2.025   .     S
O224   Zn225   2.025   .     S
C231   O263    1.276   .     A
C231   O265    1.286   .     A
C231   C235    1.402   .     S
C232   O264    1.276   .     A
C232   C236    1.402   .     S
C232   O266    1.286   .     A
C233   H255    1.084   .     S
C233   C250    1.401   .     A
C233   C665    1.388   .     S
C234   H256    1.084   .     S
C234   C249    1.401   .     A
C234   C666    1.388   1_554 S
C235   C374    1.336   .     S
C235   H395    1.088   .     S
C237   O267    1.288   .     A
C237   C242    1.434   .     S
C237   O269    1.289   .     A
C238   O268    1.288   .     A
C238   C241    1.434   .     S
C238   O270    1.289   .     A
C239   C241    1.399   .     A
C239   F273    1.361   .     S
C239   C249    1.388   .     A
C240   C242    1.399   .     A
C240   F274    1.361   .     S
C240   C250    1.388   .     A
C241   C243    1.396   .     A
C242   C244    1.396   .     A
C243   C245    1.382   .     A
C243   H253    1.085   .     S
C244   C246    1.382   .     A
C244   H254    1.085   .     S
C245   C251    1.402   .     A
C245   C247    1.412   .     A
C246   C248    1.412   .     A
C246   C252    1.402   .     A
C247   C249    1.414   .     A
C247   C662    1.393   1_554 S
C248   C250    1.414   .     A
C248   C661    1.393   .     S
C251   F275    1.358   .     S
C251   C647    1.388   1_554 S
C252   F276    1.358   .     S
C252   C648    1.388   .     S
H258   C374    1.088   .     S
H260   N170    1.029   1_655 S
N261   Zn272   2.014   .     S
N261   H167    1.029   1_655 S
N261   N170    1.278   1_655 S
N262   Zn271   2.014   .     S
O263   Zn271   1.957   .     S
O264   Zn272   1.957   .     S
O265   Zn272   1.979   .     S
O266   Zn271   1.979   .     S
O267   Zn271   2.004   .     S
O268   Zn272   2.004   .     S
O269   Zn272   2.025   .     S
O270   Zn271   2.025   .     S
C277   O309    1.276   .     A
C277   O311    1.286   .     A
C277   C281    1.402   .     S
C278   O310    1.276   .     A
C278   C282    1.402   .     S
C278   O312    1.286   .     A
C279   H301    1.084   .     S
C279   C296    1.401   .     A
C279   C711    1.388   .     S
C280   H302    1.084   .     S
C280   C295    1.401   .     A
C280   C712    1.388   1_554 S
C281   C6      1.336   1_565 S
C281   H27     1.088   1_565 S
C283   O313    1.288   .     A
C283   C288    1.434   .     S
C283   O315    1.289   .     A
C284   O314    1.288   .     A
C284   C287    1.434   .     S
C284   O316    1.289   .     A
C285   C287    1.399   .     A
C285   F319    1.361   .     S
C285   C295    1.388   .     A
C286   C288    1.399   .     A
C286   F320    1.361   .     S
C286   C296    1.388   .     A
C287   C289    1.396   .     A
C288   C290    1.396   .     A
C289   C291    1.382   .     A
C289   H299    1.085   .     S
C290   C292    1.382   .     A
C290   H300    1.085   .     S
C291   C297    1.402   .     A
C291   C293    1.412   .     A
C292   C294    1.412   .     A
C292   C298    1.402   .     A
C293   C295    1.414   .     A
C293   C708    1.393   1_554 S
C294   C296    1.414   .     A
C294   C707    1.393   .     S
C297   F321    1.358   .     S
C297   C693    1.388   1_554 S
C298   F322    1.358   .     S
C298   C694    1.388   .     S
H304   C6      1.088   1_565 S
H305   N399    1.029   1_455 S
H306   N354    1.029   .     S
N307   Zn318   2.014   .     S
N307   H351    1.029   .     S
N307   N354    1.278   .     S
N308   Zn317   2.014   .     S
N308   N399    1.278   1_455 S
N308   H398    1.029   1_455 S
O309   Zn317   1.957   .     S
O310   Zn318   1.957   .     S
O311   Zn318   1.979   .     S
O312   Zn317   1.979   .     S
O313   Zn317   2.004   .     S
O314   Zn318   2.004   .     S
O315   Zn318   2.025   .     S
O316   Zn317   2.025   .     S
C323   O355    1.276   .     A
C323   O357    1.286   .     A
C323   C327    1.402   .     S
C324   O356    1.276   .     A
C324   C328    1.402   .     S
C324   O358    1.286   .     A
C325   H347    1.084   .     S
C325   C342    1.401   .     A
C325   C757    1.388   .     S
C326   H348    1.084   .     S
C326   C341    1.401   .     A
C326   C758    1.388   1_554 S
C327   C52     1.336   1_565 S
C327   H73     1.088   1_565 S
C329   O359    1.288   .     A
C329   C334    1.434   .     S
C329   O361    1.289   .     A
C330   O360    1.288   .     A
C330   C333    1.434   .     S
C330   O362    1.289   .     A
C331   C333    1.399   .     A
C331   F365    1.361   .     S
C331   C341    1.388   .     A
C332   C334    1.399   .     A
C332   F366    1.361   .     S
C332   C342    1.388   .     A
C333   C335    1.396   .     A
C334   C336    1.396   .     A
C335   C337    1.382   .     A
C335   H345    1.085   .     S
C336   C338    1.382   .     A
C336   H346    1.085   .     S
C337   C343    1.402   .     A
C337   C339    1.412   .     A
C338   C340    1.412   .     A
C338   C344    1.402   .     A
C339   C341    1.414   .     A
C339   C754    1.393   1_554 S
C340   C342    1.414   .     A
C340   C753    1.393   .     S
C343   F367    1.358   .     S
C343   C739    1.388   1_554 S
C344   F368    1.358   .     S
C344   C740    1.388   .     S
H350   C52     1.088   1_565 S
H352   N400    1.029   .     S
N353   Zn364   2.014   .     S
N353   H397    1.029   .     S
N353   N400    1.278   .     S
N354   Zn363   2.014   .     S
O355   Zn363   1.957   .     S
O356   Zn364   1.957   .     S
O357   Zn364   1.979   .     S
O358   Zn363   1.979   .     S
O359   Zn363   2.004   .     S
O360   Zn364   2.004   .     S
O361   Zn364   2.025   .     S
O362   Zn363   2.025   .     S
C369   O401    1.276   .     A
C369   O403    1.286   .     A
C369   C373    1.402   .     S
C370   O402    1.276   .     A
C370   C374    1.402   .     S
C370   O404    1.286   .     A
C371   H393    1.084   .     S
C371   C388    1.401   .     A
C371   C803    1.388   .     S
C372   H394    1.084   .     S
C372   C387    1.401   .     A
C372   C804    1.388   1_554 S
C373   C98     1.336   1_565 S
C373   H119    1.088   1_565 S
C375   O405    1.288   .     A
C375   C380    1.434   .     S
C375   O407    1.289   .     A
C376   O406    1.288   .     A
C376   C379    1.434   .     S
C376   O408    1.289   .     A
C377   C379    1.399   .     A
C377   F411    1.361   .     S
C377   C387    1.388   .     A
C378   C380    1.399   .     A
C378   F412    1.361   .     S
C378   C388    1.388   .     A
C379   C381    1.396   .     A
C380   C382    1.396   .     A
C381   C383    1.382   .     A
C381   H391    1.085   .     S
C382   C384    1.382   .     A
C382   H392    1.085   .     S
C383   C389    1.402   .     A
C383   C385    1.412   .     A
C384   C386    1.412   .     A
C384   C390    1.402   .     A
C385   C387    1.414   .     A
C385   C800    1.393   1_554 S
C386   C388    1.414   .     A
C386   C799    1.393   .     S
C389   F413    1.358   .     S
C389   C785    1.388   1_554 S
C390   F414    1.358   .     S
C390   C786    1.388   .     S
H396   C98     1.088   1_565 S
H398   N308    1.029   1_655 S
N399   Zn410   2.014   .     S
N399   H305    1.029   1_655 S
N399   N308    1.278   1_655 S
N400   Zn409   2.014   .     S
O401   Zn409   1.957   .     S
O402   Zn410   1.957   .     S
O403   Zn410   1.979   .     S
O404   Zn409   1.979   .     S
O405   Zn409   2.004   .     S
O406   Zn410   2.004   .     S
O407   Zn410   2.025   .     S
O408   Zn409   2.025   .     S
C415   O447    1.276   .     A
C415   O449    1.286   .     A
C415   C419    1.402   .     S
C416   O448    1.276   .     A
C416   C420    1.402   .     S
C416   O450    1.286   .     A
C417   H439    1.084   .     S
C417   C434    1.401   .     A
C417   C21     1.388   1_556 S
C418   H440    1.084   .     S
C418   C433    1.401   .     A
C419   C558    1.336   .     S
C419   H579    1.088   .     S
C420   C695    1.336   1_545 S
C420   H718    1.088   1_545 S
C421   O451    1.288   .     A
C421   C426    1.434   .     S
C421   O453    1.289   .     A
C422   O452    1.288   .     A
C422   C425    1.434   .     S
C422   O454    1.289   .     A
C423   C425    1.399   .     A
C423   F457    1.361   .     S
C423   C433    1.388   .     A
C424   C426    1.399   .     A
C424   F458    1.361   .     S
C424   C434    1.388   .     A
C425   C427    1.396   .     A
C426   C428    1.396   .     A
C427   C429    1.382   .     A
C427   H437    1.085   .     S
C428   C430    1.382   .     A
C428   H438    1.085   .     S
C429   C435    1.402   .     A
C429   C431    1.412   .     A
C430   C432    1.412   .     A
C430   C436    1.402   .     A
C431   C433    1.414   .     A
C432   C434    1.414   .     A
C432   C17     1.393   1_556 S
C435   F459    1.358   .     S
C436   F460    1.358   .     S
C436   C4      1.388   1_556 S
H441   C695    1.088   1_545 S
H442   C558    1.088   .     S
H443   N537    1.029   1_455 S
H444   N492    1.029   .     S
N445   Zn456   2.014   .     S
N445   H489    1.029   .     S
N445   N492    1.278   .     S
N446   Zn455   2.014   .     S
N446   N537    1.278   1_455 S
N446   H536    1.029   1_455 S
O447   Zn455   1.957   .     S
O448   Zn456   1.957   .     S
O449   Zn456   1.979   .     S
O450   Zn455   1.979   .     S
O451   Zn455   2.004   .     S
O452   Zn456   2.004   .     S
O453   Zn456   2.025   .     S
O454   Zn455   2.025   .     S
C461   O493    1.276   .     A
C461   O495    1.286   .     A
C461   C465    1.402   .     S
C462   O494    1.276   .     A
C462   C466    1.402   .     S
C462   O496    1.286   .     A
C463   H485    1.084   .     S
C463   C480    1.401   .     A
C463   C67     1.388   1_556 S
C464   H486    1.084   .     S
C464   C479    1.401   .     A
C465   C604    1.336   .     S
C465   H625    1.088   .     S
C466   C741    1.336   1_545 S
C466   H764    1.088   1_545 S
C467   O497    1.288   .     A
C467   C472    1.434   .     S
C467   O499    1.289   .     A
C468   O498    1.288   .     A
C468   C471    1.434   .     S
C468   O500    1.289   .     A
C469   C471    1.399   .     A
C469   F503    1.361   .     S
C469   C479    1.388   .     A
C470   C472    1.399   .     A
C470   F504    1.361   .     S
C470   C480    1.388   .     A
C471   C473    1.396   .     A
C472   C474    1.396   .     A
C473   C475    1.382   .     A
C473   H483    1.085   .     S
C474   C476    1.382   .     A
C474   H484    1.085   .     S
C475   C481    1.402   .     A
C475   C477    1.412   .     A
C476   C478    1.412   .     A
C476   C482    1.402   .     A
C477   C479    1.414   .     A
C478   C480    1.414   .     A
C478   C63     1.393   1_556 S
C481   F505    1.358   .     S
C482   F506    1.358   .     S
C482   C50     1.388   1_556 S
H487   C741    1.088   1_545 S
H488   C604    1.088   .     S
H490   N538    1.029   .     S
N491   Zn502   2.014   .     S
N491   H535    1.029   .     S
N491   N538    1.278   .     S
N492   Zn501   2.014   .     S
O493   Zn501   1.957   .     S
O494   Zn502   1.957   .     S
O495   Zn502   1.979   .     S
O496   Zn501   1.979   .     S
O497   Zn501   2.004   .     S
O498   Zn502   2.004   .     S
O499   Zn502   2.025   .     S
O500   Zn501   2.025   .     S
C507   O539    1.276   .     A
C507   O541    1.286   .     A
C507   C511    1.402   .     S
C508   O540    1.276   .     A
C508   C512    1.402   .     S
C508   O542    1.286   .     A
C509   H531    1.084   .     S
C509   C526    1.401   .     A
C509   C113    1.388   1_556 S
C510   H532    1.084   .     S
C510   C525    1.401   .     A
C511   C650    1.336   .     S
C511   H671    1.088   .     S
C512   C787    1.336   1_545 S
C512   H810    1.088   1_545 S
C513   O543    1.288   .     A
C513   C518    1.434   .     S
C513   O545    1.289   .     A
C514   O544    1.288   .     A
C514   C517    1.434   .     S
C514   O546    1.289   .     A
C515   C517    1.399   .     A
C515   F549    1.361   .     S
C515   C525    1.388   .     A
C516   C518    1.399   .     A
C516   F550    1.361   .     S
C516   C526    1.388   .     A
C517   C519    1.396   .     A
C518   C520    1.396   .     A
C519   C521    1.382   .     A
C519   H529    1.085   .     S
C520   C522    1.382   .     A
C520   H530    1.085   .     S
C521   C527    1.402   .     A
C521   C523    1.412   .     A
C522   C524    1.412   .     A
C522   C528    1.402   .     A
C523   C525    1.414   .     A
C524   C526    1.414   .     A
C524   C109    1.393   1_556 S
C527   F551    1.358   .     S
C528   F552    1.358   .     S
C528   C96     1.388   1_556 S
H533   C787    1.088   1_545 S
H534   C650    1.088   .     S
H536   N446    1.029   1_655 S
N537   Zn548   2.014   .     S
N537   H443    1.029   1_655 S
N537   N446    1.278   1_655 S
N538   Zn547   2.014   .     S
O539   Zn547   1.957   .     S
O540   Zn548   1.957   .     S
O541   Zn548   1.979   .     S
O542   Zn547   1.979   .     S
O543   Zn547   2.004   .     S
O544   Zn548   2.004   .     S
O545   Zn548   2.025   .     S
O546   Zn547   2.025   .     S
C553   O585    1.276   .     A
C553   O587    1.286   .     A
C553   C557    1.402   .     S
C554   O586    1.276   .     A
C554   C558    1.402   .     S
C554   O588    1.286   .     A
C555   H577    1.084   .     S
C555   C572    1.401   .     A
C555   C159    1.388   1_556 S
C556   H578    1.084   .     S
C556   C571    1.401   .     A
C557   C696    1.336   .     S
C557   H717    1.088   .     S
C559   O589    1.288   .     A
C559   C564    1.434   .     S
C559   O591    1.289   .     A
C560   O590    1.288   .     A
C560   C563    1.434   .     S
C560   O592    1.289   .     A
C561   C563    1.399   .     A
C561   F595    1.361   .     S
C561   C571    1.388   .     A
C562   C564    1.399   .     A
C562   F596    1.361   .     S
C562   C572    1.388   .     A
C563   C565    1.396   .     A
C564   C566    1.396   .     A
C565   C567    1.382   .     A
C565   H575    1.085   .     S
C566   C568    1.382   .     A
C566   H576    1.085   .     S
C567   C573    1.402   .     A
C567   C569    1.412   .     A
C568   C570    1.412   .     A
C568   C574    1.402   .     A
C569   C571    1.414   .     A
C570   C572    1.414   .     A
C570   C155    1.393   1_556 S
C573   F597    1.358   .     S
C574   F598    1.358   .     S
C574   C142    1.388   1_556 S
H580   C696    1.088   .     S
H581   N675    1.029   1_455 S
H582   N630    1.029   .     S
N583   Zn594   2.014   .     S
N583   H627    1.029   .     S
N583   N630    1.278   .     S
N584   Zn593   2.014   .     S
N584   N675    1.278   1_455 S
N584   H674    1.029   1_455 S
O585   Zn593   1.957   .     S
O586   Zn594   1.957   .     S
O587   Zn594   1.979   .     S
O588   Zn593   1.979   .     S
O589   Zn593   2.004   .     S
O590   Zn594   2.004   .     S
O591   Zn594   2.025   .     S
O592   Zn593   2.025   .     S
C599   O631    1.276   .     A
C599   O633    1.286   .     A
C599   C603    1.402   .     S
C600   O632    1.276   .     A
C600   C604    1.402   .     S
C600   O634    1.286   .     A
C601   H623    1.084   .     S
C601   C618    1.401   .     A
C601   C205    1.388   1_556 S
C602   H624    1.084   .     S
C602   C617    1.401   .     A
C603   C742    1.336   .     S
C603   H763    1.088   .     S
C605   O635    1.288   .     A
C605   C610    1.434   .     S
C605   O637    1.289   .     A
C606   O636    1.288   .     A
C606   C609    1.434   .     S
C606   O638    1.289   .     A
C607   C609    1.399   .     A
C607   F641    1.361   .     S
C607   C617    1.388   .     A
C608   C610    1.399   .     A
C608   F642    1.361   .     S
C608   C618    1.388   .     A
C609   C611    1.396   .     A
C610   C612    1.396   .     A
C611   C613    1.382   .     A
C611   H621    1.085   .     S
C612   C614    1.382   .     A
C612   H622    1.085   .     S
C613   C619    1.402   .     A
C613   C615    1.412   .     A
C614   C616    1.412   .     A
C614   C620    1.402   .     A
C615   C617    1.414   .     A
C616   C618    1.414   .     A
C616   C201    1.393   1_556 S
C619   F643    1.358   .     S
C620   F644    1.358   .     S
C620   C188    1.388   1_556 S
H626   C742    1.088   .     S
H628   N676    1.029   .     S
N629   Zn640   2.014   .     S
N629   H673    1.029   .     S
N629   N676    1.278   .     S
N630   Zn639   2.014   .     S
O631   Zn639   1.957   .     S
O632   Zn640   1.957   .     S
O633   Zn640   1.979   .     S
O634   Zn639   1.979   .     S
O635   Zn639   2.004   .     S
O636   Zn640   2.004   .     S
O637   Zn640   2.025   .     S
O638   Zn639   2.025   .     S
C645   O677    1.276   .     A
C645   O679    1.286   .     A
C645   C649    1.402   .     S
C646   O678    1.276   .     A
C646   C650    1.402   .     S
C646   O680    1.286   .     A
C647   H669    1.084   .     S
C647   C664    1.401   .     A
C647   C251    1.388   1_556 S
C648   H670    1.084   .     S
C648   C663    1.401   .     A
C649   C788    1.336   .     S
C649   H809    1.088   .     S
C651   O681    1.288   .     A
C651   C656    1.434   .     S
C651   O683    1.289   .     A
C652   O682    1.288   .     A
C652   C655    1.434   .     S
C652   O684    1.289   .     A
C653   C655    1.399   .     A
C653   F687    1.361   .     S
C653   C663    1.388   .     A
C654   C656    1.399   .     A
C654   F688    1.361   .     S
C654   C664    1.388   .     A
C655   C657    1.396   .     A
C656   C658    1.396   .     A
C657   C659    1.382   .     A
C657   H667    1.085   .     S
C658   C660    1.382   .     A
C658   H668    1.085   .     S
C659   C665    1.402   .     A
C659   C661    1.412   .     A
C660   C662    1.412   .     A
C660   C666    1.402   .     A
C661   C663    1.414   .     A
C662   C664    1.414   .     A
C662   C247    1.393   1_556 S
C665   F689    1.358   .     S
C666   F690    1.358   .     S
C666   C234    1.388   1_556 S
H672   C788    1.088   .     S
H674   N584    1.029   1_655 S
N675   Zn686   2.014   .     S
N675   H581    1.029   1_655 S
N675   N584    1.278   1_655 S
N676   Zn685   2.014   .     S
O677   Zn685   1.957   .     S
O678   Zn686   1.957   .     S
O679   Zn686   1.979   .     S
O680   Zn685   1.979   .     S
O681   Zn685   2.004   .     S
O682   Zn686   2.004   .     S
O683   Zn686   2.025   .     S
O684   Zn685   2.025   .     S
C691   O723    1.276   .     A
C691   O725    1.286   .     A
C691   C695    1.402   .     S
C692   O724    1.276   .     A
C692   C696    1.402   .     S
C692   O726    1.286   .     A
C693   H715    1.084   .     S
C693   C710    1.401   .     A
C693   C297    1.388   1_556 S
C694   H716    1.084   .     S
C694   C709    1.401   .     A
C695   C420    1.336   1_565 S
C695   H441    1.088   1_565 S
C697   O727    1.288   .     A
C697   C702    1.434   .     S
C697   O729    1.289   .     A
C698   O728    1.288   .     A
C698   C701    1.434   .     S
C698   O730    1.289   .     A
C699   C701    1.399   .     A
C699   F733    1.361   .     S
C699   C709    1.388   .     A
C700   C702    1.399   .     A
C700   F734    1.361   .     S
C700   C710    1.388   .     A
C701   C703    1.396   .     A
C702   C704    1.396   .     A
C703   C705    1.382   .     A
C703   H713    1.085   .     S
C704   C706    1.382   .     A
C704   H714    1.085   .     S
C705   C711    1.402   .     A
C705   C707    1.412   .     A
C706   C708    1.412   .     A
C706   C712    1.402   .     A
C707   C709    1.414   .     A
C708   C710    1.414   .     A
C708   C293    1.393   1_556 S
C711   F735    1.358   .     S
C712   F736    1.358   .     S
C712   C280    1.388   1_556 S
H718   C420    1.088   1_565 S
H719   N813    1.029   1_455 S
H720   N768    1.029   .     S
N721   Zn732   2.014   .     S
N721   H765    1.029   .     S
N721   N768    1.278   .     S
N722   Zn731   2.014   .     S
N722   N813    1.278   1_455 S
N722   H812    1.029   1_455 S
O723   Zn731   1.957   .     S
O724   Zn732   1.957   .     S
O725   Zn732   1.979   .     S
O726   Zn731   1.979   .     S
O727   Zn731   2.004   .     S
O728   Zn732   2.004   .     S
O729   Zn732   2.025   .     S
O730   Zn731   2.025   .     S
C737   O769    1.276   .     A
C737   O771    1.286   .     A
C737   C741    1.402   .     S
C738   O770    1.276   .     A
C738   C742    1.402   .     S
C738   O772    1.286   .     A
C739   H761    1.084   .     S
C739   C756    1.401   .     A
C739   C343    1.388   1_556 S
C740   H762    1.084   .     S
C740   C755    1.401   .     A
C741   C466    1.336   1_565 S
C741   H487    1.088   1_565 S
C743   O773    1.288   .     A
C743   C748    1.434   .     S
C743   O775    1.289   .     A
C744   O774    1.288   .     A
C744   C747    1.434   .     S
C744   O776    1.289   .     A
C745   C747    1.399   .     A
C745   F779    1.361   .     S
C745   C755    1.388   .     A
C746   C748    1.399   .     A
C746   F780    1.361   .     S
C746   C756    1.388   .     A
C747   C749    1.396   .     A
C748   C750    1.396   .     A
C749   C751    1.382   .     A
C749   H759    1.085   .     S
C750   C752    1.382   .     A
C750   H760    1.085   .     S
C751   C757    1.402   .     A
C751   C753    1.412   .     A
C752   C754    1.412   .     A
C752   C758    1.402   .     A
C753   C755    1.414   .     A
C754   C756    1.414   .     A
C754   C339    1.393   1_556 S
C757   F781    1.358   .     S
C758   F782    1.358   .     S
C758   C326    1.388   1_556 S
H764   C466    1.088   1_565 S
H766   N814    1.029   .     S
N767   Zn778   2.014   .     S
N767   H811    1.029   .     S
N767   N814    1.278   .     S
N768   Zn777   2.014   .     S
O769   Zn777   1.957   .     S
O770   Zn778   1.957   .     S
O771   Zn778   1.979   .     S
O772   Zn777   1.979   .     S
O773   Zn777   2.004   .     S
O774   Zn778   2.004   .     S
O775   Zn778   2.025   .     S
O776   Zn777   2.025   .     S
C783   O815    1.276   .     A
C783   O817    1.286   .     A
C783   C787    1.402   .     S
C784   O816    1.276   .     A
C784   C788    1.402   .     S
C784   O818    1.286   .     A
C785   H807    1.084   .     S
C785   C802    1.401   .     A
C785   C389    1.388   1_556 S
C786   H808    1.084   .     S
C786   C801    1.401   .     A
C787   C512    1.336   1_565 S
C787   H533    1.088   1_565 S
C789   O819    1.288   .     A
C789   C794    1.434   .     S
C789   O821    1.289   .     A
C790   O820    1.288   .     A
C790   C793    1.434   .     S
C790   O822    1.289   .     A
C791   C793    1.399   .     A
C791   F825    1.361   .     S
C791   C801    1.388   .     A
C792   C794    1.399   .     A
C792   F826    1.361   .     S
C792   C802    1.388   .     A
C793   C795    1.396   .     A
C794   C796    1.396   .     A
C795   C797    1.382   .     A
C795   H805    1.085   .     S
C796   C798    1.382   .     A
C796   H806    1.085   .     S
C797   C803    1.402   .     A
C797   C799    1.412   .     A
C798   C800    1.412   .     A
C798   C804    1.402   .     A
C799   C801    1.414   .     A
C800   C802    1.414   .     A
C800   C385    1.393   1_556 S
C803   F827    1.358   .     S
C804   F828    1.358   .     S
C804   C372    1.388   1_556 S
H810   C512    1.088   1_565 S
H812   N722    1.029   1_655 S
N813   Zn824   2.014   .     S
N813   H719    1.029   1_655 S
N813   N722    1.278   1_655 S
N814   Zn823   2.014   .     S
O815   Zn823   1.957   .     S
O816   Zn824   1.957   .     S
O817   Zn824   1.979   .     S
O818   Zn823   1.979   .     S
O819   Zn823   2.004   .     S
O820   Zn824   2.004   .     S
O821   Zn824   2.025   .     S
O822   Zn823   2.025   .     S
