data_str_m1_o10_o18_pcu_sym.249
_audit_creation_date              2020-01-03
_audit_creation_method            'Materials Studio'
_symmetry_space_group_name_H-M    'P1'
_symmetry_Int_Tables_number       1
_symmetry_cell_setting            triclinic
loop_
_symmetry_equiv_pos_as_xyz
  x,y,z
_cell_length_a                    32.6874
_cell_length_b                    32.6524
_cell_length_c                    35.5594
_cell_angle_alpha                 98.4771
_cell_angle_beta                  72.9499
_cell_angle_gamma                 98.4788
loop_
_atom_site_label
_atom_site_type_symbol
_atom_site_fract_x
_atom_site_fract_y
_atom_site_fract_z
_atom_site_U_iso_or_equiv
_atom_site_adp_type
_atom_site_occupancy
Br1    Br    0.27994   0.06630   0.01198   0.00000  Uiso   1.00
Br2    Br    0.30857   0.11418   0.29574   0.00000  Uiso   1.00
Br3    Br    0.09566   0.32771   0.29808   0.00000  Uiso   1.00
Br4    Br    0.08908   0.26879   0.39631   0.00000  Uiso   1.00
Br5    Br    0.25436   0.15798   0.40297   0.00000  Uiso   1.00
C6     C     0.05285   0.16026   0.25816   0.00000  Uiso   1.00
C7     C     0.22020   0.15232   0.45670   0.00000  Uiso   1.00
C8     C     0.23687   0.12870   0.47707   0.00000  Uiso   1.00
C9     C     0.28091   0.17353   0.24151   0.00000  Uiso   1.00
C10    C     0.22264   0.13020   0.01830   0.00000  Uiso   1.00
C11    C     0.19264   0.15848   0.03996   0.00000  Uiso   1.00
C12    C     0.23940   0.10551   0.03860   0.00000  Uiso   1.00
C13    C     0.22703   0.10954   0.07987   0.00000  Uiso   1.00
C14    C     0.17990   0.16061   0.08160   0.00000  Uiso   1.00
C15    C     0.32633   0.17735   0.23989   0.00000  Uiso   1.00
C16    C     0.00765   0.15618   0.26226   0.00000  Uiso   1.00
C17    C     0.11829   0.23649   0.41957   0.00000  Uiso   1.00
C18    C     0.18054   0.32223   0.23978   0.00000  Uiso   1.00
C19    C     0.15025   0.01276   0.26248   0.00000  Uiso   1.00
C20    C     0.15630   0.05628   0.25849   0.00000  Uiso   1.00
C21    C     0.17659   0.27765   0.24160   0.00000  Uiso   1.00
C22    C     0.18837   0.14512   0.14399   0.00000  Uiso   1.00
C23    C     0.14574   0.18848   0.35635   0.00000  Uiso   1.00
C24    C     0.14037   0.20193   0.39909   0.00000  Uiso   1.00
C25    C     0.19761   0.13717   0.10116   0.00000  Uiso   1.00
C26    C     0.11635   0.24863   0.45934   0.00000  Uiso   1.00
C27    C     0.16026   0.18099   0.41936   0.00000  Uiso   1.00
C28    C     0.16244   0.19558   0.45802   0.00000  Uiso   1.00
C29    C     0.13756   0.22810   0.47895   0.00000  Uiso   1.00
C30    C     0.18604   0.17656   0.47737   0.00000  Uiso   1.00
C31    C     0.17613   0.18343   0.01938   0.00000  Uiso   1.00
C32    C     0.15128   0.21609   0.03933   0.00000  Uiso   1.00
C33    C     0.13357   0.23889   0.01933   0.00000  Uiso   1.00
F34    F     0.11079   0.27041   0.04038   0.00000  Uiso   1.00
F35    F     0.02094   0.20351   0.21517   0.00000  Uiso   1.00
F36    F     0.21639   0.00653   0.21430   0.00000  Uiso   1.00
F37    F     0.09355   0.28077   0.47874   0.00000  Uiso   1.00
H38    H     0.15617   0.18017   0.09995   0.00000  Uiso   1.00
H39    H     0.24092   0.09159   0.09539   0.00000  Uiso   1.00
H40    H     0.26250   0.11035   0.46017   0.00000  Uiso   1.00
H41    H     0.17280   0.15216   0.40506   0.00000  Uiso   1.00
H42    H     0.14621   0.22603   0.07045   0.00000  Uiso   1.00
O43    O     0.16667   0.16667   0.25000   0.00000  Uiso   1.00
O44    O     0.15693   0.12393   0.16625   0.00000  Uiso   1.00
O45    O     0.12687   0.20646   0.33749   0.00000  Uiso   1.00
O46    O     0.21088   0.17493   0.15877   0.00000  Uiso   1.00
O47    O     0.17198   0.16135   0.33749   0.00000  Uiso   1.00
O48    O     0.17849   0.08101   0.27820   0.00000  Uiso   1.00
O49    O     0.14581   0.26136   0.26767   0.00000  Uiso   1.00
O50    O     0.07452   0.13251   0.23607   0.00000  Uiso   1.00
O51    O     0.26785   0.19179   0.21805   0.00000  Uiso   1.00
O52    O     0.06990   0.18960   0.27820   0.00000  Uiso   1.00
O53    O     0.25440   0.15277   0.26767   0.00000  Uiso   1.00
O54    O     0.13800   0.06903   0.23607   0.00000  Uiso   1.00
O55    O     0.20437   0.25527   0.21805   0.00000  Uiso   1.00
Zn56   Zn    0.19244   0.14090   0.28277   0.00000  Uiso   1.00
Zn57   Zn    0.13459   0.12378   0.22257   0.00000  Uiso   1.00
Zn58   Zn    0.21166   0.19664   0.21188   0.00000  Uiso   1.00
Zn59   Zn    0.12798   0.20535   0.28277   0.00000  Uiso   1.00
Br60   Br    0.61327   0.06630   0.01198   0.00000  Uiso   1.00
Br61   Br    0.64191   0.11418   0.29574   0.00000  Uiso   1.00
Br62   Br    0.42900   0.32771   0.29808   0.00000  Uiso   1.00
Br63   Br    0.42242   0.26879   0.39631   0.00000  Uiso   1.00
Br64   Br    0.58769   0.15798   0.40297   0.00000  Uiso   1.00
C65    C     0.38618   0.16026   0.25816   0.00000  Uiso   1.00
C66    C     0.55354   0.15232   0.45670   0.00000  Uiso   1.00
C67    C     0.57020   0.12870   0.47707   0.00000  Uiso   1.00
C68    C     0.61424   0.17353   0.24151   0.00000  Uiso   1.00
C69    C     0.55597   0.13020   0.01830   0.00000  Uiso   1.00
C70    C     0.52597   0.15848   0.03996   0.00000  Uiso   1.00
C71    C     0.57273   0.10551   0.03860   0.00000  Uiso   1.00
C72    C     0.56037   0.10954   0.07987   0.00000  Uiso   1.00
C73    C     0.51323   0.16061   0.08160   0.00000  Uiso   1.00
C74    C     0.65966   0.17735   0.23989   0.00000  Uiso   1.00
C75    C     0.34098   0.15618   0.26226   0.00000  Uiso   1.00
C76    C     0.45162   0.23649   0.41957   0.00000  Uiso   1.00
C77    C     0.51387   0.32223   0.23978   0.00000  Uiso   1.00
C78    C     0.48358   0.01276   0.26248   0.00000  Uiso   1.00
C79    C     0.48963   0.05628   0.25849   0.00000  Uiso   1.00
C80    C     0.50993   0.27765   0.24160   0.00000  Uiso   1.00
C81    C     0.52170   0.14512   0.14399   0.00000  Uiso   1.00
C82    C     0.47907   0.18848   0.35635   0.00000  Uiso   1.00
C83    C     0.47370   0.20193   0.39909   0.00000  Uiso   1.00
C84    C     0.53094   0.13717   0.10116   0.00000  Uiso   1.00
C85    C     0.44968   0.24863   0.45934   0.00000  Uiso   1.00
C86    C     0.49360   0.18099   0.41936   0.00000  Uiso   1.00
C87    C     0.49577   0.19558   0.45802   0.00000  Uiso   1.00
C88    C     0.47089   0.22810   0.47895   0.00000  Uiso   1.00
C89    C     0.51937   0.17656   0.47737   0.00000  Uiso   1.00
C90    C     0.50947   0.18343   0.01938   0.00000  Uiso   1.00
C91    C     0.48461   0.21609   0.03933   0.00000  Uiso   1.00
C92    C     0.46691   0.23889   0.01933   0.00000  Uiso   1.00
F93    F     0.44412   0.27041   0.04038   0.00000  Uiso   1.00
F94    F     0.35427   0.20351   0.21517   0.00000  Uiso   1.00
F95    F     0.54973   0.00653   0.21430   0.00000  Uiso   1.00
F96    F     0.42689   0.28077   0.47874   0.00000  Uiso   1.00
H97    H     0.48950   0.18017   0.09995   0.00000  Uiso   1.00
H98    H     0.57425   0.09159   0.09539   0.00000  Uiso   1.00
H99    H     0.59584   0.11035   0.46017   0.00000  Uiso   1.00
H100   H     0.50614   0.15216   0.40506   0.00000  Uiso   1.00
H101   H     0.47955   0.22603   0.07045   0.00000  Uiso   1.00
O102   O     0.50000   0.16667   0.25000   0.00000  Uiso   1.00
O103   O     0.49027   0.12393   0.16625   0.00000  Uiso   1.00
O104   O     0.46020   0.20646   0.33749   0.00000  Uiso   1.00
O105   O     0.54421   0.17493   0.15877   0.00000  Uiso   1.00
O106   O     0.50532   0.16135   0.33749   0.00000  Uiso   1.00
O107   O     0.51182   0.08101   0.27820   0.00000  Uiso   1.00
O108   O     0.47914   0.26136   0.26767   0.00000  Uiso   1.00
O109   O     0.40785   0.13251   0.23607   0.00000  Uiso   1.00
O110   O     0.60119   0.19179   0.21805   0.00000  Uiso   1.00
O111   O     0.40323   0.18960   0.27820   0.00000  Uiso   1.00
O112   O     0.58773   0.15277   0.26767   0.00000  Uiso   1.00
O113   O     0.47133   0.06903   0.23607   0.00000  Uiso   1.00
O114   O     0.53771   0.25527   0.21805   0.00000  Uiso   1.00
Zn115  Zn    0.52577   0.14090   0.28277   0.00000  Uiso   1.00
Zn116  Zn    0.46792   0.12378   0.22257   0.00000  Uiso   1.00
Zn117  Zn    0.54500   0.19664   0.21188   0.00000  Uiso   1.00
Zn118  Zn    0.46131   0.20535   0.28277   0.00000  Uiso   1.00
Br119  Br    0.94661   0.06630   0.01198   0.00000  Uiso   1.00
Br120  Br    0.97524   0.11418   0.29574   0.00000  Uiso   1.00
Br121  Br    0.76233   0.32771   0.29808   0.00000  Uiso   1.00
Br122  Br    0.75575   0.26879   0.39631   0.00000  Uiso   1.00
Br123  Br    0.92102   0.15798   0.40297   0.00000  Uiso   1.00
C124   C     0.71952   0.16026   0.25816   0.00000  Uiso   1.00
C125   C     0.88687   0.15232   0.45670   0.00000  Uiso   1.00
C126   C     0.90354   0.12870   0.47707   0.00000  Uiso   1.00
C127   C     0.94758   0.17353   0.24151   0.00000  Uiso   1.00
C128   C     0.88930   0.13020   0.01830   0.00000  Uiso   1.00
C129   C     0.85931   0.15848   0.03996   0.00000  Uiso   1.00
C130   C     0.90606   0.10551   0.03860   0.00000  Uiso   1.00
C131   C     0.89370   0.10954   0.07987   0.00000  Uiso   1.00
C132   C     0.84656   0.16061   0.08160   0.00000  Uiso   1.00
C133   C     0.99300   0.17735   0.23989   0.00000  Uiso   1.00
C134   C     0.67431   0.15618   0.26226   0.00000  Uiso   1.00
C135   C     0.78495   0.23649   0.41957   0.00000  Uiso   1.00
C136   C     0.84720   0.32223   0.23978   0.00000  Uiso   1.00
C137   C     0.81691   0.01276   0.26248   0.00000  Uiso   1.00
C138   C     0.82297   0.05628   0.25849   0.00000  Uiso   1.00
C139   C     0.84326   0.27765   0.24160   0.00000  Uiso   1.00
C140   C     0.85503   0.14512   0.14399   0.00000  Uiso   1.00
C141   C     0.81241   0.18848   0.35635   0.00000  Uiso   1.00
C142   C     0.80703   0.20193   0.39909   0.00000  Uiso   1.00
C143   C     0.86428   0.13717   0.10116   0.00000  Uiso   1.00
C144   C     0.78302   0.24863   0.45934   0.00000  Uiso   1.00
C145   C     0.82693   0.18099   0.41936   0.00000  Uiso   1.00
C146   C     0.82910   0.19558   0.45802   0.00000  Uiso   1.00
C147   C     0.80422   0.22810   0.47895   0.00000  Uiso   1.00
C148   C     0.85271   0.17656   0.47737   0.00000  Uiso   1.00
C149   C     0.84280   0.18343   0.01938   0.00000  Uiso   1.00
C150   C     0.81795   0.21609   0.03933   0.00000  Uiso   1.00
C151   C     0.80024   0.23889   0.01933   0.00000  Uiso   1.00
F152   F     0.77746   0.27041   0.04038   0.00000  Uiso   1.00
F153   F     0.68761   0.20351   0.21517   0.00000  Uiso   1.00
F154   F     0.88306   0.00653   0.21430   0.00000  Uiso   1.00
F155   F     0.76022   0.28077   0.47874   0.00000  Uiso   1.00
H156   H     0.82283   0.18017   0.09995   0.00000  Uiso   1.00
H157   H     0.90758   0.09159   0.09539   0.00000  Uiso   1.00
H158   H     0.92917   0.11035   0.46017   0.00000  Uiso   1.00
H159   H     0.83947   0.15216   0.40506   0.00000  Uiso   1.00
H160   H     0.81288   0.22603   0.07045   0.00000  Uiso   1.00
O161   O     0.83333   0.16667   0.25000   0.00000  Uiso   1.00
O162   O     0.82360   0.12393   0.16625   0.00000  Uiso   1.00
O163   O     0.79354   0.20646   0.33749   0.00000  Uiso   1.00
O164   O     0.87755   0.17493   0.15877   0.00000  Uiso   1.00
O165   O     0.83865   0.16135   0.33749   0.00000  Uiso   1.00
O166   O     0.84515   0.08101   0.27820   0.00000  Uiso   1.00
O167   O     0.81247   0.26136   0.26767   0.00000  Uiso   1.00
O168   O     0.74119   0.13251   0.23607   0.00000  Uiso   1.00
O169   O     0.93452   0.19179   0.21805   0.00000  Uiso   1.00
O170   O     0.73656   0.18960   0.27820   0.00000  Uiso   1.00
O171   O     0.92106   0.15277   0.26767   0.00000  Uiso   1.00
O172   O     0.80467   0.06903   0.23607   0.00000  Uiso   1.00
O173   O     0.87104   0.25527   0.21805   0.00000  Uiso   1.00
Zn174  Zn    0.85910   0.14090   0.28277   0.00000  Uiso   1.00
Zn175  Zn    0.80125   0.12378   0.22257   0.00000  Uiso   1.00
Zn176  Zn    0.87833   0.19664   0.21188   0.00000  Uiso   1.00
Zn177  Zn    0.79465   0.20535   0.28277   0.00000  Uiso   1.00
Br178  Br    0.27994   0.39963   0.01198   0.00000  Uiso   1.00
Br179  Br    0.30857   0.44752   0.29574   0.00000  Uiso   1.00
Br180  Br    0.09566   0.66105   0.29808   0.00000  Uiso   1.00
Br181  Br    0.08908   0.60213   0.39631   0.00000  Uiso   1.00
Br182  Br    0.25436   0.49131   0.40297   0.00000  Uiso   1.00
C183   C     0.05285   0.49359   0.25816   0.00000  Uiso   1.00
C184   C     0.22020   0.48565   0.45670   0.00000  Uiso   1.00
C185   C     0.23687   0.46204   0.47707   0.00000  Uiso   1.00
C186   C     0.28091   0.50686   0.24151   0.00000  Uiso   1.00
C187   C     0.22264   0.46353   0.01830   0.00000  Uiso   1.00
C188   C     0.19264   0.49181   0.03996   0.00000  Uiso   1.00
C189   C     0.23940   0.43884   0.03860   0.00000  Uiso   1.00
C190   C     0.22703   0.44287   0.07987   0.00000  Uiso   1.00
C191   C     0.17990   0.49395   0.08160   0.00000  Uiso   1.00
C192   C     0.32633   0.51068   0.23989   0.00000  Uiso   1.00
C193   C     0.00765   0.48952   0.26226   0.00000  Uiso   1.00
C194   C     0.11829   0.56982   0.41957   0.00000  Uiso   1.00
C195   C     0.18054   0.65557   0.23978   0.00000  Uiso   1.00
C196   C     0.15025   0.34610   0.26248   0.00000  Uiso   1.00
C197   C     0.15630   0.38961   0.25849   0.00000  Uiso   1.00
C198   C     0.17659   0.61098   0.24160   0.00000  Uiso   1.00
C199   C     0.18837   0.47845   0.14399   0.00000  Uiso   1.00
C200   C     0.14574   0.52181   0.35635   0.00000  Uiso   1.00
C201   C     0.14037   0.53526   0.39909   0.00000  Uiso   1.00
C202   C     0.19761   0.47050   0.10116   0.00000  Uiso   1.00
C203   C     0.11635   0.58197   0.45934   0.00000  Uiso   1.00
C204   C     0.16026   0.51432   0.41936   0.00000  Uiso   1.00
C205   C     0.16244   0.52892   0.45802   0.00000  Uiso   1.00
C206   C     0.13756   0.56143   0.47895   0.00000  Uiso   1.00
C207   C     0.18604   0.50990   0.47737   0.00000  Uiso   1.00
C208   C     0.17613   0.51676   0.01938   0.00000  Uiso   1.00
C209   C     0.15128   0.54942   0.03933   0.00000  Uiso   1.00
C210   C     0.13357   0.57223   0.01933   0.00000  Uiso   1.00
F211   F     0.11079   0.60374   0.04038   0.00000  Uiso   1.00
F212   F     0.02094   0.53684   0.21517   0.00000  Uiso   1.00
F213   F     0.21639   0.33986   0.21430   0.00000  Uiso   1.00
F214   F     0.09355   0.61410   0.47874   0.00000  Uiso   1.00
H215   H     0.15617   0.51351   0.09995   0.00000  Uiso   1.00
H216   H     0.24092   0.42492   0.09539   0.00000  Uiso   1.00
H217   H     0.26250   0.44369   0.46017   0.00000  Uiso   1.00
H218   H     0.17280   0.48549   0.40506   0.00000  Uiso   1.00
H219   H     0.14621   0.55937   0.07045   0.00000  Uiso   1.00
O220   O     0.16667   0.50000   0.25000   0.00000  Uiso   1.00
O221   O     0.15693   0.45726   0.16625   0.00000  Uiso   1.00
O222   O     0.12687   0.53979   0.33749   0.00000  Uiso   1.00
O223   O     0.21088   0.50826   0.15877   0.00000  Uiso   1.00
O224   O     0.17198   0.49468   0.33749   0.00000  Uiso   1.00
O225   O     0.17849   0.41434   0.27820   0.00000  Uiso   1.00
O226   O     0.14581   0.59469   0.26767   0.00000  Uiso   1.00
O227   O     0.07452   0.46584   0.23607   0.00000  Uiso   1.00
O228   O     0.26785   0.52512   0.21805   0.00000  Uiso   1.00
O229   O     0.06990   0.52293   0.27820   0.00000  Uiso   1.00
O230   O     0.25440   0.48610   0.26767   0.00000  Uiso   1.00
O231   O     0.13800   0.40236   0.23607   0.00000  Uiso   1.00
O232   O     0.20437   0.58860   0.21805   0.00000  Uiso   1.00
Zn233  Zn    0.19244   0.47423   0.28277   0.00000  Uiso   1.00
Zn234  Zn    0.13459   0.45711   0.22257   0.00000  Uiso   1.00
Zn235  Zn    0.21166   0.52997   0.21188   0.00000  Uiso   1.00
Zn236  Zn    0.12798   0.53868   0.28277   0.00000  Uiso   1.00
Br237  Br    0.61327   0.39963   0.01198   0.00000  Uiso   1.00
Br238  Br    0.64191   0.44752   0.29574   0.00000  Uiso   1.00
Br239  Br    0.42900   0.66105   0.29808   0.00000  Uiso   1.00
Br240  Br    0.42242   0.60213   0.39631   0.00000  Uiso   1.00
Br241  Br    0.58769   0.49131   0.40297   0.00000  Uiso   1.00
C242   C     0.38618   0.49359   0.25816   0.00000  Uiso   1.00
C243   C     0.55354   0.48565   0.45670   0.00000  Uiso   1.00
C244   C     0.57020   0.46204   0.47707   0.00000  Uiso   1.00
C245   C     0.61424   0.50686   0.24151   0.00000  Uiso   1.00
C246   C     0.55597   0.46353   0.01830   0.00000  Uiso   1.00
C247   C     0.52597   0.49181   0.03996   0.00000  Uiso   1.00
C248   C     0.57273   0.43884   0.03860   0.00000  Uiso   1.00
C249   C     0.56037   0.44287   0.07987   0.00000  Uiso   1.00
C250   C     0.51323   0.49395   0.08160   0.00000  Uiso   1.00
C251   C     0.65966   0.51068   0.23989   0.00000  Uiso   1.00
C252   C     0.34098   0.48952   0.26226   0.00000  Uiso   1.00
C253   C     0.45162   0.56982   0.41957   0.00000  Uiso   1.00
C254   C     0.51387   0.65557   0.23978   0.00000  Uiso   1.00
C255   C     0.48358   0.34610   0.26248   0.00000  Uiso   1.00
C256   C     0.48963   0.38961   0.25849   0.00000  Uiso   1.00
C257   C     0.50993   0.61098   0.24160   0.00000  Uiso   1.00
C258   C     0.52170   0.47845   0.14399   0.00000  Uiso   1.00
C259   C     0.47907   0.52181   0.35635   0.00000  Uiso   1.00
C260   C     0.47370   0.53526   0.39909   0.00000  Uiso   1.00
C261   C     0.53094   0.47050   0.10116   0.00000  Uiso   1.00
C262   C     0.44968   0.58197   0.45934   0.00000  Uiso   1.00
C263   C     0.49360   0.51432   0.41936   0.00000  Uiso   1.00
C264   C     0.49577   0.52892   0.45802   0.00000  Uiso   1.00
C265   C     0.47089   0.56143   0.47895   0.00000  Uiso   1.00
C266   C     0.51937   0.50990   0.47737   0.00000  Uiso   1.00
C267   C     0.50947   0.51676   0.01938   0.00000  Uiso   1.00
C268   C     0.48461   0.54942   0.03933   0.00000  Uiso   1.00
C269   C     0.46691   0.57223   0.01933   0.00000  Uiso   1.00
F270   F     0.44412   0.60374   0.04038   0.00000  Uiso   1.00
F271   F     0.35427   0.53684   0.21517   0.00000  Uiso   1.00
F272   F     0.54973   0.33986   0.21430   0.00000  Uiso   1.00
F273   F     0.42689   0.61410   0.47874   0.00000  Uiso   1.00
H274   H     0.48950   0.51351   0.09995   0.00000  Uiso   1.00
H275   H     0.57425   0.42492   0.09539   0.00000  Uiso   1.00
H276   H     0.59584   0.44369   0.46017   0.00000  Uiso   1.00
H277   H     0.50614   0.48549   0.40506   0.00000  Uiso   1.00
H278   H     0.47955   0.55937   0.07045   0.00000  Uiso   1.00
O279   O     0.50000   0.50000   0.25000   0.00000  Uiso   1.00
O280   O     0.49027   0.45726   0.16625   0.00000  Uiso   1.00
O281   O     0.46020   0.53979   0.33749   0.00000  Uiso   1.00
O282   O     0.54421   0.50826   0.15877   0.00000  Uiso   1.00
O283   O     0.50532   0.49468   0.33749   0.00000  Uiso   1.00
O284   O     0.51182   0.41434   0.27820   0.00000  Uiso   1.00
O285   O     0.47914   0.59469   0.26767   0.00000  Uiso   1.00
O286   O     0.40785   0.46584   0.23607   0.00000  Uiso   1.00
O287   O     0.60119   0.52512   0.21805   0.00000  Uiso   1.00
O288   O     0.40323   0.52293   0.27820   0.00000  Uiso   1.00
O289   O     0.58773   0.48610   0.26767   0.00000  Uiso   1.00
O290   O     0.47133   0.40236   0.23607   0.00000  Uiso   1.00
O291   O     0.53771   0.58860   0.21805   0.00000  Uiso   1.00
Zn292  Zn    0.52577   0.47423   0.28277   0.00000  Uiso   1.00
Zn293  Zn    0.46792   0.45711   0.22257   0.00000  Uiso   1.00
Zn294  Zn    0.54500   0.52997   0.21188   0.00000  Uiso   1.00
Zn295  Zn    0.46131   0.53868   0.28277   0.00000  Uiso   1.00
Br296  Br    0.94661   0.39963   0.01198   0.00000  Uiso   1.00
Br297  Br    0.97524   0.44752   0.29574   0.00000  Uiso   1.00
Br298  Br    0.76233   0.66105   0.29808   0.00000  Uiso   1.00
Br299  Br    0.75575   0.60213   0.39631   0.00000  Uiso   1.00
Br300  Br    0.92102   0.49131   0.40297   0.00000  Uiso   1.00
C301   C     0.71952   0.49359   0.25816   0.00000  Uiso   1.00
C302   C     0.88687   0.48565   0.45670   0.00000  Uiso   1.00
C303   C     0.90354   0.46204   0.47707   0.00000  Uiso   1.00
C304   C     0.94758   0.50686   0.24151   0.00000  Uiso   1.00
C305   C     0.88930   0.46353   0.01830   0.00000  Uiso   1.00
C306   C     0.85931   0.49181   0.03996   0.00000  Uiso   1.00
C307   C     0.90606   0.43884   0.03860   0.00000  Uiso   1.00
C308   C     0.89370   0.44287   0.07987   0.00000  Uiso   1.00
C309   C     0.84656   0.49395   0.08160   0.00000  Uiso   1.00
C310   C     0.99300   0.51068   0.23989   0.00000  Uiso   1.00
C311   C     0.67431   0.48952   0.26226   0.00000  Uiso   1.00
C312   C     0.78495   0.56982   0.41957   0.00000  Uiso   1.00
C313   C     0.84720   0.65557   0.23978   0.00000  Uiso   1.00
C314   C     0.81691   0.34610   0.26248   0.00000  Uiso   1.00
C315   C     0.82297   0.38961   0.25849   0.00000  Uiso   1.00
C316   C     0.84326   0.61098   0.24160   0.00000  Uiso   1.00
C317   C     0.85503   0.47845   0.14399   0.00000  Uiso   1.00
C318   C     0.81241   0.52181   0.35635   0.00000  Uiso   1.00
C319   C     0.80703   0.53526   0.39909   0.00000  Uiso   1.00
C320   C     0.86428   0.47050   0.10116   0.00000  Uiso   1.00
C321   C     0.78302   0.58197   0.45934   0.00000  Uiso   1.00
C322   C     0.82693   0.51432   0.41936   0.00000  Uiso   1.00
C323   C     0.82910   0.52892   0.45802   0.00000  Uiso   1.00
C324   C     0.80422   0.56143   0.47895   0.00000  Uiso   1.00
C325   C     0.85271   0.50990   0.47737   0.00000  Uiso   1.00
C326   C     0.84280   0.51676   0.01938   0.00000  Uiso   1.00
C327   C     0.81795   0.54942   0.03933   0.00000  Uiso   1.00
C328   C     0.80024   0.57223   0.01933   0.00000  Uiso   1.00
F329   F     0.77746   0.60374   0.04038   0.00000  Uiso   1.00
F330   F     0.68761   0.53684   0.21517   0.00000  Uiso   1.00
F331   F     0.88306   0.33986   0.21430   0.00000  Uiso   1.00
F332   F     0.76022   0.61410   0.47874   0.00000  Uiso   1.00
H333   H     0.82283   0.51351   0.09995   0.00000  Uiso   1.00
H334   H     0.90758   0.42492   0.09539   0.00000  Uiso   1.00
H335   H     0.92917   0.44369   0.46017   0.00000  Uiso   1.00
H336   H     0.83947   0.48549   0.40506   0.00000  Uiso   1.00
H337   H     0.81288   0.55937   0.07045   0.00000  Uiso   1.00
O338   O     0.83333   0.50000   0.25000   0.00000  Uiso   1.00
O339   O     0.82360   0.45726   0.16625   0.00000  Uiso   1.00
O340   O     0.79354   0.53979   0.33749   0.00000  Uiso   1.00
O341   O     0.87755   0.50826   0.15877   0.00000  Uiso   1.00
O342   O     0.83865   0.49468   0.33749   0.00000  Uiso   1.00
O343   O     0.84515   0.41434   0.27820   0.00000  Uiso   1.00
O344   O     0.81247   0.59469   0.26767   0.00000  Uiso   1.00
O345   O     0.74119   0.46584   0.23607   0.00000  Uiso   1.00
O346   O     0.93452   0.52512   0.21805   0.00000  Uiso   1.00
O347   O     0.73656   0.52293   0.27820   0.00000  Uiso   1.00
O348   O     0.92106   0.48610   0.26767   0.00000  Uiso   1.00
O349   O     0.80467   0.40236   0.23607   0.00000  Uiso   1.00
O350   O     0.87104   0.58860   0.21805   0.00000  Uiso   1.00
Zn351  Zn    0.85910   0.47423   0.28277   0.00000  Uiso   1.00
Zn352  Zn    0.80125   0.45711   0.22257   0.00000  Uiso   1.00
Zn353  Zn    0.87833   0.52997   0.21188   0.00000  Uiso   1.00
Zn354  Zn    0.79465   0.53868   0.28277   0.00000  Uiso   1.00
Br355  Br    0.27994   0.73297   0.01198   0.00000  Uiso   1.00
Br356  Br    0.30857   0.78085   0.29574   0.00000  Uiso   1.00
Br357  Br    0.09566   0.99438   0.29808   0.00000  Uiso   1.00
Br358  Br    0.08908   0.93546   0.39631   0.00000  Uiso   1.00
Br359  Br    0.25436   0.82465   0.40297   0.00000  Uiso   1.00
C360   C     0.05285   0.82692   0.25816   0.00000  Uiso   1.00
C361   C     0.22020   0.81899   0.45670   0.00000  Uiso   1.00
C362   C     0.23687   0.79537   0.47707   0.00000  Uiso   1.00
C363   C     0.28091   0.84019   0.24151   0.00000  Uiso   1.00
C364   C     0.22264   0.79686   0.01830   0.00000  Uiso   1.00
C365   C     0.19264   0.82514   0.03996   0.00000  Uiso   1.00
C366   C     0.23940   0.77217   0.03860   0.00000  Uiso   1.00
C367   C     0.22703   0.77620   0.07987   0.00000  Uiso   1.00
C368   C     0.17990   0.82728   0.08160   0.00000  Uiso   1.00
C369   C     0.32633   0.84402   0.23989   0.00000  Uiso   1.00
C370   C     0.00765   0.82285   0.26226   0.00000  Uiso   1.00
C371   C     0.11829   0.90316   0.41957   0.00000  Uiso   1.00
C372   C     0.18054   0.98890   0.23978   0.00000  Uiso   1.00
C373   C     0.15025   0.67943   0.26248   0.00000  Uiso   1.00
C374   C     0.15630   0.72294   0.25849   0.00000  Uiso   1.00
C375   C     0.17659   0.94432   0.24160   0.00000  Uiso   1.00
C376   C     0.18837   0.81178   0.14399   0.00000  Uiso   1.00
C377   C     0.14574   0.85514   0.35635   0.00000  Uiso   1.00
C378   C     0.14037   0.86859   0.39909   0.00000  Uiso   1.00
C379   C     0.19761   0.80383   0.10116   0.00000  Uiso   1.00
C380   C     0.11635   0.91530   0.45934   0.00000  Uiso   1.00
C381   C     0.16026   0.84765   0.41936   0.00000  Uiso   1.00
C382   C     0.16244   0.86225   0.45802   0.00000  Uiso   1.00
C383   C     0.13756   0.89476   0.47895   0.00000  Uiso   1.00
C384   C     0.18604   0.84323   0.47737   0.00000  Uiso   1.00
C385   C     0.17613   0.85009   0.01938   0.00000  Uiso   1.00
C386   C     0.15128   0.88276   0.03933   0.00000  Uiso   1.00
C387   C     0.13357   0.90556   0.01933   0.00000  Uiso   1.00
F388   F     0.11079   0.93708   0.04038   0.00000  Uiso   1.00
F389   F     0.02094   0.87017   0.21517   0.00000  Uiso   1.00
F390   F     0.21639   0.67320   0.21430   0.00000  Uiso   1.00
F391   F     0.09355   0.94744   0.47874   0.00000  Uiso   1.00
H392   H     0.15617   0.84684   0.09995   0.00000  Uiso   1.00
H393   H     0.24092   0.75825   0.09539   0.00000  Uiso   1.00
H394   H     0.26250   0.77702   0.46017   0.00000  Uiso   1.00
H395   H     0.17280   0.81882   0.40506   0.00000  Uiso   1.00
H396   H     0.14621   0.89270   0.07045   0.00000  Uiso   1.00
O397   O     0.16667   0.83333   0.25000   0.00000  Uiso   1.00
O398   O     0.15693   0.79060   0.16625   0.00000  Uiso   1.00
O399   O     0.12687   0.87313   0.33749   0.00000  Uiso   1.00
O400   O     0.21088   0.84159   0.15877   0.00000  Uiso   1.00
O401   O     0.17198   0.82802   0.33749   0.00000  Uiso   1.00
O402   O     0.17849   0.74768   0.27820   0.00000  Uiso   1.00
O403   O     0.14581   0.92803   0.26767   0.00000  Uiso   1.00
O404   O     0.07452   0.79917   0.23607   0.00000  Uiso   1.00
O405   O     0.26785   0.85845   0.21805   0.00000  Uiso   1.00
O406   O     0.06990   0.85627   0.27820   0.00000  Uiso   1.00
O407   O     0.25440   0.81944   0.26767   0.00000  Uiso   1.00
O408   O     0.13800   0.73570   0.23607   0.00000  Uiso   1.00
O409   O     0.20437   0.92193   0.21805   0.00000  Uiso   1.00
Zn410  Zn    0.19244   0.80756   0.28277   0.00000  Uiso   1.00
Zn411  Zn    0.13459   0.79044   0.22257   0.00000  Uiso   1.00
Zn412  Zn    0.21166   0.86331   0.21188   0.00000  Uiso   1.00
Zn413  Zn    0.12798   0.87202   0.28277   0.00000  Uiso   1.00
Br414  Br    0.61327   0.73297   0.01198   0.00000  Uiso   1.00
Br415  Br    0.64191   0.78085   0.29574   0.00000  Uiso   1.00
Br416  Br    0.42900   0.99438   0.29808   0.00000  Uiso   1.00
Br417  Br    0.42242   0.93546   0.39631   0.00000  Uiso   1.00
Br418  Br    0.58769   0.82465   0.40297   0.00000  Uiso   1.00
C419   C     0.38618   0.82692   0.25816   0.00000  Uiso   1.00
C420   C     0.55354   0.81899   0.45670   0.00000  Uiso   1.00
C421   C     0.57020   0.79537   0.47707   0.00000  Uiso   1.00
C422   C     0.61424   0.84019   0.24151   0.00000  Uiso   1.00
C423   C     0.55597   0.79686   0.01830   0.00000  Uiso   1.00
C424   C     0.52597   0.82514   0.03996   0.00000  Uiso   1.00
C425   C     0.57273   0.77217   0.03860   0.00000  Uiso   1.00
C426   C     0.56037   0.77620   0.07987   0.00000  Uiso   1.00
C427   C     0.51323   0.82728   0.08160   0.00000  Uiso   1.00
C428   C     0.65966   0.84402   0.23989   0.00000  Uiso   1.00
C429   C     0.34098   0.82285   0.26226   0.00000  Uiso   1.00
C430   C     0.45162   0.90316   0.41957   0.00000  Uiso   1.00
C431   C     0.51387   0.98890   0.23978   0.00000  Uiso   1.00
C432   C     0.48358   0.67943   0.26248   0.00000  Uiso   1.00
C433   C     0.48963   0.72294   0.25849   0.00000  Uiso   1.00
C434   C     0.50993   0.94432   0.24160   0.00000  Uiso   1.00
C435   C     0.52170   0.81178   0.14399   0.00000  Uiso   1.00
C436   C     0.47907   0.85514   0.35635   0.00000  Uiso   1.00
C437   C     0.47370   0.86859   0.39909   0.00000  Uiso   1.00
C438   C     0.53094   0.80383   0.10116   0.00000  Uiso   1.00
C439   C     0.44968   0.91530   0.45934   0.00000  Uiso   1.00
C440   C     0.49360   0.84765   0.41936   0.00000  Uiso   1.00
C441   C     0.49577   0.86225   0.45802   0.00000  Uiso   1.00
C442   C     0.47089   0.89476   0.47895   0.00000  Uiso   1.00
C443   C     0.51937   0.84323   0.47737   0.00000  Uiso   1.00
C444   C     0.50947   0.85009   0.01938   0.00000  Uiso   1.00
C445   C     0.48461   0.88276   0.03933   0.00000  Uiso   1.00
C446   C     0.46691   0.90556   0.01933   0.00000  Uiso   1.00
F447   F     0.44412   0.93708   0.04038   0.00000  Uiso   1.00
F448   F     0.35427   0.87017   0.21517   0.00000  Uiso   1.00
F449   F     0.54973   0.67320   0.21430   0.00000  Uiso   1.00
F450   F     0.42689   0.94744   0.47874   0.00000  Uiso   1.00
H451   H     0.48950   0.84684   0.09995   0.00000  Uiso   1.00
H452   H     0.57425   0.75825   0.09539   0.00000  Uiso   1.00
H453   H     0.59584   0.77702   0.46017   0.00000  Uiso   1.00
H454   H     0.50614   0.81882   0.40506   0.00000  Uiso   1.00
H455   H     0.47955   0.89270   0.07045   0.00000  Uiso   1.00
O456   O     0.50000   0.83333   0.25000   0.00000  Uiso   1.00
O457   O     0.49027   0.79060   0.16625   0.00000  Uiso   1.00
O458   O     0.46020   0.87313   0.33749   0.00000  Uiso   1.00
O459   O     0.54421   0.84159   0.15877   0.00000  Uiso   1.00
O460   O     0.50532   0.82802   0.33749   0.00000  Uiso   1.00
O461   O     0.51182   0.74768   0.27820   0.00000  Uiso   1.00
O462   O     0.47914   0.92803   0.26767   0.00000  Uiso   1.00
O463   O     0.40785   0.79917   0.23607   0.00000  Uiso   1.00
O464   O     0.60119   0.85845   0.21805   0.00000  Uiso   1.00
O465   O     0.40323   0.85627   0.27820   0.00000  Uiso   1.00
O466   O     0.58773   0.81944   0.26767   0.00000  Uiso   1.00
O467   O     0.47133   0.73570   0.23607   0.00000  Uiso   1.00
O468   O     0.53771   0.92193   0.21805   0.00000  Uiso   1.00
Zn469  Zn    0.52577   0.80756   0.28277   0.00000  Uiso   1.00
Zn470  Zn    0.46792   0.79044   0.22257   0.00000  Uiso   1.00
Zn471  Zn    0.54500   0.86331   0.21188   0.00000  Uiso   1.00
Zn472  Zn    0.46131   0.87202   0.28277   0.00000  Uiso   1.00
Br473  Br    0.94661   0.73297   0.01198   0.00000  Uiso   1.00
Br474  Br    0.97524   0.78085   0.29574   0.00000  Uiso   1.00
Br475  Br    0.76233   0.99438   0.29808   0.00000  Uiso   1.00
Br476  Br    0.75575   0.93546   0.39631   0.00000  Uiso   1.00
Br477  Br    0.92102   0.82465   0.40297   0.00000  Uiso   1.00
C478   C     0.71952   0.82692   0.25816   0.00000  Uiso   1.00
C479   C     0.88687   0.81899   0.45670   0.00000  Uiso   1.00
C480   C     0.90354   0.79537   0.47707   0.00000  Uiso   1.00
C481   C     0.94758   0.84019   0.24151   0.00000  Uiso   1.00
C482   C     0.88930   0.79686   0.01830   0.00000  Uiso   1.00
C483   C     0.85931   0.82514   0.03996   0.00000  Uiso   1.00
C484   C     0.90606   0.77217   0.03860   0.00000  Uiso   1.00
C485   C     0.89370   0.77620   0.07987   0.00000  Uiso   1.00
C486   C     0.84656   0.82728   0.08160   0.00000  Uiso   1.00
C487   C     0.99300   0.84402   0.23989   0.00000  Uiso   1.00
C488   C     0.67431   0.82285   0.26226   0.00000  Uiso   1.00
C489   C     0.78495   0.90316   0.41957   0.00000  Uiso   1.00
C490   C     0.84720   0.98890   0.23978   0.00000  Uiso   1.00
C491   C     0.81691   0.67943   0.26248   0.00000  Uiso   1.00
C492   C     0.82297   0.72294   0.25849   0.00000  Uiso   1.00
C493   C     0.84326   0.94432   0.24160   0.00000  Uiso   1.00
C494   C     0.85503   0.81178   0.14399   0.00000  Uiso   1.00
C495   C     0.81241   0.85514   0.35635   0.00000  Uiso   1.00
C496   C     0.80703   0.86859   0.39909   0.00000  Uiso   1.00
C497   C     0.86428   0.80383   0.10116   0.00000  Uiso   1.00
C498   C     0.78302   0.91530   0.45934   0.00000  Uiso   1.00
C499   C     0.82693   0.84765   0.41936   0.00000  Uiso   1.00
C500   C     0.82910   0.86225   0.45802   0.00000  Uiso   1.00
C501   C     0.80422   0.89476   0.47895   0.00000  Uiso   1.00
C502   C     0.85271   0.84323   0.47737   0.00000  Uiso   1.00
C503   C     0.84280   0.85009   0.01938   0.00000  Uiso   1.00
C504   C     0.81795   0.88276   0.03933   0.00000  Uiso   1.00
C505   C     0.80024   0.90556   0.01933   0.00000  Uiso   1.00
F506   F     0.77746   0.93708   0.04038   0.00000  Uiso   1.00
F507   F     0.68761   0.87017   0.21517   0.00000  Uiso   1.00
F508   F     0.88306   0.67320   0.21430   0.00000  Uiso   1.00
F509   F     0.76022   0.94744   0.47874   0.00000  Uiso   1.00
H510   H     0.82283   0.84684   0.09995   0.00000  Uiso   1.00
H511   H     0.90758   0.75825   0.09539   0.00000  Uiso   1.00
H512   H     0.92917   0.77702   0.46017   0.00000  Uiso   1.00
H513   H     0.83947   0.81882   0.40506   0.00000  Uiso   1.00
H514   H     0.81288   0.89270   0.07045   0.00000  Uiso   1.00
O515   O     0.83333   0.83333   0.25000   0.00000  Uiso   1.00
O516   O     0.82360   0.79060   0.16625   0.00000  Uiso   1.00
O517   O     0.79354   0.87313   0.33749   0.00000  Uiso   1.00
O518   O     0.87755   0.84159   0.15877   0.00000  Uiso   1.00
O519   O     0.83865   0.82802   0.33749   0.00000  Uiso   1.00
O520   O     0.84515   0.74768   0.27820   0.00000  Uiso   1.00
O521   O     0.81247   0.92803   0.26767   0.00000  Uiso   1.00
O522   O     0.74119   0.79917   0.23607   0.00000  Uiso   1.00
O523   O     0.93452   0.85845   0.21805   0.00000  Uiso   1.00
O524   O     0.73656   0.85627   0.27820   0.00000  Uiso   1.00
O525   O     0.92106   0.81944   0.26767   0.00000  Uiso   1.00
O526   O     0.80467   0.73570   0.23607   0.00000  Uiso   1.00
O527   O     0.87104   0.92193   0.21805   0.00000  Uiso   1.00
Zn528  Zn    0.85910   0.80756   0.28277   0.00000  Uiso   1.00
Zn529  Zn    0.80125   0.79044   0.22257   0.00000  Uiso   1.00
Zn530  Zn    0.87833   0.86331   0.21188   0.00000  Uiso   1.00
Zn531  Zn    0.79465   0.87202   0.28277   0.00000  Uiso   1.00
Br532  Br    0.27994   0.06630   0.51198   0.00000  Uiso   1.00
Br533  Br    0.30857   0.11418   0.79574   0.00000  Uiso   1.00
Br534  Br    0.09566   0.32771   0.79808   0.00000  Uiso   1.00
Br535  Br    0.08908   0.26879   0.89631   0.00000  Uiso   1.00
Br536  Br    0.25436   0.15798   0.90297   0.00000  Uiso   1.00
C537   C     0.05285   0.16026   0.75816   0.00000  Uiso   1.00
C538   C     0.22020   0.15232   0.95670   0.00000  Uiso   1.00
C539   C     0.23687   0.12870   0.97707   0.00000  Uiso   1.00
C540   C     0.28091   0.17353   0.74151   0.00000  Uiso   1.00
C541   C     0.22264   0.13020   0.51830   0.00000  Uiso   1.00
C542   C     0.19264   0.15848   0.53996   0.00000  Uiso   1.00
C543   C     0.23940   0.10551   0.53860   0.00000  Uiso   1.00
C544   C     0.22703   0.10954   0.57987   0.00000  Uiso   1.00
C545   C     0.17990   0.16061   0.58160   0.00000  Uiso   1.00
C546   C     0.32633   0.17735   0.73989   0.00000  Uiso   1.00
C547   C     0.00765   0.15618   0.76226   0.00000  Uiso   1.00
C548   C     0.11829   0.23649   0.91957   0.00000  Uiso   1.00
C549   C     0.18054   0.32223   0.73978   0.00000  Uiso   1.00
C550   C     0.15025   0.01276   0.76248   0.00000  Uiso   1.00
C551   C     0.15630   0.05628   0.75849   0.00000  Uiso   1.00
C552   C     0.17659   0.27765   0.74160   0.00000  Uiso   1.00
C553   C     0.18837   0.14512   0.64399   0.00000  Uiso   1.00
C554   C     0.14574   0.18848   0.85635   0.00000  Uiso   1.00
C555   C     0.14037   0.20193   0.89909   0.00000  Uiso   1.00
C556   C     0.19761   0.13717   0.60116   0.00000  Uiso   1.00
C557   C     0.11635   0.24863   0.95934   0.00000  Uiso   1.00
C558   C     0.16026   0.18099   0.91936   0.00000  Uiso   1.00
C559   C     0.16244   0.19558   0.95802   0.00000  Uiso   1.00
C560   C     0.13756   0.22810   0.97895   0.00000  Uiso   1.00
C561   C     0.18604   0.17656   0.97737   0.00000  Uiso   1.00
C562   C     0.17613   0.18343   0.51938   0.00000  Uiso   1.00
C563   C     0.15128   0.21609   0.53933   0.00000  Uiso   1.00
C564   C     0.13357   0.23889   0.51933   0.00000  Uiso   1.00
F565   F     0.11079   0.27041   0.54038   0.00000  Uiso   1.00
F566   F     0.02094   0.20351   0.71517   0.00000  Uiso   1.00
F567   F     0.21639   0.00653   0.71430   0.00000  Uiso   1.00
F568   F     0.09355   0.28077   0.97874   0.00000  Uiso   1.00
H569   H     0.15617   0.18017   0.59995   0.00000  Uiso   1.00
H570   H     0.24092   0.09159   0.59539   0.00000  Uiso   1.00
H571   H     0.26250   0.11035   0.96017   0.00000  Uiso   1.00
H572   H     0.17280   0.15216   0.90506   0.00000  Uiso   1.00
H573   H     0.14621   0.22603   0.57045   0.00000  Uiso   1.00
O574   O     0.16667   0.16667   0.75000   0.00000  Uiso   1.00
O575   O     0.15693   0.12393   0.66625   0.00000  Uiso   1.00
O576   O     0.12687   0.20646   0.83749   0.00000  Uiso   1.00
O577   O     0.21088   0.17493   0.65877   0.00000  Uiso   1.00
O578   O     0.17198   0.16135   0.83749   0.00000  Uiso   1.00
O579   O     0.17849   0.08101   0.77820   0.00000  Uiso   1.00
O580   O     0.14581   0.26136   0.76767   0.00000  Uiso   1.00
O581   O     0.07452   0.13251   0.73607   0.00000  Uiso   1.00
O582   O     0.26785   0.19179   0.71805   0.00000  Uiso   1.00
O583   O     0.06990   0.18960   0.77820   0.00000  Uiso   1.00
O584   O     0.25440   0.15277   0.76767   0.00000  Uiso   1.00
O585   O     0.13800   0.06903   0.73607   0.00000  Uiso   1.00
O586   O     0.20437   0.25527   0.71805   0.00000  Uiso   1.00
Zn587  Zn    0.19244   0.14090   0.78277   0.00000  Uiso   1.00
Zn588  Zn    0.13459   0.12378   0.72257   0.00000  Uiso   1.00
Zn589  Zn    0.21166   0.19664   0.71188   0.00000  Uiso   1.00
Zn590  Zn    0.12798   0.20535   0.78277   0.00000  Uiso   1.00
Br591  Br    0.61327   0.06630   0.51198   0.00000  Uiso   1.00
Br592  Br    0.64191   0.11418   0.79574   0.00000  Uiso   1.00
Br593  Br    0.42900   0.32771   0.79808   0.00000  Uiso   1.00
Br594  Br    0.42242   0.26879   0.89631   0.00000  Uiso   1.00
Br595  Br    0.58769   0.15798   0.90297   0.00000  Uiso   1.00
C596   C     0.38618   0.16026   0.75816   0.00000  Uiso   1.00
C597   C     0.55354   0.15232   0.95670   0.00000  Uiso   1.00
C598   C     0.57020   0.12870   0.97707   0.00000  Uiso   1.00
C599   C     0.61424   0.17353   0.74151   0.00000  Uiso   1.00
C600   C     0.55597   0.13020   0.51830   0.00000  Uiso   1.00
C601   C     0.52597   0.15848   0.53996   0.00000  Uiso   1.00
C602   C     0.57273   0.10551   0.53860   0.00000  Uiso   1.00
C603   C     0.56037   0.10954   0.57987   0.00000  Uiso   1.00
C604   C     0.51323   0.16061   0.58160   0.00000  Uiso   1.00
C605   C     0.65966   0.17735   0.73989   0.00000  Uiso   1.00
C606   C     0.34098   0.15618   0.76226   0.00000  Uiso   1.00
C607   C     0.45162   0.23649   0.91957   0.00000  Uiso   1.00
C608   C     0.51387   0.32223   0.73978   0.00000  Uiso   1.00
C609   C     0.48358   0.01276   0.76248   0.00000  Uiso   1.00
C610   C     0.48963   0.05628   0.75849   0.00000  Uiso   1.00
C611   C     0.50993   0.27765   0.74160   0.00000  Uiso   1.00
C612   C     0.52170   0.14512   0.64399   0.00000  Uiso   1.00
C613   C     0.47907   0.18848   0.85635   0.00000  Uiso   1.00
C614   C     0.47370   0.20193   0.89909   0.00000  Uiso   1.00
C615   C     0.53094   0.13717   0.60116   0.00000  Uiso   1.00
C616   C     0.44968   0.24863   0.95934   0.00000  Uiso   1.00
C617   C     0.49360   0.18099   0.91936   0.00000  Uiso   1.00
C618   C     0.49577   0.19558   0.95802   0.00000  Uiso   1.00
C619   C     0.47089   0.22810   0.97895   0.00000  Uiso   1.00
C620   C     0.51937   0.17656   0.97737   0.00000  Uiso   1.00
C621   C     0.50947   0.18343   0.51938   0.00000  Uiso   1.00
C622   C     0.48461   0.21609   0.53933   0.00000  Uiso   1.00
C623   C     0.46691   0.23889   0.51933   0.00000  Uiso   1.00
F624   F     0.44412   0.27041   0.54038   0.00000  Uiso   1.00
F625   F     0.35427   0.20351   0.71517   0.00000  Uiso   1.00
F626   F     0.54973   0.00653   0.71430   0.00000  Uiso   1.00
F627   F     0.42689   0.28077   0.97874   0.00000  Uiso   1.00
H628   H     0.48950   0.18017   0.59995   0.00000  Uiso   1.00
H629   H     0.57425   0.09159   0.59539   0.00000  Uiso   1.00
H630   H     0.59584   0.11035   0.96017   0.00000  Uiso   1.00
H631   H     0.50614   0.15216   0.90506   0.00000  Uiso   1.00
H632   H     0.47955   0.22603   0.57045   0.00000  Uiso   1.00
O633   O     0.50000   0.16667   0.75000   0.00000  Uiso   1.00
O634   O     0.49027   0.12393   0.66625   0.00000  Uiso   1.00
O635   O     0.46020   0.20646   0.83749   0.00000  Uiso   1.00
O636   O     0.54421   0.17493   0.65877   0.00000  Uiso   1.00
O637   O     0.50532   0.16135   0.83749   0.00000  Uiso   1.00
O638   O     0.51182   0.08101   0.77820   0.00000  Uiso   1.00
O639   O     0.47914   0.26136   0.76767   0.00000  Uiso   1.00
O640   O     0.40785   0.13251   0.73607   0.00000  Uiso   1.00
O641   O     0.60119   0.19179   0.71805   0.00000  Uiso   1.00
O642   O     0.40323   0.18960   0.77820   0.00000  Uiso   1.00
O643   O     0.58773   0.15277   0.76767   0.00000  Uiso   1.00
O644   O     0.47133   0.06903   0.73607   0.00000  Uiso   1.00
O645   O     0.53771   0.25527   0.71805   0.00000  Uiso   1.00
Zn646  Zn    0.52577   0.14090   0.78277   0.00000  Uiso   1.00
Zn647  Zn    0.46792   0.12378   0.72257   0.00000  Uiso   1.00
Zn648  Zn    0.54500   0.19664   0.71188   0.00000  Uiso   1.00
Zn649  Zn    0.46131   0.20535   0.78277   0.00000  Uiso   1.00
Br650  Br    0.94661   0.06630   0.51198   0.00000  Uiso   1.00
Br651  Br    0.97524   0.11418   0.79574   0.00000  Uiso   1.00
Br652  Br    0.76233   0.32771   0.79808   0.00000  Uiso   1.00
Br653  Br    0.75575   0.26879   0.89631   0.00000  Uiso   1.00
Br654  Br    0.92102   0.15798   0.90297   0.00000  Uiso   1.00
C655   C     0.71952   0.16026   0.75816   0.00000  Uiso   1.00
C656   C     0.88687   0.15232   0.95670   0.00000  Uiso   1.00
C657   C     0.90354   0.12870   0.97707   0.00000  Uiso   1.00
C658   C     0.94758   0.17353   0.74151   0.00000  Uiso   1.00
C659   C     0.88930   0.13020   0.51830   0.00000  Uiso   1.00
C660   C     0.85931   0.15848   0.53996   0.00000  Uiso   1.00
C661   C     0.90606   0.10551   0.53860   0.00000  Uiso   1.00
C662   C     0.89370   0.10954   0.57987   0.00000  Uiso   1.00
C663   C     0.84656   0.16061   0.58160   0.00000  Uiso   1.00
C664   C     0.99300   0.17735   0.73989   0.00000  Uiso   1.00
C665   C     0.67431   0.15618   0.76226   0.00000  Uiso   1.00
C666   C     0.78495   0.23649   0.91957   0.00000  Uiso   1.00
C667   C     0.84720   0.32223   0.73978   0.00000  Uiso   1.00
C668   C     0.81691   0.01276   0.76248   0.00000  Uiso   1.00
C669   C     0.82297   0.05628   0.75849   0.00000  Uiso   1.00
C670   C     0.84326   0.27765   0.74160   0.00000  Uiso   1.00
C671   C     0.85503   0.14512   0.64399   0.00000  Uiso   1.00
C672   C     0.81241   0.18848   0.85635   0.00000  Uiso   1.00
C673   C     0.80703   0.20193   0.89909   0.00000  Uiso   1.00
C674   C     0.86428   0.13717   0.60116   0.00000  Uiso   1.00
C675   C     0.78302   0.24863   0.95934   0.00000  Uiso   1.00
C676   C     0.82693   0.18099   0.91936   0.00000  Uiso   1.00
C677   C     0.82910   0.19558   0.95802   0.00000  Uiso   1.00
C678   C     0.80422   0.22810   0.97895   0.00000  Uiso   1.00
C679   C     0.85271   0.17656   0.97737   0.00000  Uiso   1.00
C680   C     0.84280   0.18343   0.51938   0.00000  Uiso   1.00
C681   C     0.81795   0.21609   0.53933   0.00000  Uiso   1.00
C682   C     0.80024   0.23889   0.51933   0.00000  Uiso   1.00
F683   F     0.77746   0.27041   0.54038   0.00000  Uiso   1.00
F684   F     0.68761   0.20351   0.71517   0.00000  Uiso   1.00
F685   F     0.88306   0.00653   0.71430   0.00000  Uiso   1.00
F686   F     0.76022   0.28077   0.97874   0.00000  Uiso   1.00
H687   H     0.82283   0.18017   0.59995   0.00000  Uiso   1.00
H688   H     0.90758   0.09159   0.59539   0.00000  Uiso   1.00
H689   H     0.92917   0.11035   0.96017   0.00000  Uiso   1.00
H690   H     0.83947   0.15216   0.90506   0.00000  Uiso   1.00
H691   H     0.81288   0.22603   0.57045   0.00000  Uiso   1.00
O692   O     0.83333   0.16667   0.75000   0.00000  Uiso   1.00
O693   O     0.82360   0.12393   0.66625   0.00000  Uiso   1.00
O694   O     0.79354   0.20646   0.83749   0.00000  Uiso   1.00
O695   O     0.87755   0.17493   0.65877   0.00000  Uiso   1.00
O696   O     0.83865   0.16135   0.83749   0.00000  Uiso   1.00
O697   O     0.84515   0.08101   0.77820   0.00000  Uiso   1.00
O698   O     0.81247   0.26136   0.76767   0.00000  Uiso   1.00
O699   O     0.74119   0.13251   0.73607   0.00000  Uiso   1.00
O700   O     0.93452   0.19179   0.71805   0.00000  Uiso   1.00
O701   O     0.73656   0.18960   0.77820   0.00000  Uiso   1.00
O702   O     0.92106   0.15277   0.76767   0.00000  Uiso   1.00
O703   O     0.80467   0.06903   0.73607   0.00000  Uiso   1.00
O704   O     0.87104   0.25527   0.71805   0.00000  Uiso   1.00
Zn705  Zn    0.85910   0.14090   0.78277   0.00000  Uiso   1.00
Zn706  Zn    0.80125   0.12378   0.72257   0.00000  Uiso   1.00
Zn707  Zn    0.87833   0.19664   0.71188   0.00000  Uiso   1.00
Zn708  Zn    0.79465   0.20535   0.78277   0.00000  Uiso   1.00
Br709  Br    0.27994   0.39963   0.51198   0.00000  Uiso   1.00
Br710  Br    0.30857   0.44752   0.79574   0.00000  Uiso   1.00
Br711  Br    0.09566   0.66105   0.79808   0.00000  Uiso   1.00
Br712  Br    0.08908   0.60213   0.89631   0.00000  Uiso   1.00
Br713  Br    0.25436   0.49131   0.90297   0.00000  Uiso   1.00
C714   C     0.05285   0.49359   0.75816   0.00000  Uiso   1.00
C715   C     0.22020   0.48565   0.95670   0.00000  Uiso   1.00
C716   C     0.23687   0.46204   0.97707   0.00000  Uiso   1.00
C717   C     0.28091   0.50686   0.74151   0.00000  Uiso   1.00
C718   C     0.22264   0.46353   0.51830   0.00000  Uiso   1.00
C719   C     0.19264   0.49181   0.53996   0.00000  Uiso   1.00
C720   C     0.23940   0.43884   0.53860   0.00000  Uiso   1.00
C721   C     0.22703   0.44287   0.57987   0.00000  Uiso   1.00
C722   C     0.17990   0.49395   0.58160   0.00000  Uiso   1.00
C723   C     0.32633   0.51068   0.73989   0.00000  Uiso   1.00
C724   C     0.00765   0.48952   0.76226   0.00000  Uiso   1.00
C725   C     0.11829   0.56982   0.91957   0.00000  Uiso   1.00
C726   C     0.18054   0.65557   0.73978   0.00000  Uiso   1.00
C727   C     0.15025   0.34610   0.76248   0.00000  Uiso   1.00
C728   C     0.15630   0.38961   0.75849   0.00000  Uiso   1.00
C729   C     0.17659   0.61098   0.74160   0.00000  Uiso   1.00
C730   C     0.18837   0.47845   0.64399   0.00000  Uiso   1.00
C731   C     0.14574   0.52181   0.85635   0.00000  Uiso   1.00
C732   C     0.14037   0.53526   0.89909   0.00000  Uiso   1.00
C733   C     0.19761   0.47050   0.60116   0.00000  Uiso   1.00
C734   C     0.11635   0.58197   0.95934   0.00000  Uiso   1.00
C735   C     0.16026   0.51432   0.91936   0.00000  Uiso   1.00
C736   C     0.16244   0.52892   0.95802   0.00000  Uiso   1.00
C737   C     0.13756   0.56143   0.97895   0.00000  Uiso   1.00
C738   C     0.18604   0.50990   0.97737   0.00000  Uiso   1.00
C739   C     0.17613   0.51676   0.51938   0.00000  Uiso   1.00
C740   C     0.15128   0.54942   0.53933   0.00000  Uiso   1.00
C741   C     0.13357   0.57223   0.51933   0.00000  Uiso   1.00
F742   F     0.11079   0.60374   0.54038   0.00000  Uiso   1.00
F743   F     0.02094   0.53684   0.71517   0.00000  Uiso   1.00
F744   F     0.21639   0.33986   0.71430   0.00000  Uiso   1.00
F745   F     0.09355   0.61410   0.97874   0.00000  Uiso   1.00
H746   H     0.15617   0.51351   0.59995   0.00000  Uiso   1.00
H747   H     0.24092   0.42492   0.59539   0.00000  Uiso   1.00
H748   H     0.26250   0.44369   0.96017   0.00000  Uiso   1.00
H749   H     0.17280   0.48549   0.90506   0.00000  Uiso   1.00
H750   H     0.14621   0.55937   0.57045   0.00000  Uiso   1.00
O751   O     0.16667   0.50000   0.75000   0.00000  Uiso   1.00
O752   O     0.15693   0.45726   0.66625   0.00000  Uiso   1.00
O753   O     0.12687   0.53979   0.83749   0.00000  Uiso   1.00
O754   O     0.21088   0.50826   0.65877   0.00000  Uiso   1.00
O755   O     0.17198   0.49468   0.83749   0.00000  Uiso   1.00
O756   O     0.17849   0.41434   0.77820   0.00000  Uiso   1.00
O757   O     0.14581   0.59469   0.76767   0.00000  Uiso   1.00
O758   O     0.07452   0.46584   0.73607   0.00000  Uiso   1.00
O759   O     0.26785   0.52512   0.71805   0.00000  Uiso   1.00
O760   O     0.06990   0.52293   0.77820   0.00000  Uiso   1.00
O761   O     0.25440   0.48610   0.76767   0.00000  Uiso   1.00
O762   O     0.13800   0.40236   0.73607   0.00000  Uiso   1.00
O763   O     0.20437   0.58860   0.71805   0.00000  Uiso   1.00
Zn764  Zn    0.19244   0.47423   0.78277   0.00000  Uiso   1.00
Zn765  Zn    0.13459   0.45711   0.72257   0.00000  Uiso   1.00
Zn766  Zn    0.21166   0.52997   0.71188   0.00000  Uiso   1.00
Zn767  Zn    0.12798   0.53868   0.78277   0.00000  Uiso   1.00
Br768  Br    0.61327   0.39963   0.51198   0.00000  Uiso   1.00
Br769  Br    0.64191   0.44752   0.79574   0.00000  Uiso   1.00
Br770  Br    0.42900   0.66105   0.79808   0.00000  Uiso   1.00
Br771  Br    0.42242   0.60213   0.89631   0.00000  Uiso   1.00
Br772  Br    0.58769   0.49131   0.90297   0.00000  Uiso   1.00
C773   C     0.38618   0.49359   0.75816   0.00000  Uiso   1.00
C774   C     0.55354   0.48565   0.95670   0.00000  Uiso   1.00
C775   C     0.57020   0.46204   0.97707   0.00000  Uiso   1.00
C776   C     0.61424   0.50686   0.74151   0.00000  Uiso   1.00
C777   C     0.55597   0.46353   0.51830   0.00000  Uiso   1.00
C778   C     0.52597   0.49181   0.53996   0.00000  Uiso   1.00
C779   C     0.57273   0.43884   0.53860   0.00000  Uiso   1.00
C780   C     0.56037   0.44287   0.57987   0.00000  Uiso   1.00
C781   C     0.51323   0.49395   0.58160   0.00000  Uiso   1.00
C782   C     0.65966   0.51068   0.73989   0.00000  Uiso   1.00
C783   C     0.34098   0.48952   0.76226   0.00000  Uiso   1.00
C784   C     0.45162   0.56982   0.91957   0.00000  Uiso   1.00
C785   C     0.51387   0.65557   0.73978   0.00000  Uiso   1.00
C786   C     0.48358   0.34610   0.76248   0.00000  Uiso   1.00
C787   C     0.48963   0.38961   0.75849   0.00000  Uiso   1.00
C788   C     0.50993   0.61098   0.74160   0.00000  Uiso   1.00
C789   C     0.52170   0.47845   0.64399   0.00000  Uiso   1.00
C790   C     0.47907   0.52181   0.85635   0.00000  Uiso   1.00
C791   C     0.47370   0.53526   0.89909   0.00000  Uiso   1.00
C792   C     0.53094   0.47050   0.60116   0.00000  Uiso   1.00
C793   C     0.44968   0.58197   0.95934   0.00000  Uiso   1.00
C794   C     0.49360   0.51432   0.91936   0.00000  Uiso   1.00
C795   C     0.49577   0.52892   0.95802   0.00000  Uiso   1.00
C796   C     0.47089   0.56143   0.97895   0.00000  Uiso   1.00
C797   C     0.51937   0.50990   0.97737   0.00000  Uiso   1.00
C798   C     0.50947   0.51676   0.51938   0.00000  Uiso   1.00
C799   C     0.48461   0.54942   0.53933   0.00000  Uiso   1.00
C800   C     0.46691   0.57223   0.51933   0.00000  Uiso   1.00
F801   F     0.44412   0.60374   0.54038   0.00000  Uiso   1.00
F802   F     0.35427   0.53684   0.71517   0.00000  Uiso   1.00
F803   F     0.54973   0.33986   0.71430   0.00000  Uiso   1.00
F804   F     0.42689   0.61410   0.97874   0.00000  Uiso   1.00
H805   H     0.48950   0.51351   0.59995   0.00000  Uiso   1.00
H806   H     0.57425   0.42492   0.59539   0.00000  Uiso   1.00
H807   H     0.59584   0.44369   0.96017   0.00000  Uiso   1.00
H808   H     0.50614   0.48549   0.90506   0.00000  Uiso   1.00
H809   H     0.47955   0.55937   0.57045   0.00000  Uiso   1.00
O810   O     0.50000   0.50000   0.75000   0.00000  Uiso   1.00
O811   O     0.49027   0.45726   0.66625   0.00000  Uiso   1.00
O812   O     0.46020   0.53979   0.83749   0.00000  Uiso   1.00
O813   O     0.54421   0.50826   0.65877   0.00000  Uiso   1.00
O814   O     0.50532   0.49468   0.83749   0.00000  Uiso   1.00
O815   O     0.51182   0.41434   0.77820   0.00000  Uiso   1.00
O816   O     0.47914   0.59469   0.76767   0.00000  Uiso   1.00
O817   O     0.40785   0.46584   0.73607   0.00000  Uiso   1.00
O818   O     0.60119   0.52512   0.71805   0.00000  Uiso   1.00
O819   O     0.40323   0.52293   0.77820   0.00000  Uiso   1.00
O820   O     0.58773   0.48610   0.76767   0.00000  Uiso   1.00
O821   O     0.47133   0.40236   0.73607   0.00000  Uiso   1.00
O822   O     0.53771   0.58860   0.71805   0.00000  Uiso   1.00
Zn823  Zn    0.52577   0.47423   0.78277   0.00000  Uiso   1.00
Zn824  Zn    0.46792   0.45711   0.72257   0.00000  Uiso   1.00
Zn825  Zn    0.54500   0.52997   0.71188   0.00000  Uiso   1.00
Zn826  Zn    0.46131   0.53868   0.78277   0.00000  Uiso   1.00
Br827  Br    0.94661   0.39963   0.51198   0.00000  Uiso   1.00
Br828  Br    0.97524   0.44752   0.79574   0.00000  Uiso   1.00
Br829  Br    0.76233   0.66105   0.79808   0.00000  Uiso   1.00
Br830  Br    0.75575   0.60213   0.89631   0.00000  Uiso   1.00
Br831  Br    0.92102   0.49131   0.90297   0.00000  Uiso   1.00
C832   C     0.71952   0.49359   0.75816   0.00000  Uiso   1.00
C833   C     0.88687   0.48565   0.95670   0.00000  Uiso   1.00
C834   C     0.90354   0.46204   0.97707   0.00000  Uiso   1.00
C835   C     0.94758   0.50686   0.74151   0.00000  Uiso   1.00
C836   C     0.88930   0.46353   0.51830   0.00000  Uiso   1.00
C837   C     0.85931   0.49181   0.53996   0.00000  Uiso   1.00
C838   C     0.90606   0.43884   0.53860   0.00000  Uiso   1.00
C839   C     0.89370   0.44287   0.57987   0.00000  Uiso   1.00
C840   C     0.84656   0.49395   0.58160   0.00000  Uiso   1.00
C841   C     0.99300   0.51068   0.73989   0.00000  Uiso   1.00
C842   C     0.67431   0.48952   0.76226   0.00000  Uiso   1.00
C843   C     0.78495   0.56982   0.91957   0.00000  Uiso   1.00
C844   C     0.84720   0.65557   0.73978   0.00000  Uiso   1.00
C845   C     0.81691   0.34610   0.76248   0.00000  Uiso   1.00
C846   C     0.82297   0.38961   0.75849   0.00000  Uiso   1.00
C847   C     0.84326   0.61098   0.74160   0.00000  Uiso   1.00
C848   C     0.85503   0.47845   0.64399   0.00000  Uiso   1.00
C849   C     0.81241   0.52181   0.85635   0.00000  Uiso   1.00
C850   C     0.80703   0.53526   0.89909   0.00000  Uiso   1.00
C851   C     0.86428   0.47050   0.60116   0.00000  Uiso   1.00
C852   C     0.78302   0.58197   0.95934   0.00000  Uiso   1.00
C853   C     0.82693   0.51432   0.91936   0.00000  Uiso   1.00
C854   C     0.82910   0.52892   0.95802   0.00000  Uiso   1.00
C855   C     0.80422   0.56143   0.97895   0.00000  Uiso   1.00
C856   C     0.85271   0.50990   0.97737   0.00000  Uiso   1.00
C857   C     0.84280   0.51676   0.51938   0.00000  Uiso   1.00
C858   C     0.81795   0.54942   0.53933   0.00000  Uiso   1.00
C859   C     0.80024   0.57223   0.51933   0.00000  Uiso   1.00
F860   F     0.77746   0.60374   0.54038   0.00000  Uiso   1.00
F861   F     0.68761   0.53684   0.71517   0.00000  Uiso   1.00
F862   F     0.88306   0.33986   0.71430   0.00000  Uiso   1.00
F863   F     0.76022   0.61410   0.97874   0.00000  Uiso   1.00
H864   H     0.82283   0.51351   0.59995   0.00000  Uiso   1.00
H865   H     0.90758   0.42492   0.59539   0.00000  Uiso   1.00
H866   H     0.92917   0.44369   0.96017   0.00000  Uiso   1.00
H867   H     0.83947   0.48549   0.90506   0.00000  Uiso   1.00
H868   H     0.81288   0.55937   0.57045   0.00000  Uiso   1.00
O869   O     0.83333   0.50000   0.75000   0.00000  Uiso   1.00
O870   O     0.82360   0.45726   0.66625   0.00000  Uiso   1.00
O871   O     0.79354   0.53979   0.83749   0.00000  Uiso   1.00
O872   O     0.87755   0.50826   0.65877   0.00000  Uiso   1.00
O873   O     0.83865   0.49468   0.83749   0.00000  Uiso   1.00
O874   O     0.84515   0.41434   0.77820   0.00000  Uiso   1.00
O875   O     0.81247   0.59469   0.76767   0.00000  Uiso   1.00
O876   O     0.74119   0.46584   0.73607   0.00000  Uiso   1.00
O877   O     0.93452   0.52512   0.71805   0.00000  Uiso   1.00
O878   O     0.73656   0.52293   0.77820   0.00000  Uiso   1.00
O879   O     0.92106   0.48610   0.76767   0.00000  Uiso   1.00
O880   O     0.80467   0.40236   0.73607   0.00000  Uiso   1.00
O881   O     0.87104   0.58860   0.71805   0.00000  Uiso   1.00
Zn882  Zn    0.85910   0.47423   0.78277   0.00000  Uiso   1.00
Zn883  Zn    0.80125   0.45711   0.72257   0.00000  Uiso   1.00
Zn884  Zn    0.87833   0.52997   0.71188   0.00000  Uiso   1.00
Zn885  Zn    0.79465   0.53868   0.78277   0.00000  Uiso   1.00
Br886  Br    0.27994   0.73297   0.51198   0.00000  Uiso   1.00
Br887  Br    0.30857   0.78085   0.79574   0.00000  Uiso   1.00
Br888  Br    0.09566   0.99438   0.79808   0.00000  Uiso   1.00
Br889  Br    0.08908   0.93546   0.89631   0.00000  Uiso   1.00
Br890  Br    0.25436   0.82465   0.90297   0.00000  Uiso   1.00
C891   C     0.05285   0.82692   0.75816   0.00000  Uiso   1.00
C892   C     0.22020   0.81899   0.95670   0.00000  Uiso   1.00
C893   C     0.23687   0.79537   0.97707   0.00000  Uiso   1.00
C894   C     0.28091   0.84019   0.74151   0.00000  Uiso   1.00
C895   C     0.22264   0.79686   0.51830   0.00000  Uiso   1.00
C896   C     0.19264   0.82514   0.53996   0.00000  Uiso   1.00
C897   C     0.23940   0.77217   0.53860   0.00000  Uiso   1.00
C898   C     0.22703   0.77620   0.57987   0.00000  Uiso   1.00
C899   C     0.17990   0.82728   0.58160   0.00000  Uiso   1.00
C900   C     0.32633   0.84402   0.73989   0.00000  Uiso   1.00
C901   C     0.00765   0.82285   0.76226   0.00000  Uiso   1.00
C902   C     0.11829   0.90316   0.91957   0.00000  Uiso   1.00
C903   C     0.18054   0.98890   0.73978   0.00000  Uiso   1.00
C904   C     0.15025   0.67943   0.76248   0.00000  Uiso   1.00
C905   C     0.15630   0.72294   0.75849   0.00000  Uiso   1.00
C906   C     0.17659   0.94432   0.74160   0.00000  Uiso   1.00
C907   C     0.18837   0.81178   0.64399   0.00000  Uiso   1.00
C908   C     0.14574   0.85514   0.85635   0.00000  Uiso   1.00
C909   C     0.14037   0.86859   0.89909   0.00000  Uiso   1.00
C910   C     0.19761   0.80383   0.60116   0.00000  Uiso   1.00
C911   C     0.11635   0.91530   0.95934   0.00000  Uiso   1.00
C912   C     0.16026   0.84765   0.91936   0.00000  Uiso   1.00
C913   C     0.16244   0.86225   0.95802   0.00000  Uiso   1.00
C914   C     0.13756   0.89476   0.97895   0.00000  Uiso   1.00
C915   C     0.18604   0.84323   0.97737   0.00000  Uiso   1.00
C916   C     0.17613   0.85009   0.51938   0.00000  Uiso   1.00
C917   C     0.15128   0.88276   0.53933   0.00000  Uiso   1.00
C918   C     0.13357   0.90556   0.51933   0.00000  Uiso   1.00
F919   F     0.11079   0.93708   0.54038   0.00000  Uiso   1.00
F920   F     0.02094   0.87017   0.71517   0.00000  Uiso   1.00
F921   F     0.21639   0.67320   0.71430   0.00000  Uiso   1.00
F922   F     0.09355   0.94744   0.97874   0.00000  Uiso   1.00
H923   H     0.15617   0.84684   0.59995   0.00000  Uiso   1.00
H924   H     0.24092   0.75825   0.59539   0.00000  Uiso   1.00
H925   H     0.26250   0.77702   0.96017   0.00000  Uiso   1.00
H926   H     0.17280   0.81882   0.90506   0.00000  Uiso   1.00
H927   H     0.14621   0.89270   0.57045   0.00000  Uiso   1.00
O928   O     0.16667   0.83333   0.75000   0.00000  Uiso   1.00
O929   O     0.15693   0.79060   0.66625   0.00000  Uiso   1.00
O930   O     0.12687   0.87313   0.83749   0.00000  Uiso   1.00
O931   O     0.21088   0.84159   0.65877   0.00000  Uiso   1.00
O932   O     0.17198   0.82802   0.83749   0.00000  Uiso   1.00
O933   O     0.17849   0.74768   0.77820   0.00000  Uiso   1.00
O934   O     0.14581   0.92803   0.76767   0.00000  Uiso   1.00
O935   O     0.07452   0.79917   0.73607   0.00000  Uiso   1.00
O936   O     0.26785   0.85845   0.71805   0.00000  Uiso   1.00
O937   O     0.06990   0.85627   0.77820   0.00000  Uiso   1.00
O938   O     0.25440   0.81944   0.76767   0.00000  Uiso   1.00
O939   O     0.13800   0.73570   0.73607   0.00000  Uiso   1.00
O940   O     0.20437   0.92193   0.71805   0.00000  Uiso   1.00
Zn941  Zn    0.19244   0.80756   0.78277   0.00000  Uiso   1.00
Zn942  Zn    0.13459   0.79044   0.72257   0.00000  Uiso   1.00
Zn943  Zn    0.21166   0.86331   0.71188   0.00000  Uiso   1.00
Zn944  Zn    0.12798   0.87202   0.78277   0.00000  Uiso   1.00
Br945  Br    0.61327   0.73297   0.51198   0.00000  Uiso   1.00
Br946  Br    0.64191   0.78085   0.79574   0.00000  Uiso   1.00
Br947  Br    0.42900   0.99438   0.79808   0.00000  Uiso   1.00
Br948  Br    0.42242   0.93546   0.89631   0.00000  Uiso   1.00
Br949  Br    0.58769   0.82465   0.90297   0.00000  Uiso   1.00
C950   C     0.38618   0.82692   0.75816   0.00000  Uiso   1.00
C951   C     0.55354   0.81899   0.95670   0.00000  Uiso   1.00
C952   C     0.57020   0.79537   0.97707   0.00000  Uiso   1.00
C953   C     0.61424   0.84019   0.74151   0.00000  Uiso   1.00
C954   C     0.55597   0.79686   0.51830   0.00000  Uiso   1.00
C955   C     0.52597   0.82514   0.53996   0.00000  Uiso   1.00
C956   C     0.57273   0.77217   0.53860   0.00000  Uiso   1.00
C957   C     0.56037   0.77620   0.57987   0.00000  Uiso   1.00
C958   C     0.51323   0.82728   0.58160   0.00000  Uiso   1.00
C959   C     0.65966   0.84402   0.73989   0.00000  Uiso   1.00
C960   C     0.34098   0.82285   0.76226   0.00000  Uiso   1.00
C961   C     0.45162   0.90316   0.91957   0.00000  Uiso   1.00
C962   C     0.51387   0.98890   0.73978   0.00000  Uiso   1.00
C963   C     0.48358   0.67943   0.76248   0.00000  Uiso   1.00
C964   C     0.48963   0.72294   0.75849   0.00000  Uiso   1.00
C965   C     0.50993   0.94432   0.74160   0.00000  Uiso   1.00
C966   C     0.52170   0.81178   0.64399   0.00000  Uiso   1.00
C967   C     0.47907   0.85514   0.85635   0.00000  Uiso   1.00
C968   C     0.47370   0.86859   0.89909   0.00000  Uiso   1.00
C969   C     0.53094   0.80383   0.60116   0.00000  Uiso   1.00
C970   C     0.44968   0.91530   0.95934   0.00000  Uiso   1.00
C971   C     0.49360   0.84765   0.91936   0.00000  Uiso   1.00
C972   C     0.49577   0.86225   0.95802   0.00000  Uiso   1.00
C973   C     0.47089   0.89476   0.97895   0.00000  Uiso   1.00
C974   C     0.51937   0.84323   0.97737   0.00000  Uiso   1.00
C975   C     0.50947   0.85009   0.51938   0.00000  Uiso   1.00
C976   C     0.48461   0.88276   0.53933   0.00000  Uiso   1.00
C977   C     0.46691   0.90556   0.51933   0.00000  Uiso   1.00
F978   F     0.44412   0.93708   0.54038   0.00000  Uiso   1.00
F979   F     0.35427   0.87017   0.71517   0.00000  Uiso   1.00
F980   F     0.54973   0.67320   0.71430   0.00000  Uiso   1.00
F981   F     0.42689   0.94744   0.97874   0.00000  Uiso   1.00
H982   H     0.48950   0.84684   0.59995   0.00000  Uiso   1.00
H983   H     0.57425   0.75825   0.59539   0.00000  Uiso   1.00
H984   H     0.59584   0.77702   0.96017   0.00000  Uiso   1.00
H985   H     0.50614   0.81882   0.90506   0.00000  Uiso   1.00
H986   H     0.47955   0.89270   0.57045   0.00000  Uiso   1.00
O987   O     0.50000   0.83333   0.75000   0.00000  Uiso   1.00
O988   O     0.49027   0.79060   0.66625   0.00000  Uiso   1.00
O989   O     0.46020   0.87313   0.83749   0.00000  Uiso   1.00
O990   O     0.54421   0.84159   0.65877   0.00000  Uiso   1.00
O991   O     0.50532   0.82802   0.83749   0.00000  Uiso   1.00
O992   O     0.51182   0.74768   0.77820   0.00000  Uiso   1.00
O993   O     0.47914   0.92803   0.76767   0.00000  Uiso   1.00
O994   O     0.40785   0.79917   0.73607   0.00000  Uiso   1.00
O995   O     0.60119   0.85845   0.71805   0.00000  Uiso   1.00
O996   O     0.40323   0.85627   0.77820   0.00000  Uiso   1.00
O997   O     0.58773   0.81944   0.76767   0.00000  Uiso   1.00
O998   O     0.47133   0.73570   0.73607   0.00000  Uiso   1.00
O999   O     0.53771   0.92193   0.71805   0.00000  Uiso   1.00
Zn1000 Zn    0.52577   0.80756   0.78277   0.00000  Uiso   1.00
Zn1001 Zn    0.46792   0.79044   0.72257   0.00000  Uiso   1.00
Zn1002 Zn    0.54500   0.86331   0.71188   0.00000  Uiso   1.00
Zn1003 Zn    0.46131   0.87202   0.78277   0.00000  Uiso   1.00
Br1004 Br    0.94661   0.73297   0.51198   0.00000  Uiso   1.00
Br1005 Br    0.97524   0.78085   0.79574   0.00000  Uiso   1.00
Br1006 Br    0.76233   0.99438   0.79808   0.00000  Uiso   1.00
Br1007 Br    0.75575   0.93546   0.89631   0.00000  Uiso   1.00
Br1008 Br    0.92102   0.82465   0.90297   0.00000  Uiso   1.00
C1009  C     0.71952   0.82692   0.75816   0.00000  Uiso   1.00
C1010  C     0.88687   0.81899   0.95670   0.00000  Uiso   1.00
C1011  C     0.90354   0.79537   0.97707   0.00000  Uiso   1.00
C1012  C     0.94758   0.84019   0.74151   0.00000  Uiso   1.00
C1013  C     0.88930   0.79686   0.51830   0.00000  Uiso   1.00
C1014  C     0.85931   0.82514   0.53996   0.00000  Uiso   1.00
C1015  C     0.90606   0.77217   0.53860   0.00000  Uiso   1.00
C1016  C     0.89370   0.77620   0.57987   0.00000  Uiso   1.00
C1017  C     0.84656   0.82728   0.58160   0.00000  Uiso   1.00
C1018  C     0.99300   0.84402   0.73989   0.00000  Uiso   1.00
C1019  C     0.67431   0.82285   0.76226   0.00000  Uiso   1.00
C1020  C     0.78495   0.90316   0.91957   0.00000  Uiso   1.00
C1021  C     0.84720   0.98890   0.73978   0.00000  Uiso   1.00
C1022  C     0.81691   0.67943   0.76248   0.00000  Uiso   1.00
C1023  C     0.82297   0.72294   0.75849   0.00000  Uiso   1.00
C1024  C     0.84326   0.94432   0.74160   0.00000  Uiso   1.00
C1025  C     0.85503   0.81178   0.64399   0.00000  Uiso   1.00
C1026  C     0.81241   0.85514   0.85635   0.00000  Uiso   1.00
C1027  C     0.80703   0.86859   0.89909   0.00000  Uiso   1.00
C1028  C     0.86428   0.80383   0.60116   0.00000  Uiso   1.00
C1029  C     0.78302   0.91530   0.95934   0.00000  Uiso   1.00
C1030  C     0.82693   0.84765   0.91936   0.00000  Uiso   1.00
C1031  C     0.82910   0.86225   0.95802   0.00000  Uiso   1.00
C1032  C     0.80422   0.89476   0.97895   0.00000  Uiso   1.00
C1033  C     0.85271   0.84323   0.97737   0.00000  Uiso   1.00
C1034  C     0.84280   0.85009   0.51938   0.00000  Uiso   1.00
C1035  C     0.81795   0.88276   0.53933   0.00000  Uiso   1.00
C1036  C     0.80024   0.90556   0.51933   0.00000  Uiso   1.00
F1037  F     0.77746   0.93708   0.54038   0.00000  Uiso   1.00
F1038  F     0.68761   0.87017   0.71517   0.00000  Uiso   1.00
F1039  F     0.88306   0.67320   0.71430   0.00000  Uiso   1.00
F1040  F     0.76022   0.94744   0.97874   0.00000  Uiso   1.00
H1041  H     0.82283   0.84684   0.59995   0.00000  Uiso   1.00
H1042  H     0.90758   0.75825   0.59539   0.00000  Uiso   1.00
H1043  H     0.92917   0.77702   0.96017   0.00000  Uiso   1.00
H1044  H     0.83947   0.81882   0.90506   0.00000  Uiso   1.00
H1045  H     0.81288   0.89270   0.57045   0.00000  Uiso   1.00
O1046  O     0.83333   0.83333   0.75000   0.00000  Uiso   1.00
O1047  O     0.82360   0.79060   0.66625   0.00000  Uiso   1.00
O1048  O     0.79354   0.87313   0.83749   0.00000  Uiso   1.00
O1049  O     0.87755   0.84159   0.65877   0.00000  Uiso   1.00
O1050  O     0.83865   0.82802   0.83749   0.00000  Uiso   1.00
O1051  O     0.84515   0.74768   0.77820   0.00000  Uiso   1.00
O1052  O     0.81247   0.92803   0.76767   0.00000  Uiso   1.00
O1053  O     0.74119   0.79917   0.73607   0.00000  Uiso   1.00
O1054  O     0.93452   0.85845   0.71805   0.00000  Uiso   1.00
O1055  O     0.73656   0.85627   0.77820   0.00000  Uiso   1.00
O1056  O     0.92106   0.81944   0.76767   0.00000  Uiso   1.00
O1057  O     0.80467   0.73570   0.73607   0.00000  Uiso   1.00
O1058  O     0.87104   0.92193   0.71805   0.00000  Uiso   1.00
Zn1059 Zn    0.85910   0.80756   0.78277   0.00000  Uiso   1.00
Zn1060 Zn    0.80125   0.79044   0.72257   0.00000  Uiso   1.00
Zn1061 Zn    0.87833   0.86331   0.71188   0.00000  Uiso   1.00
Zn1062 Zn    0.79465   0.87202   0.78277   0.00000  Uiso   1.00
loop_
_geom_bond_atom_site_label_1
_geom_bond_atom_site_label_2
_geom_bond_distance
_geom_bond_site_symmetry_2
_ccdc_geom_bond_type
Br1    C12     1.923   .     S
Br2    C75     1.932   .     S
Br3    C196    1.931   .     S
Br4    C17     1.930   .     S
Br5    C7      1.930   .     S
C6     O50     1.262   .     A
C6     C16     1.429   .     S
C6     O52     1.269   .     A
C7     C8      1.392   .     A
C7     C30     1.422   .     A
C8     H40     1.081   .     S
C8     C541    1.398   .     S
C9     C15     1.456   .     S
C9     O53     1.271   .     A
C9     O51     1.290   .     A
C10    C12     1.416   .     A
C10    C11     1.422   .     A
C10    C539    1.398   1_554 S
C11    C31     1.424   .     A
C11    C14     1.410   .     A
C12    C13     1.395   .     A
C13    C25     1.393   .     A
C13    H39     1.084   .     S
C14    H38     1.078   .     S
C14    C25     1.389   .     A
C15    C75     1.350   .     S
C15    F94     1.363   .     S
C16    Br120   1.932   1_455 S
C16    C133    1.350   1_455 S
C17    C26     1.397   .     A
C17    C24     1.419   .     A
C18    C21     1.452   .     S
C18    C196    1.346   .     S
C18    F213    1.363   .     S
C19    C20     1.428   .     S
C19    C372    1.346   1_545 S
C19    Br357   1.931   1_545 S
C20    O48     1.276   .     A
C20    O54     1.272   .     A
C21    O49     1.263   .     A
C21    O55     1.276   .     A
C22    O46     1.277   .     A
C22    O44     1.279   .     A
C22    C25     1.454   .     S
C23    C24     1.484   .     S
C23    O45     1.281   .     A
C23    O47     1.297   .     A
C24    C27     1.401   .     A
C26    F37     1.359   .     S
C26    C29     1.405   .     A
C27    H41     1.079   .     S
C27    C28     1.406   .     A
C28    C30     1.426   .     A
C28    C29     1.417   .     A
C29    C564    1.399   .     S
C30    C562    1.423   .     S
C31    C32     1.413   .     A
C31    C561    1.423   1_554 S
C32    C33     1.386   .     A
C32    H42     1.077   .     S
C33    F34     1.359   .     S
C33    C560    1.399   1_554 S
F35    C133    1.363   1_455 S
F36    C372    1.363   1_545 S
O43    Zn59    1.930   .     S
O43    Zn57    1.943   .     S
O43    Zn56    1.962   .     S
O43    Zn58    1.938   .     S
O44    Zn57    1.921   .     S
O45    Zn59    1.931   .     S
O46    Zn58    1.923   .     S
O47    Zn56    1.914   .     S
O48    Zn56    1.935   .     S
O49    Zn59    1.940   .     S
O50    Zn57    1.934   .     S
O51    Zn58    1.944   .     S
O52    Zn59    1.940   .     S
O53    Zn56    1.932   .     S
O54    Zn57    1.945   .     S
O55    Zn58    1.936   .     S
Br60   C71     1.923   .     S
Br61   C134    1.932   .     S
Br62   C255    1.931   .     S
Br63   C76     1.930   .     S
Br64   C66     1.930   .     S
C65    O109    1.262   .     A
C65    C75     1.429   .     S
C65    O111    1.269   .     A
C66    C67     1.392   .     A
C66    C89     1.422   .     A
C67    H99     1.081   .     S
C67    C600    1.398   .     S
C68    C74     1.456   .     S
C68    O112    1.271   .     A
C68    O110    1.290   .     A
C69    C71     1.416   .     A
C69    C70     1.422   .     A
C69    C598    1.398   1_554 S
C70    C90     1.424   .     A
C70    C73     1.410   .     A
C71    C72     1.395   .     A
C72    C84     1.393   .     A
C72    H98     1.084   .     S
C73    H97     1.078   .     S
C73    C84     1.389   .     A
C74    C134    1.350   .     S
C74    F153    1.363   .     S
C76    C85     1.397   .     A
C76    C83     1.419   .     A
C77    C80     1.452   .     S
C77    C255    1.346   .     S
C77    F272    1.363   .     S
C78    C79     1.428   .     S
C78    C431    1.346   1_545 S
C78    Br416   1.931   1_545 S
C79    O107    1.276   .     A
C79    O113    1.272   .     A
C80    O108    1.263   .     A
C80    O114    1.276   .     A
C81    O105    1.277   .     A
C81    O103    1.279   .     A
C81    C84     1.454   .     S
C82    C83     1.484   .     S
C82    O104    1.281   .     A
C82    O106    1.297   .     A
C83    C86     1.401   .     A
C85    F96     1.359   .     S
C85    C88     1.405   .     A
C86    H100    1.079   .     S
C86    C87     1.406   .     A
C87    C89     1.426   .     A
C87    C88     1.417   .     A
C88    C623    1.399   .     S
C89    C621    1.423   .     S
C90    C91     1.413   .     A
C90    C620    1.423   1_554 S
C91    C92     1.386   .     A
C91    H101    1.077   .     S
C92    F93     1.359   .     S
C92    C619    1.399   1_554 S
F95    C431    1.363   1_545 S
O102   Zn118   1.930   .     S
O102   Zn116   1.943   .     S
O102   Zn115   1.962   .     S
O102   Zn117   1.938   .     S
O103   Zn116   1.921   .     S
O104   Zn118   1.931   .     S
O105   Zn117   1.923   .     S
O106   Zn115   1.914   .     S
O107   Zn115   1.935   .     S
O108   Zn118   1.940   .     S
O109   Zn116   1.934   .     S
O110   Zn117   1.944   .     S
O111   Zn118   1.940   .     S
O112   Zn115   1.932   .     S
O113   Zn116   1.945   .     S
O114   Zn117   1.936   .     S
Br119  C130    1.923   .     S
Br120  C16     1.932   1_655 S
Br121  C314    1.931   .     S
Br122  C135    1.930   .     S
Br123  C125    1.930   .     S
C124   O168    1.262   .     A
C124   C134    1.429   .     S
C124   O170    1.269   .     A
C125   C126    1.392   .     A
C125   C148    1.422   .     A
C126   H158    1.081   .     S
C126   C659    1.398   .     S
C127   C133    1.456   .     S
C127   O171    1.271   .     A
C127   O169    1.290   .     A
C128   C130    1.416   .     A
C128   C129    1.422   .     A
C128   C657    1.398   1_554 S
C129   C149    1.424   .     A
C129   C132    1.410   .     A
C130   C131    1.395   .     A
C131   C143    1.393   .     A
C131   H157    1.084   .     S
C132   H156    1.078   .     S
C132   C143    1.389   .     A
C133   C16     1.350   1_655 S
C133   F35     1.363   1_655 S
C135   C144    1.397   .     A
C135   C142    1.419   .     A
C136   C139    1.452   .     S
C136   C314    1.346   .     S
C136   F331    1.363   .     S
C137   C138    1.428   .     S
C137   C490    1.346   1_545 S
C137   Br475   1.931   1_545 S
C138   O166    1.276   .     A
C138   O172    1.272   .     A
C139   O167    1.263   .     A
C139   O173    1.276   .     A
C140   O164    1.277   .     A
C140   O162    1.279   .     A
C140   C143    1.454   .     S
C141   C142    1.484   .     S
C141   O163    1.281   .     A
C141   O165    1.297   .     A
C142   C145    1.401   .     A
C144   F155    1.359   .     S
C144   C147    1.405   .     A
C145   H159    1.079   .     S
C145   C146    1.406   .     A
C146   C148    1.426   .     A
C146   C147    1.417   .     A
C147   C682    1.399   .     S
C148   C680    1.423   .     S
C149   C150    1.413   .     A
C149   C679    1.423   1_554 S
C150   C151    1.386   .     A
C150   H160    1.077   .     S
C151   F152    1.359   .     S
C151   C678    1.399   1_554 S
F154   C490    1.363   1_545 S
O161   Zn177   1.930   .     S
O161   Zn175   1.943   .     S
O161   Zn174   1.962   .     S
O161   Zn176   1.938   .     S
O162   Zn175   1.921   .     S
O163   Zn177   1.931   .     S
O164   Zn176   1.923   .     S
O165   Zn174   1.914   .     S
O166   Zn174   1.935   .     S
O167   Zn177   1.940   .     S
O168   Zn175   1.934   .     S
O169   Zn176   1.944   .     S
O170   Zn177   1.940   .     S
O171   Zn174   1.932   .     S
O172   Zn175   1.945   .     S
O173   Zn176   1.936   .     S
Br178  C189    1.923   .     S
Br179  C252    1.932   .     S
Br180  C373    1.931   .     S
Br181  C194    1.930   .     S
Br182  C184    1.930   .     S
C183   O227    1.262   .     A
C183   C193    1.429   .     S
C183   O229    1.269   .     A
C184   C185    1.392   .     A
C184   C207    1.422   .     A
C185   H217    1.081   .     S
C185   C718    1.398   .     S
C186   C192    1.456   .     S
C186   O230    1.271   .     A
C186   O228    1.290   .     A
C187   C189    1.416   .     A
C187   C188    1.422   .     A
C187   C716    1.398   1_554 S
C188   C208    1.424   .     A
C188   C191    1.410   .     A
C189   C190    1.395   .     A
C190   C202    1.393   .     A
C190   H216    1.084   .     S
C191   H215    1.078   .     S
C191   C202    1.389   .     A
C192   C252    1.350   .     S
C192   F271    1.363   .     S
C193   Br297   1.932   1_455 S
C193   C310    1.350   1_455 S
C194   C203    1.397   .     A
C194   C201    1.419   .     A
C195   C198    1.452   .     S
C195   C373    1.346   .     S
C195   F390    1.363   .     S
C196   C197    1.428   .     S
C197   O225    1.276   .     A
C197   O231    1.272   .     A
C198   O226    1.263   .     A
C198   O232    1.276   .     A
C199   O223    1.277   .     A
C199   O221    1.279   .     A
C199   C202    1.454   .     S
C200   C201    1.484   .     S
C200   O222    1.281   .     A
C200   O224    1.297   .     A
C201   C204    1.401   .     A
C203   F214    1.359   .     S
C203   C206    1.405   .     A
C204   H218    1.079   .     S
C204   C205    1.406   .     A
C205   C207    1.426   .     A
C205   C206    1.417   .     A
C206   C741    1.399   .     S
C207   C739    1.423   .     S
C208   C209    1.413   .     A
C208   C738    1.423   1_554 S
C209   C210    1.386   .     A
C209   H219    1.077   .     S
C210   F211    1.359   .     S
C210   C737    1.399   1_554 S
F212   C310    1.363   1_455 S
O220   Zn236   1.930   .     S
O220   Zn234   1.943   .     S
O220   Zn233   1.962   .     S
O220   Zn235   1.938   .     S
O221   Zn234   1.921   .     S
O222   Zn236   1.931   .     S
O223   Zn235   1.923   .     S
O224   Zn233   1.914   .     S
O225   Zn233   1.935   .     S
O226   Zn236   1.940   .     S
O227   Zn234   1.934   .     S
O228   Zn235   1.944   .     S
O229   Zn236   1.940   .     S
O230   Zn233   1.932   .     S
O231   Zn234   1.945   .     S
O232   Zn235   1.936   .     S
Br237  C248    1.923   .     S
Br238  C311    1.932   .     S
Br239  C432    1.931   .     S
Br240  C253    1.930   .     S
Br241  C243    1.930   .     S
C242   O286    1.262   .     A
C242   C252    1.429   .     S
C242   O288    1.269   .     A
C243   C244    1.392   .     A
C243   C266    1.422   .     A
C244   H276    1.081   .     S
C244   C777    1.398   .     S
C245   C251    1.456   .     S
C245   O289    1.271   .     A
C245   O287    1.290   .     A
C246   C248    1.416   .     A
C246   C247    1.422   .     A
C246   C775    1.398   1_554 S
C247   C267    1.424   .     A
C247   C250    1.410   .     A
C248   C249    1.395   .     A
C249   C261    1.393   .     A
C249   H275    1.084   .     S
C250   H274    1.078   .     S
C250   C261    1.389   .     A
C251   C311    1.350   .     S
C251   F330    1.363   .     S
C253   C262    1.397   .     A
C253   C260    1.419   .     A
C254   C257    1.452   .     S
C254   C432    1.346   .     S
C254   F449    1.363   .     S
C255   C256    1.428   .     S
C256   O284    1.276   .     A
C256   O290    1.272   .     A
C257   O285    1.263   .     A
C257   O291    1.276   .     A
C258   O282    1.277   .     A
C258   O280    1.279   .     A
C258   C261    1.454   .     S
C259   C260    1.484   .     S
C259   O281    1.281   .     A
C259   O283    1.297   .     A
C260   C263    1.401   .     A
C262   F273    1.359   .     S
C262   C265    1.405   .     A
C263   H277    1.079   .     S
C263   C264    1.406   .     A
C264   C266    1.426   .     A
C264   C265    1.417   .     A
C265   C800    1.399   .     S
C266   C798    1.423   .     S
C267   C268    1.413   .     A
C267   C797    1.423   1_554 S
C268   C269    1.386   .     A
C268   H278    1.077   .     S
C269   F270    1.359   .     S
C269   C796    1.399   1_554 S
O279   Zn295   1.930   .     S
O279   Zn293   1.943   .     S
O279   Zn292   1.962   .     S
O279   Zn294   1.938   .     S
O280   Zn293   1.921   .     S
O281   Zn295   1.931   .     S
O282   Zn294   1.923   .     S
O283   Zn292   1.914   .     S
O284   Zn292   1.935   .     S
O285   Zn295   1.940   .     S
O286   Zn293   1.934   .     S
O287   Zn294   1.944   .     S
O288   Zn295   1.940   .     S
O289   Zn292   1.932   .     S
O290   Zn293   1.945   .     S
O291   Zn294   1.936   .     S
Br296  C307    1.923   .     S
Br297  C193    1.932   1_655 S
Br298  C491    1.931   .     S
Br299  C312    1.930   .     S
Br300  C302    1.930   .     S
C301   O345    1.262   .     A
C301   C311    1.429   .     S
C301   O347    1.269   .     A
C302   C303    1.392   .     A
C302   C325    1.422   .     A
C303   H335    1.081   .     S
C303   C836    1.398   .     S
C304   C310    1.456   .     S
C304   O348    1.271   .     A
C304   O346    1.290   .     A
C305   C307    1.416   .     A
C305   C306    1.422   .     A
C305   C834    1.398   1_554 S
C306   C326    1.424   .     A
C306   C309    1.410   .     A
C307   C308    1.395   .     A
C308   C320    1.393   .     A
C308   H334    1.084   .     S
C309   H333    1.078   .     S
C309   C320    1.389   .     A
C310   C193    1.350   1_655 S
C310   F212    1.363   1_655 S
C312   C321    1.397   .     A
C312   C319    1.419   .     A
C313   C316    1.452   .     S
C313   C491    1.346   .     S
C313   F508    1.363   .     S
C314   C315    1.428   .     S
C315   O343    1.276   .     A
C315   O349    1.272   .     A
C316   O344    1.263   .     A
C316   O350    1.276   .     A
C317   O341    1.277   .     A
C317   O339    1.279   .     A
C317   C320    1.454   .     S
C318   C319    1.484   .     S
C318   O340    1.281   .     A
C318   O342    1.297   .     A
C319   C322    1.401   .     A
C321   F332    1.359   .     S
C321   C324    1.405   .     A
C322   H336    1.079   .     S
C322   C323    1.406   .     A
C323   C325    1.426   .     A
C323   C324    1.417   .     A
C324   C859    1.399   .     S
C325   C857    1.423   .     S
C326   C327    1.413   .     A
C326   C856    1.423   1_554 S
C327   C328    1.386   .     A
C327   H337    1.077   .     S
C328   F329    1.359   .     S
C328   C855    1.399   1_554 S
O338   Zn354   1.930   .     S
O338   Zn352   1.943   .     S
O338   Zn351   1.962   .     S
O338   Zn353   1.938   .     S
O339   Zn352   1.921   .     S
O340   Zn354   1.931   .     S
O341   Zn353   1.923   .     S
O342   Zn351   1.914   .     S
O343   Zn351   1.935   .     S
O344   Zn354   1.940   .     S
O345   Zn352   1.934   .     S
O346   Zn353   1.944   .     S
O347   Zn354   1.940   .     S
O348   Zn351   1.932   .     S
O349   Zn352   1.945   .     S
O350   Zn353   1.936   .     S
Br355  C366    1.923   .     S
Br356  C429    1.932   .     S
Br357  C19     1.931   1_565 S
Br358  C371    1.930   .     S
Br359  C361    1.930   .     S
C360   O404    1.262   .     A
C360   C370    1.429   .     S
C360   O406    1.269   .     A
C361   C362    1.392   .     A
C361   C384    1.422   .     A
C362   H394    1.081   .     S
C362   C895    1.398   .     S
C363   C369    1.456   .     S
C363   O407    1.271   .     A
C363   O405    1.290   .     A
C364   C366    1.416   .     A
C364   C365    1.422   .     A
C364   C893    1.398   1_554 S
C365   C385    1.424   .     A
C365   C368    1.410   .     A
C366   C367    1.395   .     A
C367   C379    1.393   .     A
C367   H393    1.084   .     S
C368   H392    1.078   .     S
C368   C379    1.389   .     A
C369   C429    1.350   .     S
C369   F448    1.363   .     S
C370   Br474   1.932   1_455 S
C370   C487    1.350   1_455 S
C371   C380    1.397   .     A
C371   C378    1.419   .     A
C372   C375    1.452   .     S
C372   C19     1.346   1_565 S
C372   F36     1.363   1_565 S
C373   C374    1.428   .     S
C374   O402    1.276   .     A
C374   O408    1.272   .     A
C375   O403    1.263   .     A
C375   O409    1.276   .     A
C376   O400    1.277   .     A
C376   O398    1.279   .     A
C376   C379    1.454   .     S
C377   C378    1.484   .     S
C377   O399    1.281   .     A
C377   O401    1.297   .     A
C378   C381    1.401   .     A
C380   F391    1.359   .     S
C380   C383    1.405   .     A
C381   H395    1.079   .     S
C381   C382    1.406   .     A
C382   C384    1.426   .     A
C382   C383    1.417   .     A
C383   C918    1.399   .     S
C384   C916    1.423   .     S
C385   C386    1.413   .     A
C385   C915    1.423   1_554 S
C386   C387    1.386   .     A
C386   H396    1.077   .     S
C387   F388    1.359   .     S
C387   C914    1.399   1_554 S
F389   C487    1.363   1_455 S
O397   Zn413   1.930   .     S
O397   Zn411   1.943   .     S
O397   Zn410   1.962   .     S
O397   Zn412   1.938   .     S
O398   Zn411   1.921   .     S
O399   Zn413   1.931   .     S
O400   Zn412   1.923   .     S
O401   Zn410   1.914   .     S
O402   Zn410   1.935   .     S
O403   Zn413   1.940   .     S
O404   Zn411   1.934   .     S
O405   Zn412   1.944   .     S
O406   Zn413   1.940   .     S
O407   Zn410   1.932   .     S
O408   Zn411   1.945   .     S
O409   Zn412   1.936   .     S
Br414  C425    1.923   .     S
Br415  C488    1.932   .     S
Br416  C78     1.931   1_565 S
Br417  C430    1.930   .     S
Br418  C420    1.930   .     S
C419   O463    1.262   .     A
C419   C429    1.429   .     S
C419   O465    1.269   .     A
C420   C421    1.392   .     A
C420   C443    1.422   .     A
C421   H453    1.081   .     S
C421   C954    1.398   .     S
C422   C428    1.456   .     S
C422   O466    1.271   .     A
C422   O464    1.290   .     A
C423   C425    1.416   .     A
C423   C424    1.422   .     A
C423   C952    1.398   1_554 S
C424   C444    1.424   .     A
C424   C427    1.410   .     A
C425   C426    1.395   .     A
C426   C438    1.393   .     A
C426   H452    1.084   .     S
C427   H451    1.078   .     S
C427   C438    1.389   .     A
C428   C488    1.350   .     S
C428   F507    1.363   .     S
C430   C439    1.397   .     A
C430   C437    1.419   .     A
C431   C434    1.452   .     S
C431   C78     1.346   1_565 S
C431   F95     1.363   1_565 S
C432   C433    1.428   .     S
C433   O461    1.276   .     A
C433   O467    1.272   .     A
C434   O462    1.263   .     A
C434   O468    1.276   .     A
C435   O459    1.277   .     A
C435   O457    1.279   .     A
C435   C438    1.454   .     S
C436   C437    1.484   .     S
C436   O458    1.281   .     A
C436   O460    1.297   .     A
C437   C440    1.401   .     A
C439   F450    1.359   .     S
C439   C442    1.405   .     A
C440   H454    1.079   .     S
C440   C441    1.406   .     A
C441   C443    1.426   .     A
C441   C442    1.417   .     A
C442   C977    1.399   .     S
C443   C975    1.423   .     S
C444   C445    1.413   .     A
C444   C974    1.423   1_554 S
C445   C446    1.386   .     A
C445   H455    1.077   .     S
C446   F447    1.359   .     S
C446   C973    1.399   1_554 S
O456   Zn472   1.930   .     S
O456   Zn470   1.943   .     S
O456   Zn469   1.962   .     S
O456   Zn471   1.938   .     S
O457   Zn470   1.921   .     S
O458   Zn472   1.931   .     S
O459   Zn471   1.923   .     S
O460   Zn469   1.914   .     S
O461   Zn469   1.935   .     S
O462   Zn472   1.940   .     S
O463   Zn470   1.934   .     S
O464   Zn471   1.944   .     S
O465   Zn472   1.940   .     S
O466   Zn469   1.932   .     S
O467   Zn470   1.945   .     S
O468   Zn471   1.936   .     S
Br473  C484    1.923   .     S
Br474  C370    1.932   1_655 S
Br475  C137    1.931   1_565 S
Br476  C489    1.930   .     S
Br477  C479    1.930   .     S
C478   O522    1.262   .     A
C478   C488    1.429   .     S
C478   O524    1.269   .     A
C479   C480    1.392   .     A
C479   C502    1.422   .     A
C480   H512    1.081   .     S
C480   C1013   1.398   .     S
C481   C487    1.456   .     S
C481   O525    1.271   .     A
C481   O523    1.290   .     A
C482   C484    1.416   .     A
C482   C483    1.422   .     A
C482   C1011   1.398   1_554 S
C483   C503    1.424   .     A
C483   C486    1.410   .     A
C484   C485    1.395   .     A
C485   C497    1.393   .     A
C485   H511    1.084   .     S
C486   H510    1.078   .     S
C486   C497    1.389   .     A
C487   C370    1.350   1_655 S
C487   F389    1.363   1_655 S
C489   C498    1.397   .     A
C489   C496    1.419   .     A
C490   C493    1.452   .     S
C490   C137    1.346   1_565 S
C490   F154    1.363   1_565 S
C491   C492    1.428   .     S
C492   O520    1.276   .     A
C492   O526    1.272   .     A
C493   O521    1.263   .     A
C493   O527    1.276   .     A
C494   O518    1.277   .     A
C494   O516    1.279   .     A
C494   C497    1.454   .     S
C495   C496    1.484   .     S
C495   O517    1.281   .     A
C495   O519    1.297   .     A
C496   C499    1.401   .     A
C498   F509    1.359   .     S
C498   C501    1.405   .     A
C499   H513    1.079   .     S
C499   C500    1.406   .     A
C500   C502    1.426   .     A
C500   C501    1.417   .     A
C501   C1036   1.399   .     S
C502   C1034   1.423   .     S
C503   C504    1.413   .     A
C503   C1033   1.423   1_554 S
C504   C505    1.386   .     A
C504   H514    1.077   .     S
C505   F506    1.359   .     S
C505   C1032   1.399   1_554 S
O515   Zn531   1.930   .     S
O515   Zn529   1.943   .     S
O515   Zn528   1.962   .     S
O515   Zn530   1.938   .     S
O516   Zn529   1.921   .     S
O517   Zn531   1.931   .     S
O518   Zn530   1.923   .     S
O519   Zn528   1.914   .     S
O520   Zn528   1.935   .     S
O521   Zn531   1.940   .     S
O522   Zn529   1.934   .     S
O523   Zn530   1.944   .     S
O524   Zn531   1.940   .     S
O525   Zn528   1.932   .     S
O526   Zn529   1.945   .     S
O527   Zn530   1.936   .     S
Br532  C543    1.923   .     S
Br533  C606    1.932   .     S
Br534  C727    1.931   .     S
Br535  C548    1.930   .     S
Br536  C538    1.930   .     S
C537   O581    1.262   .     A
C537   C547    1.429   .     S
C537   O583    1.269   .     A
C538   C539    1.392   .     A
C538   C561    1.422   .     A
C539   H571    1.081   .     S
C539   C10     1.398   1_556 S
C540   C546    1.456   .     S
C540   O584    1.271   .     A
C540   O582    1.290   .     A
C541   C543    1.416   .     A
C541   C542    1.422   .     A
C542   C562    1.424   .     A
C542   C545    1.410   .     A
C543   C544    1.395   .     A
C544   C556    1.393   .     A
C544   H570    1.084   .     S
C545   H569    1.078   .     S
C545   C556    1.389   .     A
C546   C606    1.350   .     S
C546   F625    1.363   .     S
C547   Br651   1.932   1_455 S
C547   C664    1.350   1_455 S
C548   C557    1.397   .     A
C548   C555    1.419   .     A
C549   C552    1.452   .     S
C549   C727    1.346   .     S
C549   F744    1.363   .     S
C550   C551    1.428   .     S
C550   C903    1.346   1_545 S
C550   Br888   1.931   1_545 S
C551   O579    1.276   .     A
C551   O585    1.272   .     A
C552   O580    1.263   .     A
C552   O586    1.276   .     A
C553   O577    1.277   .     A
C553   O575    1.279   .     A
C553   C556    1.454   .     S
C554   C555    1.484   .     S
C554   O576    1.281   .     A
C554   O578    1.297   .     A
C555   C558    1.401   .     A
C557   F568    1.359   .     S
C557   C560    1.405   .     A
C558   H572    1.079   .     S
C558   C559    1.406   .     A
C559   C561    1.426   .     A
C559   C560    1.417   .     A
C560   C33     1.399   1_556 S
C561   C31     1.423   1_556 S
C562   C563    1.413   .     A
C563   C564    1.386   .     A
C563   H573    1.077   .     S
C564   F565    1.359   .     S
F566   C664    1.363   1_455 S
F567   C903    1.363   1_545 S
O574   Zn590   1.930   .     S
O574   Zn588   1.943   .     S
O574   Zn587   1.962   .     S
O574   Zn589   1.938   .     S
O575   Zn588   1.921   .     S
O576   Zn590   1.931   .     S
O577   Zn589   1.923   .     S
O578   Zn587   1.914   .     S
O579   Zn587   1.935   .     S
O580   Zn590   1.940   .     S
O581   Zn588   1.934   .     S
O582   Zn589   1.944   .     S
O583   Zn590   1.940   .     S
O584   Zn587   1.932   .     S
O585   Zn588   1.945   .     S
O586   Zn589   1.936   .     S
Br591  C602    1.923   .     S
Br592  C665    1.932   .     S
Br593  C786    1.931   .     S
Br594  C607    1.930   .     S
Br595  C597    1.930   .     S
C596   O640    1.262   .     A
C596   C606    1.429   .     S
C596   O642    1.269   .     A
C597   C598    1.392   .     A
C597   C620    1.422   .     A
C598   H630    1.081   .     S
C598   C69     1.398   1_556 S
C599   C605    1.456   .     S
C599   O643    1.271   .     A
C599   O641    1.290   .     A
C600   C602    1.416   .     A
C600   C601    1.422   .     A
C601   C621    1.424   .     A
C601   C604    1.410   .     A
C602   C603    1.395   .     A
C603   C615    1.393   .     A
C603   H629    1.084   .     S
C604   H628    1.078   .     S
C604   C615    1.389   .     A
C605   C665    1.350   .     S
C605   F684    1.363   .     S
C607   C616    1.397   .     A
C607   C614    1.419   .     A
C608   C611    1.452   .     S
C608   C786    1.346   .     S
C608   F803    1.363   .     S
C609   C610    1.428   .     S
C609   C962    1.346   1_545 S
C609   Br947   1.931   1_545 S
C610   O638    1.276   .     A
C610   O644    1.272   .     A
C611   O639    1.263   .     A
C611   O645    1.276   .     A
C612   O636    1.277   .     A
C612   O634    1.279   .     A
C612   C615    1.454   .     S
C613   C614    1.484   .     S
C613   O635    1.281   .     A
C613   O637    1.297   .     A
C614   C617    1.401   .     A
C616   F627    1.359   .     S
C616   C619    1.405   .     A
C617   H631    1.079   .     S
C617   C618    1.406   .     A
C618   C620    1.426   .     A
C618   C619    1.417   .     A
C619   C92     1.399   1_556 S
C620   C90     1.423   1_556 S
C621   C622    1.413   .     A
C622   C623    1.386   .     A
C622   H632    1.077   .     S
C623   F624    1.359   .     S
F626   C962    1.363   1_545 S
O633   Zn649   1.930   .     S
O633   Zn647   1.943   .     S
O633   Zn646   1.962   .     S
O633   Zn648   1.938   .     S
O634   Zn647   1.921   .     S
O635   Zn649   1.931   .     S
O636   Zn648   1.923   .     S
O637   Zn646   1.914   .     S
O638   Zn646   1.935   .     S
O639   Zn649   1.940   .     S
O640   Zn647   1.934   .     S
O641   Zn648   1.944   .     S
O642   Zn649   1.940   .     S
O643   Zn646   1.932   .     S
O644   Zn647   1.945   .     S
O645   Zn648   1.936   .     S
Br650  C661    1.923   .     S
Br651  C547    1.932   1_655 S
Br652  C845    1.931   .     S
Br653  C666    1.930   .     S
Br654  C656    1.930   .     S
C655   O699    1.262   .     A
C655   C665    1.429   .     S
C655   O701    1.269   .     A
C656   C657    1.392   .     A
C656   C679    1.422   .     A
C657   H689    1.081   .     S
C657   C128    1.398   1_556 S
C658   C664    1.456   .     S
C658   O702    1.271   .     A
C658   O700    1.290   .     A
C659   C661    1.416   .     A
C659   C660    1.422   .     A
C660   C680    1.424   .     A
C660   C663    1.410   .     A
C661   C662    1.395   .     A
C662   C674    1.393   .     A
C662   H688    1.084   .     S
C663   H687    1.078   .     S
C663   C674    1.389   .     A
C664   C547    1.350   1_655 S
C664   F566    1.363   1_655 S
C666   C675    1.397   .     A
C666   C673    1.419   .     A
C667   C670    1.452   .     S
C667   C845    1.346   .     S
C667   F862    1.363   .     S
C668   C669    1.428   .     S
C668   C1021   1.346   1_545 S
C668   Br1006  1.931   1_545 S
C669   O697    1.276   .     A
C669   O703    1.272   .     A
C670   O698    1.263   .     A
C670   O704    1.276   .     A
C671   O695    1.277   .     A
C671   O693    1.279   .     A
C671   C674    1.454   .     S
C672   C673    1.484   .     S
C672   O694    1.281   .     A
C672   O696    1.297   .     A
C673   C676    1.401   .     A
C675   F686    1.359   .     S
C675   C678    1.405   .     A
C676   H690    1.079   .     S
C676   C677    1.406   .     A
C677   C679    1.426   .     A
C677   C678    1.417   .     A
C678   C151    1.399   1_556 S
C679   C149    1.423   1_556 S
C680   C681    1.413   .     A
C681   C682    1.386   .     A
C681   H691    1.077   .     S
C682   F683    1.359   .     S
F685   C1021   1.363   1_545 S
O692   Zn708   1.930   .     S
O692   Zn706   1.943   .     S
O692   Zn705   1.962   .     S
O692   Zn707   1.938   .     S
O693   Zn706   1.921   .     S
O694   Zn708   1.931   .     S
O695   Zn707   1.923   .     S
O696   Zn705   1.914   .     S
O697   Zn705   1.935   .     S
O698   Zn708   1.940   .     S
O699   Zn706   1.934   .     S
O700   Zn707   1.944   .     S
O701   Zn708   1.940   .     S
O702   Zn705   1.932   .     S
O703   Zn706   1.945   .     S
O704   Zn707   1.936   .     S
Br709  C720    1.923   .     S
Br710  C783    1.932   .     S
Br711  C904    1.931   .     S
Br712  C725    1.930   .     S
Br713  C715    1.930   .     S
C714   O758    1.262   .     A
C714   C724    1.429   .     S
C714   O760    1.269   .     A
C715   C716    1.392   .     A
C715   C738    1.422   .     A
C716   H748    1.081   .     S
C716   C187    1.398   1_556 S
C717   C723    1.456   .     S
C717   O761    1.271   .     A
C717   O759    1.290   .     A
C718   C720    1.416   .     A
C718   C719    1.422   .     A
C719   C739    1.424   .     A
C719   C722    1.410   .     A
C720   C721    1.395   .     A
C721   C733    1.393   .     A
C721   H747    1.084   .     S
C722   H746    1.078   .     S
C722   C733    1.389   .     A
C723   C783    1.350   .     S
C723   F802    1.363   .     S
C724   Br828   1.932   1_455 S
C724   C841    1.350   1_455 S
C725   C734    1.397   .     A
C725   C732    1.419   .     A
C726   C729    1.452   .     S
C726   C904    1.346   .     S
C726   F921    1.363   .     S
C727   C728    1.428   .     S
C728   O756    1.276   .     A
C728   O762    1.272   .     A
C729   O757    1.263   .     A
C729   O763    1.276   .     A
C730   O754    1.277   .     A
C730   O752    1.279   .     A
C730   C733    1.454   .     S
C731   C732    1.484   .     S
C731   O753    1.281   .     A
C731   O755    1.297   .     A
C732   C735    1.401   .     A
C734   F745    1.359   .     S
C734   C737    1.405   .     A
C735   H749    1.079   .     S
C735   C736    1.406   .     A
C736   C738    1.426   .     A
C736   C737    1.417   .     A
C737   C210    1.399   1_556 S
C738   C208    1.423   1_556 S
C739   C740    1.413   .     A
C740   C741    1.386   .     A
C740   H750    1.077   .     S
C741   F742    1.359   .     S
F743   C841    1.363   1_455 S
O751   Zn767   1.930   .     S
O751   Zn765   1.943   .     S
O751   Zn764   1.962   .     S
O751   Zn766   1.938   .     S
O752   Zn765   1.921   .     S
O753   Zn767   1.931   .     S
O754   Zn766   1.923   .     S
O755   Zn764   1.914   .     S
O756   Zn764   1.935   .     S
O757   Zn767   1.940   .     S
O758   Zn765   1.934   .     S
O759   Zn766   1.944   .     S
O760   Zn767   1.940   .     S
O761   Zn764   1.932   .     S
O762   Zn765   1.945   .     S
O763   Zn766   1.936   .     S
Br768  C779    1.923   .     S
Br769  C842    1.932   .     S
Br770  C963    1.931   .     S
Br771  C784    1.930   .     S
Br772  C774    1.930   .     S
C773   O817    1.262   .     A
C773   C783    1.429   .     S
C773   O819    1.269   .     A
C774   C775    1.392   .     A
C774   C797    1.422   .     A
C775   H807    1.081   .     S
C775   C246    1.398   1_556 S
C776   C782    1.456   .     S
C776   O820    1.271   .     A
C776   O818    1.290   .     A
C777   C779    1.416   .     A
C777   C778    1.422   .     A
C778   C798    1.424   .     A
C778   C781    1.410   .     A
C779   C780    1.395   .     A
C780   C792    1.393   .     A
C780   H806    1.084   .     S
C781   H805    1.078   .     S
C781   C792    1.389   .     A
C782   C842    1.350   .     S
C782   F861    1.363   .     S
C784   C793    1.397   .     A
C784   C791    1.419   .     A
C785   C788    1.452   .     S
C785   C963    1.346   .     S
C785   F980    1.363   .     S
C786   C787    1.428   .     S
C787   O815    1.276   .     A
C787   O821    1.272   .     A
C788   O816    1.263   .     A
C788   O822    1.276   .     A
C789   O813    1.277   .     A
C789   O811    1.279   .     A
C789   C792    1.454   .     S
C790   C791    1.484   .     S
C790   O812    1.281   .     A
C790   O814    1.297   .     A
C791   C794    1.401   .     A
C793   F804    1.359   .     S
C793   C796    1.405   .     A
C794   H808    1.079   .     S
C794   C795    1.406   .     A
C795   C797    1.426   .     A
C795   C796    1.417   .     A
C796   C269    1.399   1_556 S
C797   C267    1.423   1_556 S
C798   C799    1.413   .     A
C799   C800    1.386   .     A
C799   H809    1.077   .     S
C800   F801    1.359   .     S
O810   Zn826   1.930   .     S
O810   Zn824   1.943   .     S
O810   Zn823   1.962   .     S
O810   Zn825   1.938   .     S
O811   Zn824   1.921   .     S
O812   Zn826   1.931   .     S
O813   Zn825   1.923   .     S
O814   Zn823   1.914   .     S
O815   Zn823   1.935   .     S
O816   Zn826   1.940   .     S
O817   Zn824   1.934   .     S
O818   Zn825   1.944   .     S
O819   Zn826   1.940   .     S
O820   Zn823   1.932   .     S
O821   Zn824   1.945   .     S
O822   Zn825   1.936   .     S
Br827  C838    1.923   .     S
Br828  C724    1.932   1_655 S
Br829  C1022   1.931   .     S
Br830  C843    1.930   .     S
Br831  C833    1.930   .     S
C832   O876    1.262   .     A
C832   C842    1.429   .     S
C832   O878    1.269   .     A
C833   C834    1.392   .     A
C833   C856    1.422   .     A
C834   H866    1.081   .     S
C834   C305    1.398   1_556 S
C835   C841    1.456   .     S
C835   O879    1.271   .     A
C835   O877    1.290   .     A
C836   C838    1.416   .     A
C836   C837    1.422   .     A
C837   C857    1.424   .     A
C837   C840    1.410   .     A
C838   C839    1.395   .     A
C839   C851    1.393   .     A
C839   H865    1.084   .     S
C840   H864    1.078   .     S
C840   C851    1.389   .     A
C841   C724    1.350   1_655 S
C841   F743    1.363   1_655 S
C843   C852    1.397   .     A
C843   C850    1.419   .     A
C844   C847    1.452   .     S
C844   C1022   1.346   .     S
C844   F1039   1.363   .     S
C845   C846    1.428   .     S
C846   O874    1.276   .     A
C846   O880    1.272   .     A
C847   O875    1.263   .     A
C847   O881    1.276   .     A
C848   O872    1.277   .     A
C848   O870    1.279   .     A
C848   C851    1.454   .     S
C849   C850    1.484   .     S
C849   O871    1.281   .     A
C849   O873    1.297   .     A
C850   C853    1.401   .     A
C852   F863    1.359   .     S
C852   C855    1.405   .     A
C853   H867    1.079   .     S
C853   C854    1.406   .     A
C854   C856    1.426   .     A
C854   C855    1.417   .     A
C855   C328    1.399   1_556 S
C856   C326    1.423   1_556 S
C857   C858    1.413   .     A
C858   C859    1.386   .     A
C858   H868    1.077   .     S
C859   F860    1.359   .     S
O869   Zn885   1.930   .     S
O869   Zn883   1.943   .     S
O869   Zn882   1.962   .     S
O869   Zn884   1.938   .     S
O870   Zn883   1.921   .     S
O871   Zn885   1.931   .     S
O872   Zn884   1.923   .     S
O873   Zn882   1.914   .     S
O874   Zn882   1.935   .     S
O875   Zn885   1.940   .     S
O876   Zn883   1.934   .     S
O877   Zn884   1.944   .     S
O878   Zn885   1.940   .     S
O879   Zn882   1.932   .     S
O880   Zn883   1.945   .     S
O881   Zn884   1.936   .     S
Br886  C897    1.923   .     S
Br887  C960    1.932   .     S
Br888  C550    1.931   1_565 S
Br889  C902    1.930   .     S
Br890  C892    1.930   .     S
C891   O935    1.262   .     A
C891   C901    1.429   .     S
C891   O937    1.269   .     A
C892   C893    1.392   .     A
C892   C915    1.422   .     A
C893   H925    1.081   .     S
C893   C364    1.398   1_556 S
C894   C900    1.456   .     S
C894   O938    1.271   .     A
C894   O936    1.290   .     A
C895   C897    1.416   .     A
C895   C896    1.422   .     A
C896   C916    1.424   .     A
C896   C899    1.410   .     A
C897   C898    1.395   .     A
C898   C910    1.393   .     A
C898   H924    1.084   .     S
C899   H923    1.078   .     S
C899   C910    1.389   .     A
C900   C960    1.350   .     S
C900   F979    1.363   .     S
C901   Br1005  1.932   1_455 S
C901   C1018   1.350   1_455 S
C902   C911    1.397   .     A
C902   C909    1.419   .     A
C903   C906    1.452   .     S
C903   C550    1.346   1_565 S
C903   F567    1.363   1_565 S
C904   C905    1.428   .     S
C905   O933    1.276   .     A
C905   O939    1.272   .     A
C906   O934    1.263   .     A
C906   O940    1.276   .     A
C907   O931    1.277   .     A
C907   O929    1.279   .     A
C907   C910    1.454   .     S
C908   C909    1.484   .     S
C908   O930    1.281   .     A
C908   O932    1.297   .     A
C909   C912    1.401   .     A
C911   F922    1.359   .     S
C911   C914    1.405   .     A
C912   H926    1.079   .     S
C912   C913    1.406   .     A
C913   C915    1.426   .     A
C913   C914    1.417   .     A
C914   C387    1.399   1_556 S
C915   C385    1.423   1_556 S
C916   C917    1.413   .     A
C917   C918    1.386   .     A
C917   H927    1.077   .     S
C918   F919    1.359   .     S
F920   C1018   1.363   1_455 S
O928   Zn944   1.930   .     S
O928   Zn942   1.943   .     S
O928   Zn941   1.962   .     S
O928   Zn943   1.938   .     S
O929   Zn942   1.921   .     S
O930   Zn944   1.931   .     S
O931   Zn943   1.923   .     S
O932   Zn941   1.914   .     S
O933   Zn941   1.935   .     S
O934   Zn944   1.940   .     S
O935   Zn942   1.934   .     S
O936   Zn943   1.944   .     S
O937   Zn944   1.940   .     S
O938   Zn941   1.932   .     S
O939   Zn942   1.945   .     S
O940   Zn943   1.936   .     S
Br945  C956    1.923   .     S
Br946  C1019   1.932   .     S
Br947  C609    1.931   1_565 S
Br948  C961    1.930   .     S
Br949  C951    1.930   .     S
C950   O994    1.262   .     A
C950   C960    1.429   .     S
C950   O996    1.269   .     A
C951   C952    1.392   .     A
C951   C974    1.422   .     A
C952   H984    1.081   .     S
C952   C423    1.398   1_556 S
C953   C959    1.456   .     S
C953   O997    1.271   .     A
C953   O995    1.290   .     A
C954   C956    1.416   .     A
C954   C955    1.422   .     A
C955   C975    1.424   .     A
C955   C958    1.410   .     A
C956   C957    1.395   .     A
C957   C969    1.393   .     A
C957   H983    1.084   .     S
C958   H982    1.078   .     S
C958   C969    1.389   .     A
C959   C1019   1.350   .     S
C959   F1038   1.363   .     S
C961   C970    1.397   .     A
C961   C968    1.419   .     A
C962   C965    1.452   .     S
C962   C609    1.346   1_565 S
C962   F626    1.363   1_565 S
C963   C964    1.428   .     S
C964   O992    1.276   .     A
C964   O998    1.272   .     A
C965   O993    1.263   .     A
C965   O999    1.276   .     A
C966   O990    1.277   .     A
C966   O988    1.279   .     A
C966   C969    1.454   .     S
C967   C968    1.484   .     S
C967   O989    1.281   .     A
C967   O991    1.297   .     A
C968   C971    1.401   .     A
C970   F981    1.359   .     S
C970   C973    1.405   .     A
C971   H985    1.079   .     S
C971   C972    1.406   .     A
C972   C974    1.426   .     A
C972   C973    1.417   .     A
C973   C446    1.399   1_556 S
C974   C444    1.423   1_556 S
C975   C976    1.413   .     A
C976   C977    1.386   .     A
C976   H986    1.077   .     S
C977   F978    1.359   .     S
O987   Zn1003  1.930   .     S
O987   Zn1001  1.943   .     S
O987   Zn1000  1.962   .     S
O987   Zn1002  1.938   .     S
O988   Zn1001  1.921   .     S
O989   Zn1003  1.931   .     S
O990   Zn1002  1.923   .     S
O991   Zn1000  1.914   .     S
O992   Zn1000  1.935   .     S
O993   Zn1003  1.940   .     S
O994   Zn1001  1.934   .     S
O995   Zn1002  1.944   .     S
O996   Zn1003  1.940   .     S
O997   Zn1000  1.932   .     S
O998   Zn1001  1.945   .     S
O999   Zn1002  1.936   .     S
Br1004 C1015   1.923   .     S
Br1005 C901    1.932   1_655 S
Br1006 C668    1.931   1_565 S
Br1007 C1020   1.930   .     S
Br1008 C1010   1.930   .     S
C1009  O1053   1.262   .     A
C1009  C1019   1.429   .     S
C1009  O1055   1.269   .     A
C1010  C1011   1.392   .     A
C1010  C1033   1.422   .     A
C1011  H1043   1.081   .     S
C1011  C482    1.398   1_556 S
C1012  C1018   1.456   .     S
C1012  O1056   1.271   .     A
C1012  O1054   1.290   .     A
C1013  C1015   1.416   .     A
C1013  C1014   1.422   .     A
C1014  C1034   1.424   .     A
C1014  C1017   1.410   .     A
C1015  C1016   1.395   .     A
C1016  C1028   1.393   .     A
C1016  H1042   1.084   .     S
C1017  H1041   1.078   .     S
C1017  C1028   1.389   .     A
C1018  C901    1.350   1_655 S
C1018  F920    1.363   1_655 S
C1020  C1029   1.397   .     A
C1020  C1027   1.419   .     A
C1021  C1024   1.452   .     S
C1021  C668    1.346   1_565 S
C1021  F685    1.363   1_565 S
C1022  C1023   1.428   .     S
C1023  O1051   1.276   .     A
C1023  O1057   1.272   .     A
C1024  O1052   1.263   .     A
C1024  O1058   1.276   .     A
C1025  O1049   1.277   .     A
C1025  O1047   1.279   .     A
C1025  C1028   1.454   .     S
C1026  C1027   1.484   .     S
C1026  O1048   1.281   .     A
C1026  O1050   1.297   .     A
C1027  C1030   1.401   .     A
C1029  F1040   1.359   .     S
C1029  C1032   1.405   .     A
C1030  H1044   1.079   .     S
C1030  C1031   1.406   .     A
C1031  C1033   1.426   .     A
C1031  C1032   1.417   .     A
C1032  C505    1.399   1_556 S
C1033  C503    1.423   1_556 S
C1034  C1035   1.413   .     A
C1035  C1036   1.386   .     A
C1035  H1045   1.077   .     S
C1036  F1037   1.359   .     S
O1046  Zn1062  1.930   .     S
O1046  Zn1060  1.943   .     S
O1046  Zn1059  1.962   .     S
O1046  Zn1061  1.938   .     S
O1047  Zn1060  1.921   .     S
O1048  Zn1062  1.931   .     S
O1049  Zn1061  1.923   .     S
O1050  Zn1059  1.914   .     S
O1051  Zn1059  1.935   .     S
O1052  Zn1062  1.940   .     S
O1053  Zn1060  1.934   .     S
O1054  Zn1061  1.944   .     S
O1055  Zn1062  1.940   .     S
O1056  Zn1059  1.932   .     S
O1057  Zn1060  1.945   .     S
O1058  Zn1061  1.936   .     S
