data_str_m3_o1_o16_pcu_sym.113
_audit_creation_date              2020-01-03
_audit_creation_method            'Materials Studio'
_symmetry_space_group_name_H-M    'P1'
_symmetry_Int_Tables_number       1
_symmetry_cell_setting            triclinic
loop_
_symmetry_equiv_pos_as_xyz
  x,y,z
_cell_length_a                    29.6009
_cell_length_b                    32.0395
_cell_length_c                    26.1094
_cell_angle_alpha                 90.1895
_cell_angle_beta                  71.5698
_cell_angle_gamma                 90.2964
loop_
_atom_site_label
_atom_site_type_symbol
_atom_site_fract_x
_atom_site_fract_y
_atom_site_fract_z
_atom_site_U_iso_or_equiv
_atom_site_adp_type
_atom_site_occupancy
C1     C     0.16627   0.24667   0.25183   0.00000  Uiso   1.00
C2     C     0.14863   0.13817   0.48569   0.00000  Uiso   1.00
C3     C     0.16322   0.13341   0.42922   0.00000  Uiso   1.00
C4     C     0.18409   0.14630   0.01048   0.00000  Uiso   1.00
C5     C     0.23297   0.14423   0.47953   0.00000  Uiso   1.00
C6     C     0.24589   0.13192   0.42589   0.00000  Uiso   1.00
C7     C     0.21154   0.12491   0.40139   0.00000  Uiso   1.00
C8     C     0.17250   0.15700   0.06478   0.00000  Uiso   1.00
C9     C     0.25611   0.16178   0.05786   0.00000  Uiso   1.00
C10    C     0.12868   0.13613   0.40255   0.00000  Uiso   1.00
C11    C     0.18452   0.31340   0.28868   0.00000  Uiso   1.00
C12    C     0.14199   0.15456   0.34781   0.00000  Uiso   1.00
C13    C     0.18553   0.02295   0.28561   0.00000  Uiso   1.00
C14    C     0.16620   0.04286   0.25027   0.00000  Uiso   1.00
C15    C     0.14575   0.02103   0.21711   0.00000  Uiso   1.00
C16    C     0.14603   0.31153   0.21801   0.00000  Uiso   1.00
C17    C     0.16575   0.29100   0.25327   0.00000  Uiso   1.00
C18    C     0.32031   0.14628   0.21052   0.00000  Uiso   1.00
C19    C     0.03484   0.14623   0.21063   0.00000  Uiso   1.00
C20    C     0.01301   0.18692   0.28953   0.00000  Uiso   1.00
C21    C     0.29837   0.18626   0.29002   0.00000  Uiso   1.00
C22    C     0.16678   0.08678   0.24907   0.00000  Uiso   1.00
C23    C     0.19269   0.16691   0.14781   0.00000  Uiso   1.00
C24    C     0.26843   0.15290   0.00305   0.00000  Uiso   1.00
C25    C     0.20788   0.16291   0.08916   0.00000  Uiso   1.00
C26    C     0.08200   0.12297   0.43069   0.00000  Uiso   1.00
C27    C     0.06753   0.12247   0.48713   0.00000  Uiso   1.00
C28    C     0.09959   0.13301   0.01451   0.00000  Uiso   1.00
H29    H     0.20029   0.04106   0.31164   0.00000  Uiso   1.00
H30    H     0.13082   0.03714   0.18977   0.00000  Uiso   1.00
H31    H     0.06161   0.12974   0.17921   0.00000  Uiso   1.00
H32    H     0.02227   0.20303   0.32132   0.00000  Uiso   1.00
H33    H     0.27135   0.20107   0.32279   0.00000  Uiso   1.00
H34    H     0.28257   0.12726   0.40279   0.00000  Uiso   1.00
H35    H     0.30570   0.15212   0.47914   0.00000  Uiso   1.00
H36    H     0.13579   0.16068   0.08890   0.00000  Uiso   1.00
H37    H     0.08591   0.13268   0.05801   0.00000  Uiso   1.00
H38    H     0.03182   0.11283   0.01019   0.00000  Uiso   1.00
N39    N     0.04760   0.16668   0.25001   0.00000  Uiso   1.00
N40    N     0.28573   0.16665   0.25000   0.00000  Uiso   1.00
O41    O     0.12846   0.22775   0.25000   0.00000  Uiso   1.00
O42    O     0.20490   0.22774   0.25000   0.00000  Uiso   1.00
O43    O     0.10947   0.16666   0.32681   0.00000  Uiso   1.00
O44    O     0.18591   0.16665   0.32681   0.00000  Uiso   1.00
O45    O     0.12843   0.10559   0.24999   0.00000  Uiso   1.00
O46    O     0.20488   0.10558   0.24999   0.00000  Uiso   1.00
O47    O     0.14742   0.16668   0.17319   0.00000  Uiso   1.00
O48    O     0.22387   0.16667   0.17319   0.00000  Uiso   1.00
Zn49   Zn    0.11562   0.16667   0.25000   0.00000  Uiso   1.00
Zn50   Zn    0.21771   0.16666   0.25000   0.00000  Uiso   1.00
F51    F     0.29123   0.16875   0.08000   0.00000  Uiso   1.00
F52    F     0.12823   0.29014   0.18357   0.00000  Uiso   1.00
F53    F     0.30870   0.12539   0.17122   0.00000  Uiso   1.00
S54    S     0.04857   0.09409   0.39730   0.00000  Uiso   1.00
O55    O     0.03262   0.12155   0.36006   0.00000  Uiso   1.00
O56    O     0.07966   0.06023   0.36466   0.00000  Uiso   1.00
O57    O     0.00075   0.07207   0.44241   0.00000  Uiso   1.00
H58    H     0.31893   0.05505   0.42056   0.00000  Uiso   1.00
F59    F     0.22547   0.10678   0.35183   0.00000  Uiso   1.00
S60    S     0.20577   0.29011   0.33800   0.00000  Uiso   1.00
O61    O     0.25639   0.27692   0.31131   0.00000  Uiso   1.00
O62    O     0.20440   0.32108   0.38187   0.00000  Uiso   1.00
O63    O     0.17213   0.24859   0.36570   0.00000  Uiso   1.00
H64    H     0.18686   0.23733   0.39195   0.00000  Uiso   1.00
C65    C     0.49961   0.24667   0.25183   0.00000  Uiso   1.00
C66    C     0.48196   0.13817   0.48569   0.00000  Uiso   1.00
C67    C     0.49655   0.13341   0.42922   0.00000  Uiso   1.00
C68    C     0.51743   0.14630   0.01048   0.00000  Uiso   1.00
C69    C     0.56631   0.14423   0.47953   0.00000  Uiso   1.00
C70    C     0.57922   0.13192   0.42589   0.00000  Uiso   1.00
C71    C     0.54488   0.12491   0.40139   0.00000  Uiso   1.00
C72    C     0.50583   0.15700   0.06478   0.00000  Uiso   1.00
C73    C     0.58944   0.16178   0.05786   0.00000  Uiso   1.00
C74    C     0.46201   0.13613   0.40255   0.00000  Uiso   1.00
C75    C     0.51786   0.31340   0.28868   0.00000  Uiso   1.00
C76    C     0.47533   0.15456   0.34781   0.00000  Uiso   1.00
C77    C     0.51886   0.02295   0.28561   0.00000  Uiso   1.00
C78    C     0.49953   0.04286   0.25027   0.00000  Uiso   1.00
C79    C     0.47908   0.02103   0.21711   0.00000  Uiso   1.00
C80    C     0.47936   0.31153   0.21801   0.00000  Uiso   1.00
C81    C     0.49909   0.29100   0.25327   0.00000  Uiso   1.00
C82    C     0.65365   0.14628   0.21052   0.00000  Uiso   1.00
C83    C     0.36817   0.14623   0.21063   0.00000  Uiso   1.00
C84    C     0.34635   0.18692   0.28953   0.00000  Uiso   1.00
C85    C     0.63170   0.18626   0.29002   0.00000  Uiso   1.00
C86    C     0.50012   0.08678   0.24907   0.00000  Uiso   1.00
C87    C     0.52602   0.16691   0.14781   0.00000  Uiso   1.00
C88    C     0.60177   0.15290   0.00305   0.00000  Uiso   1.00
C89    C     0.54121   0.16291   0.08916   0.00000  Uiso   1.00
C90    C     0.41533   0.12297   0.43069   0.00000  Uiso   1.00
C91    C     0.40086   0.12247   0.48713   0.00000  Uiso   1.00
C92    C     0.43292   0.13301   0.01451   0.00000  Uiso   1.00
H93    H     0.53362   0.04106   0.31164   0.00000  Uiso   1.00
H94    H     0.46415   0.03714   0.18977   0.00000  Uiso   1.00
H95    H     0.39494   0.12974   0.17921   0.00000  Uiso   1.00
H96    H     0.35561   0.20303   0.32132   0.00000  Uiso   1.00
H97    H     0.60468   0.20107   0.32279   0.00000  Uiso   1.00
H98    H     0.61590   0.12726   0.40279   0.00000  Uiso   1.00
H99    H     0.63903   0.15212   0.47914   0.00000  Uiso   1.00
H100   H     0.46912   0.16068   0.08890   0.00000  Uiso   1.00
H101   H     0.41924   0.13268   0.05801   0.00000  Uiso   1.00
H102   H     0.36515   0.11283   0.01019   0.00000  Uiso   1.00
N103   N     0.38093   0.16668   0.25001   0.00000  Uiso   1.00
N104   N     0.61906   0.16665   0.25000   0.00000  Uiso   1.00
O105   O     0.46179   0.22775   0.25000   0.00000  Uiso   1.00
O106   O     0.53823   0.22774   0.25000   0.00000  Uiso   1.00
O107   O     0.44280   0.16666   0.32681   0.00000  Uiso   1.00
O108   O     0.51924   0.16665   0.32681   0.00000  Uiso   1.00
O109   O     0.46177   0.10559   0.24999   0.00000  Uiso   1.00
O110   O     0.53821   0.10558   0.24999   0.00000  Uiso   1.00
O111   O     0.48076   0.16668   0.17319   0.00000  Uiso   1.00
O112   O     0.55720   0.16667   0.17319   0.00000  Uiso   1.00
Zn113  Zn    0.44896   0.16667   0.25000   0.00000  Uiso   1.00
Zn114  Zn    0.55104   0.16666   0.25000   0.00000  Uiso   1.00
F115   F     0.62457   0.16875   0.08000   0.00000  Uiso   1.00
F116   F     0.46157   0.29014   0.18357   0.00000  Uiso   1.00
F117   F     0.64204   0.12539   0.17122   0.00000  Uiso   1.00
S118   S     0.38191   0.09409   0.39730   0.00000  Uiso   1.00
O119   O     0.36595   0.12155   0.36006   0.00000  Uiso   1.00
O120   O     0.41299   0.06023   0.36466   0.00000  Uiso   1.00
O121   O     0.33409   0.07207   0.44241   0.00000  Uiso   1.00
H122   H     0.65226   0.05505   0.42056   0.00000  Uiso   1.00
F123   F     0.55881   0.10678   0.35183   0.00000  Uiso   1.00
S124   S     0.53911   0.29011   0.33800   0.00000  Uiso   1.00
O125   O     0.58973   0.27692   0.31131   0.00000  Uiso   1.00
O126   O     0.53773   0.32108   0.38187   0.00000  Uiso   1.00
O127   O     0.50547   0.24859   0.36570   0.00000  Uiso   1.00
H128   H     0.52019   0.23733   0.39195   0.00000  Uiso   1.00
C129   C     0.83294   0.24667   0.25183   0.00000  Uiso   1.00
C130   C     0.81530   0.13817   0.48569   0.00000  Uiso   1.00
C131   C     0.82988   0.13341   0.42922   0.00000  Uiso   1.00
C132   C     0.85076   0.14630   0.01048   0.00000  Uiso   1.00
C133   C     0.89964   0.14423   0.47953   0.00000  Uiso   1.00
C134   C     0.91256   0.13192   0.42589   0.00000  Uiso   1.00
C135   C     0.87821   0.12491   0.40139   0.00000  Uiso   1.00
C136   C     0.83916   0.15700   0.06478   0.00000  Uiso   1.00
C137   C     0.92277   0.16178   0.05786   0.00000  Uiso   1.00
C138   C     0.79534   0.13613   0.40255   0.00000  Uiso   1.00
C139   C     0.85119   0.31340   0.28868   0.00000  Uiso   1.00
C140   C     0.80866   0.15456   0.34781   0.00000  Uiso   1.00
C141   C     0.85220   0.02295   0.28561   0.00000  Uiso   1.00
C142   C     0.83287   0.04286   0.25027   0.00000  Uiso   1.00
C143   C     0.81241   0.02103   0.21711   0.00000  Uiso   1.00
C144   C     0.81269   0.31153   0.21801   0.00000  Uiso   1.00
C145   C     0.83242   0.29100   0.25327   0.00000  Uiso   1.00
C146   C     0.98698   0.14628   0.21052   0.00000  Uiso   1.00
C147   C     0.70151   0.14623   0.21063   0.00000  Uiso   1.00
C148   C     0.67968   0.18692   0.28953   0.00000  Uiso   1.00
C149   C     0.96503   0.18626   0.29002   0.00000  Uiso   1.00
C150   C     0.83345   0.08678   0.24907   0.00000  Uiso   1.00
C151   C     0.85935   0.16691   0.14781   0.00000  Uiso   1.00
C152   C     0.93510   0.15290   0.00305   0.00000  Uiso   1.00
C153   C     0.87455   0.16291   0.08916   0.00000  Uiso   1.00
C154   C     0.74867   0.12297   0.43069   0.00000  Uiso   1.00
C155   C     0.73420   0.12247   0.48713   0.00000  Uiso   1.00
C156   C     0.76625   0.13301   0.01451   0.00000  Uiso   1.00
H157   H     0.86696   0.04106   0.31164   0.00000  Uiso   1.00
H158   H     0.79748   0.03714   0.18977   0.00000  Uiso   1.00
H159   H     0.72828   0.12974   0.17921   0.00000  Uiso   1.00
H160   H     0.68894   0.20303   0.32132   0.00000  Uiso   1.00
H161   H     0.93801   0.20107   0.32279   0.00000  Uiso   1.00
H162   H     0.94924   0.12726   0.40279   0.00000  Uiso   1.00
H163   H     0.97237   0.15212   0.47914   0.00000  Uiso   1.00
H164   H     0.80246   0.16068   0.08890   0.00000  Uiso   1.00
H165   H     0.75258   0.13268   0.05801   0.00000  Uiso   1.00
H166   H     0.69848   0.11283   0.01019   0.00000  Uiso   1.00
N167   N     0.71426   0.16668   0.25001   0.00000  Uiso   1.00
N168   N     0.95239   0.16665   0.25000   0.00000  Uiso   1.00
O169   O     0.79512   0.22775   0.25000   0.00000  Uiso   1.00
O170   O     0.87157   0.22774   0.25000   0.00000  Uiso   1.00
O171   O     0.77613   0.16666   0.32681   0.00000  Uiso   1.00
O172   O     0.85258   0.16665   0.32681   0.00000  Uiso   1.00
O173   O     0.79510   0.10559   0.24999   0.00000  Uiso   1.00
O174   O     0.87154   0.10558   0.24999   0.00000  Uiso   1.00
O175   O     0.81409   0.16668   0.17319   0.00000  Uiso   1.00
O176   O     0.89053   0.16667   0.17319   0.00000  Uiso   1.00
Zn177  Zn    0.78229   0.16667   0.25000   0.00000  Uiso   1.00
Zn178  Zn    0.88438   0.16666   0.25000   0.00000  Uiso   1.00
F179   F     0.95790   0.16875   0.08000   0.00000  Uiso   1.00
F180   F     0.79490   0.29014   0.18357   0.00000  Uiso   1.00
F181   F     0.97537   0.12539   0.17122   0.00000  Uiso   1.00
S182   S     0.71524   0.09409   0.39730   0.00000  Uiso   1.00
O183   O     0.69929   0.12155   0.36006   0.00000  Uiso   1.00
O184   O     0.74632   0.06023   0.36466   0.00000  Uiso   1.00
O185   O     0.66742   0.07207   0.44241   0.00000  Uiso   1.00
H186   H     0.98559   0.05505   0.42056   0.00000  Uiso   1.00
F187   F     0.89214   0.10678   0.35183   0.00000  Uiso   1.00
S188   S     0.87244   0.29011   0.33800   0.00000  Uiso   1.00
O189   O     0.92306   0.27692   0.31131   0.00000  Uiso   1.00
O190   O     0.87106   0.32108   0.38187   0.00000  Uiso   1.00
O191   O     0.83880   0.24859   0.36570   0.00000  Uiso   1.00
H192   H     0.85353   0.23733   0.39195   0.00000  Uiso   1.00
C193   C     0.16627   0.58001   0.25183   0.00000  Uiso   1.00
C194   C     0.14863   0.47150   0.48569   0.00000  Uiso   1.00
C195   C     0.16322   0.46674   0.42922   0.00000  Uiso   1.00
C196   C     0.18409   0.47964   0.01048   0.00000  Uiso   1.00
C197   C     0.23297   0.47757   0.47953   0.00000  Uiso   1.00
C198   C     0.24589   0.46526   0.42589   0.00000  Uiso   1.00
C199   C     0.21154   0.45825   0.40139   0.00000  Uiso   1.00
C200   C     0.17250   0.49034   0.06478   0.00000  Uiso   1.00
C201   C     0.25611   0.49512   0.05786   0.00000  Uiso   1.00
C202   C     0.12868   0.46946   0.40255   0.00000  Uiso   1.00
C203   C     0.18452   0.64674   0.28868   0.00000  Uiso   1.00
C204   C     0.14199   0.48790   0.34781   0.00000  Uiso   1.00
C205   C     0.18553   0.35628   0.28561   0.00000  Uiso   1.00
C206   C     0.16620   0.37619   0.25027   0.00000  Uiso   1.00
C207   C     0.14575   0.35436   0.21711   0.00000  Uiso   1.00
C208   C     0.14603   0.64487   0.21801   0.00000  Uiso   1.00
C209   C     0.16575   0.62433   0.25327   0.00000  Uiso   1.00
C210   C     0.32031   0.47962   0.21052   0.00000  Uiso   1.00
C211   C     0.03484   0.47956   0.21063   0.00000  Uiso   1.00
C212   C     0.01301   0.52025   0.28953   0.00000  Uiso   1.00
C213   C     0.29837   0.51960   0.29002   0.00000  Uiso   1.00
C214   C     0.16678   0.42012   0.24907   0.00000  Uiso   1.00
C215   C     0.19269   0.50025   0.14781   0.00000  Uiso   1.00
C216   C     0.26843   0.48624   0.00305   0.00000  Uiso   1.00
C217   C     0.20788   0.49625   0.08916   0.00000  Uiso   1.00
C218   C     0.08200   0.45631   0.43069   0.00000  Uiso   1.00
C219   C     0.06753   0.45580   0.48713   0.00000  Uiso   1.00
C220   C     0.09959   0.46635   0.01451   0.00000  Uiso   1.00
H221   H     0.20029   0.37439   0.31164   0.00000  Uiso   1.00
H222   H     0.13082   0.37047   0.18977   0.00000  Uiso   1.00
H223   H     0.06161   0.46308   0.17921   0.00000  Uiso   1.00
H224   H     0.02227   0.53636   0.32132   0.00000  Uiso   1.00
H225   H     0.27135   0.53440   0.32279   0.00000  Uiso   1.00
H226   H     0.28257   0.46059   0.40279   0.00000  Uiso   1.00
H227   H     0.30570   0.48545   0.47914   0.00000  Uiso   1.00
H228   H     0.13579   0.49401   0.08890   0.00000  Uiso   1.00
H229   H     0.08591   0.46601   0.05801   0.00000  Uiso   1.00
H230   H     0.03182   0.44616   0.01019   0.00000  Uiso   1.00
N231   N     0.04760   0.50001   0.25001   0.00000  Uiso   1.00
N232   N     0.28573   0.49998   0.25000   0.00000  Uiso   1.00
O233   O     0.12846   0.56108   0.25000   0.00000  Uiso   1.00
O234   O     0.20490   0.56107   0.25000   0.00000  Uiso   1.00
O235   O     0.10947   0.50000   0.32681   0.00000  Uiso   1.00
O236   O     0.18591   0.49999   0.32681   0.00000  Uiso   1.00
O237   O     0.12843   0.43893   0.24999   0.00000  Uiso   1.00
O238   O     0.20488   0.43892   0.24999   0.00000  Uiso   1.00
O239   O     0.14742   0.50001   0.17319   0.00000  Uiso   1.00
O240   O     0.22387   0.50000   0.17319   0.00000  Uiso   1.00
Zn241  Zn    0.11562   0.50001   0.25000   0.00000  Uiso   1.00
Zn242  Zn    0.21771   0.49999   0.25000   0.00000  Uiso   1.00
F243   F     0.29123   0.50209   0.08000   0.00000  Uiso   1.00
F244   F     0.12823   0.62347   0.18357   0.00000  Uiso   1.00
F245   F     0.30870   0.45873   0.17122   0.00000  Uiso   1.00
S246   S     0.04857   0.42742   0.39730   0.00000  Uiso   1.00
O247   O     0.03262   0.45489   0.36006   0.00000  Uiso   1.00
O248   O     0.07966   0.39357   0.36466   0.00000  Uiso   1.00
O249   O     0.00075   0.40540   0.44241   0.00000  Uiso   1.00
H250   H     0.31893   0.38838   0.42056   0.00000  Uiso   1.00
F251   F     0.22547   0.44012   0.35183   0.00000  Uiso   1.00
S252   S     0.20577   0.62344   0.33800   0.00000  Uiso   1.00
O253   O     0.25639   0.61025   0.31131   0.00000  Uiso   1.00
O254   O     0.20440   0.65441   0.38187   0.00000  Uiso   1.00
O255   O     0.17213   0.58192   0.36570   0.00000  Uiso   1.00
H256   H     0.18686   0.57067   0.39195   0.00000  Uiso   1.00
C257   C     0.49961   0.58001   0.25183   0.00000  Uiso   1.00
C258   C     0.48196   0.47150   0.48569   0.00000  Uiso   1.00
C259   C     0.49655   0.46674   0.42922   0.00000  Uiso   1.00
C260   C     0.51743   0.47964   0.01048   0.00000  Uiso   1.00
C261   C     0.56631   0.47757   0.47953   0.00000  Uiso   1.00
C262   C     0.57922   0.46526   0.42589   0.00000  Uiso   1.00
C263   C     0.54488   0.45825   0.40139   0.00000  Uiso   1.00
C264   C     0.50583   0.49034   0.06478   0.00000  Uiso   1.00
C265   C     0.58944   0.49512   0.05786   0.00000  Uiso   1.00
C266   C     0.46201   0.46946   0.40255   0.00000  Uiso   1.00
C267   C     0.51786   0.64674   0.28868   0.00000  Uiso   1.00
C268   C     0.47533   0.48790   0.34781   0.00000  Uiso   1.00
C269   C     0.51886   0.35628   0.28561   0.00000  Uiso   1.00
C270   C     0.49953   0.37619   0.25027   0.00000  Uiso   1.00
C271   C     0.47908   0.35436   0.21711   0.00000  Uiso   1.00
C272   C     0.47936   0.64487   0.21801   0.00000  Uiso   1.00
C273   C     0.49909   0.62433   0.25327   0.00000  Uiso   1.00
C274   C     0.65365   0.47962   0.21052   0.00000  Uiso   1.00
C275   C     0.36817   0.47956   0.21063   0.00000  Uiso   1.00
C276   C     0.34635   0.52025   0.28953   0.00000  Uiso   1.00
C277   C     0.63170   0.51960   0.29002   0.00000  Uiso   1.00
C278   C     0.50012   0.42012   0.24907   0.00000  Uiso   1.00
C279   C     0.52602   0.50025   0.14781   0.00000  Uiso   1.00
C280   C     0.60177   0.48624   0.00305   0.00000  Uiso   1.00
C281   C     0.54121   0.49625   0.08916   0.00000  Uiso   1.00
C282   C     0.41533   0.45631   0.43069   0.00000  Uiso   1.00
C283   C     0.40086   0.45580   0.48713   0.00000  Uiso   1.00
C284   C     0.43292   0.46635   0.01451   0.00000  Uiso   1.00
H285   H     0.53362   0.37439   0.31164   0.00000  Uiso   1.00
H286   H     0.46415   0.37047   0.18977   0.00000  Uiso   1.00
H287   H     0.39494   0.46308   0.17921   0.00000  Uiso   1.00
H288   H     0.35561   0.53636   0.32132   0.00000  Uiso   1.00
H289   H     0.60468   0.53440   0.32279   0.00000  Uiso   1.00
H290   H     0.61590   0.46059   0.40279   0.00000  Uiso   1.00
H291   H     0.63903   0.48545   0.47914   0.00000  Uiso   1.00
H292   H     0.46912   0.49401   0.08890   0.00000  Uiso   1.00
H293   H     0.41924   0.46601   0.05801   0.00000  Uiso   1.00
H294   H     0.36515   0.44616   0.01019   0.00000  Uiso   1.00
N295   N     0.38093   0.50001   0.25001   0.00000  Uiso   1.00
N296   N     0.61906   0.49998   0.25000   0.00000  Uiso   1.00
O297   O     0.46179   0.56108   0.25000   0.00000  Uiso   1.00
O298   O     0.53823   0.56107   0.25000   0.00000  Uiso   1.00
O299   O     0.44280   0.50000   0.32681   0.00000  Uiso   1.00
O300   O     0.51924   0.49999   0.32681   0.00000  Uiso   1.00
O301   O     0.46177   0.43893   0.24999   0.00000  Uiso   1.00
O302   O     0.53821   0.43892   0.24999   0.00000  Uiso   1.00
O303   O     0.48076   0.50001   0.17319   0.00000  Uiso   1.00
O304   O     0.55720   0.50000   0.17319   0.00000  Uiso   1.00
Zn305  Zn    0.44896   0.50001   0.25000   0.00000  Uiso   1.00
Zn306  Zn    0.55104   0.49999   0.25000   0.00000  Uiso   1.00
F307   F     0.62457   0.50209   0.08000   0.00000  Uiso   1.00
F308   F     0.46157   0.62347   0.18357   0.00000  Uiso   1.00
F309   F     0.64204   0.45873   0.17122   0.00000  Uiso   1.00
S310   S     0.38191   0.42742   0.39730   0.00000  Uiso   1.00
O311   O     0.36595   0.45489   0.36006   0.00000  Uiso   1.00
O312   O     0.41299   0.39357   0.36466   0.00000  Uiso   1.00
O313   O     0.33409   0.40540   0.44241   0.00000  Uiso   1.00
H314   H     0.65226   0.38838   0.42056   0.00000  Uiso   1.00
F315   F     0.55881   0.44012   0.35183   0.00000  Uiso   1.00
S316   S     0.53911   0.62344   0.33800   0.00000  Uiso   1.00
O317   O     0.58973   0.61025   0.31131   0.00000  Uiso   1.00
O318   O     0.53773   0.65441   0.38187   0.00000  Uiso   1.00
O319   O     0.50547   0.58192   0.36570   0.00000  Uiso   1.00
H320   H     0.52019   0.57067   0.39195   0.00000  Uiso   1.00
C321   C     0.83294   0.58001   0.25183   0.00000  Uiso   1.00
C322   C     0.81530   0.47150   0.48569   0.00000  Uiso   1.00
C323   C     0.82988   0.46674   0.42922   0.00000  Uiso   1.00
C324   C     0.85076   0.47964   0.01048   0.00000  Uiso   1.00
C325   C     0.89964   0.47757   0.47953   0.00000  Uiso   1.00
C326   C     0.91256   0.46526   0.42589   0.00000  Uiso   1.00
C327   C     0.87821   0.45825   0.40139   0.00000  Uiso   1.00
C328   C     0.83916   0.49034   0.06478   0.00000  Uiso   1.00
C329   C     0.92277   0.49512   0.05786   0.00000  Uiso   1.00
C330   C     0.79534   0.46946   0.40255   0.00000  Uiso   1.00
C331   C     0.85119   0.64674   0.28868   0.00000  Uiso   1.00
C332   C     0.80866   0.48790   0.34781   0.00000  Uiso   1.00
C333   C     0.85220   0.35628   0.28561   0.00000  Uiso   1.00
C334   C     0.83287   0.37619   0.25027   0.00000  Uiso   1.00
C335   C     0.81241   0.35436   0.21711   0.00000  Uiso   1.00
C336   C     0.81269   0.64487   0.21801   0.00000  Uiso   1.00
C337   C     0.83242   0.62433   0.25327   0.00000  Uiso   1.00
C338   C     0.98698   0.47962   0.21052   0.00000  Uiso   1.00
C339   C     0.70151   0.47956   0.21063   0.00000  Uiso   1.00
C340   C     0.67968   0.52025   0.28953   0.00000  Uiso   1.00
C341   C     0.96503   0.51960   0.29002   0.00000  Uiso   1.00
C342   C     0.83345   0.42012   0.24907   0.00000  Uiso   1.00
C343   C     0.85935   0.50025   0.14781   0.00000  Uiso   1.00
C344   C     0.93510   0.48624   0.00305   0.00000  Uiso   1.00
C345   C     0.87455   0.49625   0.08916   0.00000  Uiso   1.00
C346   C     0.74867   0.45631   0.43069   0.00000  Uiso   1.00
C347   C     0.73420   0.45580   0.48713   0.00000  Uiso   1.00
C348   C     0.76625   0.46635   0.01451   0.00000  Uiso   1.00
H349   H     0.86696   0.37439   0.31164   0.00000  Uiso   1.00
H350   H     0.79748   0.37047   0.18977   0.00000  Uiso   1.00
H351   H     0.72828   0.46308   0.17921   0.00000  Uiso   1.00
H352   H     0.68894   0.53636   0.32132   0.00000  Uiso   1.00
H353   H     0.93801   0.53440   0.32279   0.00000  Uiso   1.00
H354   H     0.94924   0.46059   0.40279   0.00000  Uiso   1.00
H355   H     0.97237   0.48545   0.47914   0.00000  Uiso   1.00
H356   H     0.80246   0.49401   0.08890   0.00000  Uiso   1.00
H357   H     0.75258   0.46601   0.05801   0.00000  Uiso   1.00
H358   H     0.69848   0.44616   0.01019   0.00000  Uiso   1.00
N359   N     0.71426   0.50001   0.25001   0.00000  Uiso   1.00
N360   N     0.95239   0.49998   0.25000   0.00000  Uiso   1.00
O361   O     0.79512   0.56108   0.25000   0.00000  Uiso   1.00
O362   O     0.87157   0.56107   0.25000   0.00000  Uiso   1.00
O363   O     0.77613   0.50000   0.32681   0.00000  Uiso   1.00
O364   O     0.85258   0.49999   0.32681   0.00000  Uiso   1.00
O365   O     0.79510   0.43893   0.24999   0.00000  Uiso   1.00
O366   O     0.87154   0.43892   0.24999   0.00000  Uiso   1.00
O367   O     0.81409   0.50001   0.17319   0.00000  Uiso   1.00
O368   O     0.89053   0.50000   0.17319   0.00000  Uiso   1.00
Zn369  Zn    0.78229   0.50001   0.25000   0.00000  Uiso   1.00
Zn370  Zn    0.88438   0.49999   0.25000   0.00000  Uiso   1.00
F371   F     0.95790   0.50209   0.08000   0.00000  Uiso   1.00
F372   F     0.79490   0.62347   0.18357   0.00000  Uiso   1.00
F373   F     0.97537   0.45873   0.17122   0.00000  Uiso   1.00
S374   S     0.71524   0.42742   0.39730   0.00000  Uiso   1.00
O375   O     0.69929   0.45489   0.36006   0.00000  Uiso   1.00
O376   O     0.74632   0.39357   0.36466   0.00000  Uiso   1.00
O377   O     0.66742   0.40540   0.44241   0.00000  Uiso   1.00
H378   H     0.98559   0.38838   0.42056   0.00000  Uiso   1.00
F379   F     0.89214   0.44012   0.35183   0.00000  Uiso   1.00
S380   S     0.87244   0.62344   0.33800   0.00000  Uiso   1.00
O381   O     0.92306   0.61025   0.31131   0.00000  Uiso   1.00
O382   O     0.87106   0.65441   0.38187   0.00000  Uiso   1.00
O383   O     0.83880   0.58192   0.36570   0.00000  Uiso   1.00
H384   H     0.85353   0.57067   0.39195   0.00000  Uiso   1.00
C385   C     0.16627   0.91334   0.25183   0.00000  Uiso   1.00
C386   C     0.14863   0.80484   0.48569   0.00000  Uiso   1.00
C387   C     0.16322   0.80007   0.42922   0.00000  Uiso   1.00
C388   C     0.18409   0.81297   0.01048   0.00000  Uiso   1.00
C389   C     0.23297   0.81090   0.47953   0.00000  Uiso   1.00
C390   C     0.24589   0.79859   0.42589   0.00000  Uiso   1.00
C391   C     0.21154   0.79158   0.40139   0.00000  Uiso   1.00
C392   C     0.17250   0.82367   0.06478   0.00000  Uiso   1.00
C393   C     0.25611   0.82845   0.05786   0.00000  Uiso   1.00
C394   C     0.12868   0.80280   0.40255   0.00000  Uiso   1.00
C395   C     0.18452   0.98007   0.28868   0.00000  Uiso   1.00
C396   C     0.14199   0.82123   0.34781   0.00000  Uiso   1.00
C397   C     0.18553   0.68962   0.28561   0.00000  Uiso   1.00
C398   C     0.16620   0.70953   0.25027   0.00000  Uiso   1.00
C399   C     0.14575   0.68770   0.21711   0.00000  Uiso   1.00
C400   C     0.14603   0.97820   0.21801   0.00000  Uiso   1.00
C401   C     0.16575   0.95767   0.25327   0.00000  Uiso   1.00
C402   C     0.32031   0.81295   0.21052   0.00000  Uiso   1.00
C403   C     0.03484   0.81289   0.21063   0.00000  Uiso   1.00
C404   C     0.01301   0.85358   0.28953   0.00000  Uiso   1.00
C405   C     0.29837   0.85293   0.29002   0.00000  Uiso   1.00
C406   C     0.16678   0.75345   0.24907   0.00000  Uiso   1.00
C407   C     0.19269   0.83358   0.14781   0.00000  Uiso   1.00
C408   C     0.26843   0.81957   0.00305   0.00000  Uiso   1.00
C409   C     0.20788   0.82958   0.08916   0.00000  Uiso   1.00
C410   C     0.08200   0.78964   0.43069   0.00000  Uiso   1.00
C411   C     0.06753   0.78913   0.48713   0.00000  Uiso   1.00
C412   C     0.09959   0.79968   0.01451   0.00000  Uiso   1.00
H413   H     0.20029   0.70772   0.31164   0.00000  Uiso   1.00
H414   H     0.13082   0.70381   0.18977   0.00000  Uiso   1.00
H415   H     0.06161   0.79641   0.17921   0.00000  Uiso   1.00
H416   H     0.02227   0.86970   0.32132   0.00000  Uiso   1.00
H417   H     0.27135   0.86774   0.32279   0.00000  Uiso   1.00
H418   H     0.28257   0.79393   0.40279   0.00000  Uiso   1.00
H419   H     0.30570   0.81878   0.47914   0.00000  Uiso   1.00
H420   H     0.13579   0.82735   0.08890   0.00000  Uiso   1.00
H421   H     0.08591   0.79934   0.05801   0.00000  Uiso   1.00
H422   H     0.03182   0.77949   0.01019   0.00000  Uiso   1.00
N423   N     0.04760   0.83334   0.25001   0.00000  Uiso   1.00
N424   N     0.28573   0.83331   0.25000   0.00000  Uiso   1.00
O425   O     0.12846   0.89442   0.25000   0.00000  Uiso   1.00
O426   O     0.20490   0.89441   0.25000   0.00000  Uiso   1.00
O427   O     0.10947   0.83333   0.32681   0.00000  Uiso   1.00
O428   O     0.18591   0.83332   0.32681   0.00000  Uiso   1.00
O429   O     0.12843   0.77226   0.24999   0.00000  Uiso   1.00
O430   O     0.20488   0.77225   0.24999   0.00000  Uiso   1.00
O431   O     0.14742   0.83335   0.17319   0.00000  Uiso   1.00
O432   O     0.22387   0.83334   0.17319   0.00000  Uiso   1.00
Zn433  Zn    0.11562   0.83334   0.25000   0.00000  Uiso   1.00
Zn434  Zn    0.21771   0.83333   0.25000   0.00000  Uiso   1.00
F435   F     0.29123   0.83542   0.08000   0.00000  Uiso   1.00
F436   F     0.12823   0.95681   0.18357   0.00000  Uiso   1.00
F437   F     0.30870   0.79206   0.17122   0.00000  Uiso   1.00
S438   S     0.04857   0.76076   0.39730   0.00000  Uiso   1.00
O439   O     0.03262   0.78822   0.36006   0.00000  Uiso   1.00
O440   O     0.07966   0.72690   0.36466   0.00000  Uiso   1.00
O441   O     0.00075   0.73873   0.44241   0.00000  Uiso   1.00
H442   H     0.31893   0.72171   0.42056   0.00000  Uiso   1.00
F443   F     0.22547   0.77345   0.35183   0.00000  Uiso   1.00
S444   S     0.20577   0.95678   0.33800   0.00000  Uiso   1.00
O445   O     0.25639   0.94359   0.31131   0.00000  Uiso   1.00
O446   O     0.20440   0.98775   0.38187   0.00000  Uiso   1.00
O447   O     0.17213   0.91526   0.36570   0.00000  Uiso   1.00
H448   H     0.18686   0.90400   0.39195   0.00000  Uiso   1.00
C449   C     0.49961   0.91334   0.25183   0.00000  Uiso   1.00
C450   C     0.48196   0.80484   0.48569   0.00000  Uiso   1.00
C451   C     0.49655   0.80007   0.42922   0.00000  Uiso   1.00
C452   C     0.51743   0.81297   0.01048   0.00000  Uiso   1.00
C453   C     0.56631   0.81090   0.47953   0.00000  Uiso   1.00
C454   C     0.57922   0.79859   0.42589   0.00000  Uiso   1.00
C455   C     0.54488   0.79158   0.40139   0.00000  Uiso   1.00
C456   C     0.50583   0.82367   0.06478   0.00000  Uiso   1.00
C457   C     0.58944   0.82845   0.05786   0.00000  Uiso   1.00
C458   C     0.46201   0.80280   0.40255   0.00000  Uiso   1.00
C459   C     0.51786   0.98007   0.28868   0.00000  Uiso   1.00
C460   C     0.47533   0.82123   0.34781   0.00000  Uiso   1.00
C461   C     0.51886   0.68962   0.28561   0.00000  Uiso   1.00
C462   C     0.49953   0.70953   0.25027   0.00000  Uiso   1.00
C463   C     0.47908   0.68770   0.21711   0.00000  Uiso   1.00
C464   C     0.47936   0.97820   0.21801   0.00000  Uiso   1.00
C465   C     0.49909   0.95767   0.25327   0.00000  Uiso   1.00
C466   C     0.65365   0.81295   0.21052   0.00000  Uiso   1.00
C467   C     0.36817   0.81289   0.21063   0.00000  Uiso   1.00
C468   C     0.34635   0.85358   0.28953   0.00000  Uiso   1.00
C469   C     0.63170   0.85293   0.29002   0.00000  Uiso   1.00
C470   C     0.50012   0.75345   0.24907   0.00000  Uiso   1.00
C471   C     0.52602   0.83358   0.14781   0.00000  Uiso   1.00
C472   C     0.60177   0.81957   0.00305   0.00000  Uiso   1.00
C473   C     0.54121   0.82958   0.08916   0.00000  Uiso   1.00
C474   C     0.41533   0.78964   0.43069   0.00000  Uiso   1.00
C475   C     0.40086   0.78913   0.48713   0.00000  Uiso   1.00
C476   C     0.43292   0.79968   0.01451   0.00000  Uiso   1.00
H477   H     0.53362   0.70772   0.31164   0.00000  Uiso   1.00
H478   H     0.46415   0.70381   0.18977   0.00000  Uiso   1.00
H479   H     0.39494   0.79641   0.17921   0.00000  Uiso   1.00
H480   H     0.35561   0.86970   0.32132   0.00000  Uiso   1.00
H481   H     0.60468   0.86774   0.32279   0.00000  Uiso   1.00
H482   H     0.61590   0.79393   0.40279   0.00000  Uiso   1.00
H483   H     0.63903   0.81878   0.47914   0.00000  Uiso   1.00
H484   H     0.46912   0.82735   0.08890   0.00000  Uiso   1.00
H485   H     0.41924   0.79934   0.05801   0.00000  Uiso   1.00
H486   H     0.36515   0.77949   0.01019   0.00000  Uiso   1.00
N487   N     0.38093   0.83334   0.25001   0.00000  Uiso   1.00
N488   N     0.61906   0.83331   0.25000   0.00000  Uiso   1.00
O489   O     0.46179   0.89442   0.25000   0.00000  Uiso   1.00
O490   O     0.53823   0.89441   0.25000   0.00000  Uiso   1.00
O491   O     0.44280   0.83333   0.32681   0.00000  Uiso   1.00
O492   O     0.51924   0.83332   0.32681   0.00000  Uiso   1.00
O493   O     0.46177   0.77226   0.24999   0.00000  Uiso   1.00
O494   O     0.53821   0.77225   0.24999   0.00000  Uiso   1.00
O495   O     0.48076   0.83335   0.17319   0.00000  Uiso   1.00
O496   O     0.55720   0.83334   0.17319   0.00000  Uiso   1.00
Zn497  Zn    0.44896   0.83334   0.25000   0.00000  Uiso   1.00
Zn498  Zn    0.55104   0.83333   0.25000   0.00000  Uiso   1.00
F499   F     0.62457   0.83542   0.08000   0.00000  Uiso   1.00
F500   F     0.46157   0.95681   0.18357   0.00000  Uiso   1.00
F501   F     0.64204   0.79206   0.17122   0.00000  Uiso   1.00
S502   S     0.38191   0.76076   0.39730   0.00000  Uiso   1.00
O503   O     0.36595   0.78822   0.36006   0.00000  Uiso   1.00
O504   O     0.41299   0.72690   0.36466   0.00000  Uiso   1.00
O505   O     0.33409   0.73873   0.44241   0.00000  Uiso   1.00
H506   H     0.65226   0.72171   0.42056   0.00000  Uiso   1.00
F507   F     0.55881   0.77345   0.35183   0.00000  Uiso   1.00
S508   S     0.53911   0.95678   0.33800   0.00000  Uiso   1.00
O509   O     0.58973   0.94359   0.31131   0.00000  Uiso   1.00
O510   O     0.53773   0.98775   0.38187   0.00000  Uiso   1.00
O511   O     0.50547   0.91526   0.36570   0.00000  Uiso   1.00
H512   H     0.52019   0.90400   0.39195   0.00000  Uiso   1.00
C513   C     0.83294   0.91334   0.25183   0.00000  Uiso   1.00
C514   C     0.81530   0.80484   0.48569   0.00000  Uiso   1.00
C515   C     0.82988   0.80007   0.42922   0.00000  Uiso   1.00
C516   C     0.85076   0.81297   0.01048   0.00000  Uiso   1.00
C517   C     0.89964   0.81090   0.47953   0.00000  Uiso   1.00
C518   C     0.91256   0.79859   0.42589   0.00000  Uiso   1.00
C519   C     0.87821   0.79158   0.40139   0.00000  Uiso   1.00
C520   C     0.83916   0.82367   0.06478   0.00000  Uiso   1.00
C521   C     0.92277   0.82845   0.05786   0.00000  Uiso   1.00
C522   C     0.79534   0.80280   0.40255   0.00000  Uiso   1.00
C523   C     0.85119   0.98007   0.28868   0.00000  Uiso   1.00
C524   C     0.80866   0.82123   0.34781   0.00000  Uiso   1.00
C525   C     0.85220   0.68962   0.28561   0.00000  Uiso   1.00
C526   C     0.83287   0.70953   0.25027   0.00000  Uiso   1.00
C527   C     0.81241   0.68770   0.21711   0.00000  Uiso   1.00
C528   C     0.81269   0.97820   0.21801   0.00000  Uiso   1.00
C529   C     0.83242   0.95767   0.25327   0.00000  Uiso   1.00
C530   C     0.98698   0.81295   0.21052   0.00000  Uiso   1.00
C531   C     0.70151   0.81289   0.21063   0.00000  Uiso   1.00
C532   C     0.67968   0.85358   0.28953   0.00000  Uiso   1.00
C533   C     0.96503   0.85293   0.29002   0.00000  Uiso   1.00
C534   C     0.83345   0.75345   0.24907   0.00000  Uiso   1.00
C535   C     0.85935   0.83358   0.14781   0.00000  Uiso   1.00
C536   C     0.93510   0.81957   0.00305   0.00000  Uiso   1.00
C537   C     0.87455   0.82958   0.08916   0.00000  Uiso   1.00
C538   C     0.74867   0.78964   0.43069   0.00000  Uiso   1.00
C539   C     0.73420   0.78913   0.48713   0.00000  Uiso   1.00
C540   C     0.76625   0.79968   0.01451   0.00000  Uiso   1.00
H541   H     0.86696   0.70772   0.31164   0.00000  Uiso   1.00
H542   H     0.79748   0.70381   0.18977   0.00000  Uiso   1.00
H543   H     0.72828   0.79641   0.17921   0.00000  Uiso   1.00
H544   H     0.68894   0.86970   0.32132   0.00000  Uiso   1.00
H545   H     0.93801   0.86774   0.32279   0.00000  Uiso   1.00
H546   H     0.94924   0.79393   0.40279   0.00000  Uiso   1.00
H547   H     0.97237   0.81878   0.47914   0.00000  Uiso   1.00
H548   H     0.80246   0.82735   0.08890   0.00000  Uiso   1.00
H549   H     0.75258   0.79934   0.05801   0.00000  Uiso   1.00
H550   H     0.69848   0.77949   0.01019   0.00000  Uiso   1.00
N551   N     0.71426   0.83334   0.25001   0.00000  Uiso   1.00
N552   N     0.95239   0.83331   0.25000   0.00000  Uiso   1.00
O553   O     0.79512   0.89442   0.25000   0.00000  Uiso   1.00
O554   O     0.87157   0.89441   0.25000   0.00000  Uiso   1.00
O555   O     0.77613   0.83333   0.32681   0.00000  Uiso   1.00
O556   O     0.85258   0.83332   0.32681   0.00000  Uiso   1.00
O557   O     0.79510   0.77226   0.24999   0.00000  Uiso   1.00
O558   O     0.87154   0.77225   0.24999   0.00000  Uiso   1.00
O559   O     0.81409   0.83335   0.17319   0.00000  Uiso   1.00
O560   O     0.89053   0.83334   0.17319   0.00000  Uiso   1.00
Zn561  Zn    0.78229   0.83334   0.25000   0.00000  Uiso   1.00
Zn562  Zn    0.88438   0.83333   0.25000   0.00000  Uiso   1.00
F563   F     0.95790   0.83542   0.08000   0.00000  Uiso   1.00
F564   F     0.79490   0.95681   0.18357   0.00000  Uiso   1.00
F565   F     0.97537   0.79206   0.17122   0.00000  Uiso   1.00
S566   S     0.71524   0.76076   0.39730   0.00000  Uiso   1.00
O567   O     0.69929   0.78822   0.36006   0.00000  Uiso   1.00
O568   O     0.74632   0.72690   0.36466   0.00000  Uiso   1.00
O569   O     0.66742   0.73873   0.44241   0.00000  Uiso   1.00
H570   H     0.98559   0.72171   0.42056   0.00000  Uiso   1.00
F571   F     0.89214   0.77345   0.35183   0.00000  Uiso   1.00
S572   S     0.87244   0.95678   0.33800   0.00000  Uiso   1.00
O573   O     0.92306   0.94359   0.31131   0.00000  Uiso   1.00
O574   O     0.87106   0.98775   0.38187   0.00000  Uiso   1.00
O575   O     0.83880   0.91526   0.36570   0.00000  Uiso   1.00
H576   H     0.85353   0.90400   0.39195   0.00000  Uiso   1.00
C577   C     0.16627   0.24667   0.75183   0.00000  Uiso   1.00
C578   C     0.14863   0.13817   0.98569   0.00000  Uiso   1.00
C579   C     0.16322   0.13341   0.92922   0.00000  Uiso   1.00
C580   C     0.18409   0.14630   0.51048   0.00000  Uiso   1.00
C581   C     0.23297   0.14423   0.97953   0.00000  Uiso   1.00
C582   C     0.24589   0.13192   0.92589   0.00000  Uiso   1.00
C583   C     0.21154   0.12491   0.90139   0.00000  Uiso   1.00
C584   C     0.17250   0.15700   0.56478   0.00000  Uiso   1.00
C585   C     0.25611   0.16178   0.55786   0.00000  Uiso   1.00
C586   C     0.12868   0.13613   0.90255   0.00000  Uiso   1.00
C587   C     0.18452   0.31340   0.78868   0.00000  Uiso   1.00
C588   C     0.14199   0.15456   0.84781   0.00000  Uiso   1.00
C589   C     0.18553   0.02295   0.78561   0.00000  Uiso   1.00
C590   C     0.16620   0.04286   0.75027   0.00000  Uiso   1.00
C591   C     0.14575   0.02103   0.71711   0.00000  Uiso   1.00
C592   C     0.14603   0.31153   0.71801   0.00000  Uiso   1.00
C593   C     0.16575   0.29100   0.75327   0.00000  Uiso   1.00
C594   C     0.32031   0.14628   0.71052   0.00000  Uiso   1.00
C595   C     0.03484   0.14623   0.71063   0.00000  Uiso   1.00
C596   C     0.01301   0.18692   0.78953   0.00000  Uiso   1.00
C597   C     0.29837   0.18626   0.79002   0.00000  Uiso   1.00
C598   C     0.16678   0.08678   0.74907   0.00000  Uiso   1.00
C599   C     0.19269   0.16691   0.64781   0.00000  Uiso   1.00
C600   C     0.26843   0.15290   0.50305   0.00000  Uiso   1.00
C601   C     0.20788   0.16291   0.58916   0.00000  Uiso   1.00
C602   C     0.08200   0.12297   0.93069   0.00000  Uiso   1.00
C603   C     0.06753   0.12247   0.98713   0.00000  Uiso   1.00
C604   C     0.09959   0.13301   0.51451   0.00000  Uiso   1.00
H605   H     0.20029   0.04106   0.81164   0.00000  Uiso   1.00
H606   H     0.13082   0.03714   0.68977   0.00000  Uiso   1.00
H607   H     0.06161   0.12974   0.67921   0.00000  Uiso   1.00
H608   H     0.02227   0.20303   0.82132   0.00000  Uiso   1.00
H609   H     0.27135   0.20107   0.82279   0.00000  Uiso   1.00
H610   H     0.28257   0.12726   0.90279   0.00000  Uiso   1.00
H611   H     0.30570   0.15212   0.97914   0.00000  Uiso   1.00
H612   H     0.13579   0.16068   0.58890   0.00000  Uiso   1.00
H613   H     0.08591   0.13268   0.55801   0.00000  Uiso   1.00
H614   H     0.03182   0.11283   0.51019   0.00000  Uiso   1.00
N615   N     0.04760   0.16668   0.75001   0.00000  Uiso   1.00
N616   N     0.28573   0.16665   0.75000   0.00000  Uiso   1.00
O617   O     0.12846   0.22775   0.75000   0.00000  Uiso   1.00
O618   O     0.20490   0.22774   0.75000   0.00000  Uiso   1.00
O619   O     0.10947   0.16666   0.82681   0.00000  Uiso   1.00
O620   O     0.18591   0.16665   0.82681   0.00000  Uiso   1.00
O621   O     0.12843   0.10559   0.74999   0.00000  Uiso   1.00
O622   O     0.20488   0.10558   0.74999   0.00000  Uiso   1.00
O623   O     0.14742   0.16668   0.67319   0.00000  Uiso   1.00
O624   O     0.22387   0.16667   0.67319   0.00000  Uiso   1.00
Zn625  Zn    0.11562   0.16667   0.75000   0.00000  Uiso   1.00
Zn626  Zn    0.21771   0.16666   0.75000   0.00000  Uiso   1.00
F627   F     0.29123   0.16875   0.58000   0.00000  Uiso   1.00
F628   F     0.12823   0.29014   0.68357   0.00000  Uiso   1.00
F629   F     0.30870   0.12539   0.67122   0.00000  Uiso   1.00
S630   S     0.04857   0.09409   0.89730   0.00000  Uiso   1.00
O631   O     0.03262   0.12155   0.86006   0.00000  Uiso   1.00
O632   O     0.07966   0.06023   0.86466   0.00000  Uiso   1.00
O633   O     0.00075   0.07207   0.94241   0.00000  Uiso   1.00
H634   H     0.31893   0.05505   0.92056   0.00000  Uiso   1.00
F635   F     0.22547   0.10678   0.85183   0.00000  Uiso   1.00
S636   S     0.20577   0.29011   0.83800   0.00000  Uiso   1.00
O637   O     0.25639   0.27692   0.81131   0.00000  Uiso   1.00
O638   O     0.20440   0.32108   0.88187   0.00000  Uiso   1.00
O639   O     0.17213   0.24859   0.86570   0.00000  Uiso   1.00
H640   H     0.18686   0.23733   0.89195   0.00000  Uiso   1.00
C641   C     0.49961   0.24667   0.75183   0.00000  Uiso   1.00
C642   C     0.48196   0.13817   0.98569   0.00000  Uiso   1.00
C643   C     0.49655   0.13341   0.92922   0.00000  Uiso   1.00
C644   C     0.51743   0.14630   0.51048   0.00000  Uiso   1.00
C645   C     0.56631   0.14423   0.97953   0.00000  Uiso   1.00
C646   C     0.57922   0.13192   0.92589   0.00000  Uiso   1.00
C647   C     0.54488   0.12491   0.90139   0.00000  Uiso   1.00
C648   C     0.50583   0.15700   0.56478   0.00000  Uiso   1.00
C649   C     0.58944   0.16178   0.55786   0.00000  Uiso   1.00
C650   C     0.46201   0.13613   0.90255   0.00000  Uiso   1.00
C651   C     0.51786   0.31340   0.78868   0.00000  Uiso   1.00
C652   C     0.47533   0.15456   0.84781   0.00000  Uiso   1.00
C653   C     0.51886   0.02295   0.78561   0.00000  Uiso   1.00
C654   C     0.49953   0.04286   0.75027   0.00000  Uiso   1.00
C655   C     0.47908   0.02103   0.71711   0.00000  Uiso   1.00
C656   C     0.47936   0.31153   0.71801   0.00000  Uiso   1.00
C657   C     0.49909   0.29100   0.75327   0.00000  Uiso   1.00
C658   C     0.65365   0.14628   0.71052   0.00000  Uiso   1.00
C659   C     0.36817   0.14623   0.71063   0.00000  Uiso   1.00
C660   C     0.34635   0.18692   0.78953   0.00000  Uiso   1.00
C661   C     0.63170   0.18626   0.79002   0.00000  Uiso   1.00
C662   C     0.50012   0.08678   0.74907   0.00000  Uiso   1.00
C663   C     0.52602   0.16691   0.64781   0.00000  Uiso   1.00
C664   C     0.60177   0.15290   0.50305   0.00000  Uiso   1.00
C665   C     0.54121   0.16291   0.58916   0.00000  Uiso   1.00
C666   C     0.41533   0.12297   0.93069   0.00000  Uiso   1.00
C667   C     0.40086   0.12247   0.98713   0.00000  Uiso   1.00
C668   C     0.43292   0.13301   0.51451   0.00000  Uiso   1.00
H669   H     0.53362   0.04106   0.81164   0.00000  Uiso   1.00
H670   H     0.46415   0.03714   0.68977   0.00000  Uiso   1.00
H671   H     0.39494   0.12974   0.67921   0.00000  Uiso   1.00
H672   H     0.35561   0.20303   0.82132   0.00000  Uiso   1.00
H673   H     0.60468   0.20107   0.82279   0.00000  Uiso   1.00
H674   H     0.61590   0.12726   0.90279   0.00000  Uiso   1.00
H675   H     0.63903   0.15212   0.97914   0.00000  Uiso   1.00
H676   H     0.46912   0.16068   0.58890   0.00000  Uiso   1.00
H677   H     0.41924   0.13268   0.55801   0.00000  Uiso   1.00
H678   H     0.36515   0.11283   0.51019   0.00000  Uiso   1.00
N679   N     0.38093   0.16668   0.75001   0.00000  Uiso   1.00
N680   N     0.61906   0.16665   0.75000   0.00000  Uiso   1.00
O681   O     0.46179   0.22775   0.75000   0.00000  Uiso   1.00
O682   O     0.53823   0.22774   0.75000   0.00000  Uiso   1.00
O683   O     0.44280   0.16666   0.82681   0.00000  Uiso   1.00
O684   O     0.51924   0.16665   0.82681   0.00000  Uiso   1.00
O685   O     0.46177   0.10559   0.74999   0.00000  Uiso   1.00
O686   O     0.53821   0.10558   0.74999   0.00000  Uiso   1.00
O687   O     0.48076   0.16668   0.67319   0.00000  Uiso   1.00
O688   O     0.55720   0.16667   0.67319   0.00000  Uiso   1.00
Zn689  Zn    0.44896   0.16667   0.75000   0.00000  Uiso   1.00
Zn690  Zn    0.55104   0.16666   0.75000   0.00000  Uiso   1.00
F691   F     0.62457   0.16875   0.58000   0.00000  Uiso   1.00
F692   F     0.46157   0.29014   0.68357   0.00000  Uiso   1.00
F693   F     0.64204   0.12539   0.67122   0.00000  Uiso   1.00
S694   S     0.38191   0.09409   0.89730   0.00000  Uiso   1.00
O695   O     0.36595   0.12155   0.86006   0.00000  Uiso   1.00
O696   O     0.41299   0.06023   0.86466   0.00000  Uiso   1.00
O697   O     0.33409   0.07207   0.94241   0.00000  Uiso   1.00
H698   H     0.65226   0.05505   0.92056   0.00000  Uiso   1.00
F699   F     0.55881   0.10678   0.85183   0.00000  Uiso   1.00
S700   S     0.53911   0.29011   0.83800   0.00000  Uiso   1.00
O701   O     0.58973   0.27692   0.81131   0.00000  Uiso   1.00
O702   O     0.53773   0.32108   0.88187   0.00000  Uiso   1.00
O703   O     0.50547   0.24859   0.86570   0.00000  Uiso   1.00
H704   H     0.52019   0.23733   0.89195   0.00000  Uiso   1.00
C705   C     0.83294   0.24667   0.75183   0.00000  Uiso   1.00
C706   C     0.81530   0.13817   0.98569   0.00000  Uiso   1.00
C707   C     0.82988   0.13341   0.92922   0.00000  Uiso   1.00
C708   C     0.85076   0.14630   0.51048   0.00000  Uiso   1.00
C709   C     0.89964   0.14423   0.97953   0.00000  Uiso   1.00
C710   C     0.91256   0.13192   0.92589   0.00000  Uiso   1.00
C711   C     0.87821   0.12491   0.90139   0.00000  Uiso   1.00
C712   C     0.83916   0.15700   0.56478   0.00000  Uiso   1.00
C713   C     0.92277   0.16178   0.55786   0.00000  Uiso   1.00
C714   C     0.79534   0.13613   0.90255   0.00000  Uiso   1.00
C715   C     0.85119   0.31340   0.78868   0.00000  Uiso   1.00
C716   C     0.80866   0.15456   0.84781   0.00000  Uiso   1.00
C717   C     0.85220   0.02295   0.78561   0.00000  Uiso   1.00
C718   C     0.83287   0.04286   0.75027   0.00000  Uiso   1.00
C719   C     0.81241   0.02103   0.71711   0.00000  Uiso   1.00
C720   C     0.81269   0.31153   0.71801   0.00000  Uiso   1.00
C721   C     0.83242   0.29100   0.75327   0.00000  Uiso   1.00
C722   C     0.98698   0.14628   0.71052   0.00000  Uiso   1.00
C723   C     0.70151   0.14623   0.71063   0.00000  Uiso   1.00
C724   C     0.67968   0.18692   0.78953   0.00000  Uiso   1.00
C725   C     0.96503   0.18626   0.79002   0.00000  Uiso   1.00
C726   C     0.83345   0.08678   0.74907   0.00000  Uiso   1.00
C727   C     0.85935   0.16691   0.64781   0.00000  Uiso   1.00
C728   C     0.93510   0.15290   0.50305   0.00000  Uiso   1.00
C729   C     0.87455   0.16291   0.58916   0.00000  Uiso   1.00
C730   C     0.74867   0.12297   0.93069   0.00000  Uiso   1.00
C731   C     0.73420   0.12247   0.98713   0.00000  Uiso   1.00
C732   C     0.76625   0.13301   0.51451   0.00000  Uiso   1.00
H733   H     0.86696   0.04106   0.81164   0.00000  Uiso   1.00
H734   H     0.79748   0.03714   0.68977   0.00000  Uiso   1.00
H735   H     0.72828   0.12974   0.67921   0.00000  Uiso   1.00
H736   H     0.68894   0.20303   0.82132   0.00000  Uiso   1.00
H737   H     0.93801   0.20107   0.82279   0.00000  Uiso   1.00
H738   H     0.94924   0.12726   0.90279   0.00000  Uiso   1.00
H739   H     0.97237   0.15212   0.97914   0.00000  Uiso   1.00
H740   H     0.80246   0.16068   0.58890   0.00000  Uiso   1.00
H741   H     0.75258   0.13268   0.55801   0.00000  Uiso   1.00
H742   H     0.69848   0.11283   0.51019   0.00000  Uiso   1.00
N743   N     0.71426   0.16668   0.75001   0.00000  Uiso   1.00
N744   N     0.95239   0.16665   0.75000   0.00000  Uiso   1.00
O745   O     0.79512   0.22775   0.75000   0.00000  Uiso   1.00
O746   O     0.87157   0.22774   0.75000   0.00000  Uiso   1.00
O747   O     0.77613   0.16666   0.82681   0.00000  Uiso   1.00
O748   O     0.85258   0.16665   0.82681   0.00000  Uiso   1.00
O749   O     0.79510   0.10559   0.74999   0.00000  Uiso   1.00
O750   O     0.87154   0.10558   0.74999   0.00000  Uiso   1.00
O751   O     0.81409   0.16668   0.67319   0.00000  Uiso   1.00
O752   O     0.89053   0.16667   0.67319   0.00000  Uiso   1.00
Zn753  Zn    0.78229   0.16667   0.75000   0.00000  Uiso   1.00
Zn754  Zn    0.88438   0.16666   0.75000   0.00000  Uiso   1.00
F755   F     0.95790   0.16875   0.58000   0.00000  Uiso   1.00
F756   F     0.79490   0.29014   0.68357   0.00000  Uiso   1.00
F757   F     0.97537   0.12539   0.67122   0.00000  Uiso   1.00
S758   S     0.71524   0.09409   0.89730   0.00000  Uiso   1.00
O759   O     0.69929   0.12155   0.86006   0.00000  Uiso   1.00
O760   O     0.74632   0.06023   0.86466   0.00000  Uiso   1.00
O761   O     0.66742   0.07207   0.94241   0.00000  Uiso   1.00
H762   H     0.98559   0.05505   0.92056   0.00000  Uiso   1.00
F763   F     0.89214   0.10678   0.85183   0.00000  Uiso   1.00
S764   S     0.87244   0.29011   0.83800   0.00000  Uiso   1.00
O765   O     0.92306   0.27692   0.81131   0.00000  Uiso   1.00
O766   O     0.87106   0.32108   0.88187   0.00000  Uiso   1.00
O767   O     0.83880   0.24859   0.86570   0.00000  Uiso   1.00
H768   H     0.85353   0.23733   0.89195   0.00000  Uiso   1.00
C769   C     0.16627   0.58001   0.75183   0.00000  Uiso   1.00
C770   C     0.14863   0.47150   0.98569   0.00000  Uiso   1.00
C771   C     0.16322   0.46674   0.92922   0.00000  Uiso   1.00
C772   C     0.18409   0.47964   0.51048   0.00000  Uiso   1.00
C773   C     0.23297   0.47757   0.97953   0.00000  Uiso   1.00
C774   C     0.24589   0.46526   0.92589   0.00000  Uiso   1.00
C775   C     0.21154   0.45825   0.90139   0.00000  Uiso   1.00
C776   C     0.17250   0.49034   0.56478   0.00000  Uiso   1.00
C777   C     0.25611   0.49512   0.55786   0.00000  Uiso   1.00
C778   C     0.12868   0.46946   0.90255   0.00000  Uiso   1.00
C779   C     0.18452   0.64674   0.78868   0.00000  Uiso   1.00
C780   C     0.14199   0.48790   0.84781   0.00000  Uiso   1.00
C781   C     0.18553   0.35628   0.78561   0.00000  Uiso   1.00
C782   C     0.16620   0.37619   0.75027   0.00000  Uiso   1.00
C783   C     0.14575   0.35436   0.71711   0.00000  Uiso   1.00
C784   C     0.14603   0.64487   0.71801   0.00000  Uiso   1.00
C785   C     0.16575   0.62433   0.75327   0.00000  Uiso   1.00
C786   C     0.32031   0.47962   0.71052   0.00000  Uiso   1.00
C787   C     0.03484   0.47956   0.71063   0.00000  Uiso   1.00
C788   C     0.01301   0.52025   0.78953   0.00000  Uiso   1.00
C789   C     0.29837   0.51960   0.79002   0.00000  Uiso   1.00
C790   C     0.16678   0.42012   0.74907   0.00000  Uiso   1.00
C791   C     0.19269   0.50025   0.64781   0.00000  Uiso   1.00
C792   C     0.26843   0.48624   0.50305   0.00000  Uiso   1.00
C793   C     0.20788   0.49625   0.58916   0.00000  Uiso   1.00
C794   C     0.08200   0.45631   0.93069   0.00000  Uiso   1.00
C795   C     0.06753   0.45580   0.98713   0.00000  Uiso   1.00
C796   C     0.09959   0.46635   0.51451   0.00000  Uiso   1.00
H797   H     0.20029   0.37439   0.81164   0.00000  Uiso   1.00
H798   H     0.13082   0.37047   0.68977   0.00000  Uiso   1.00
H799   H     0.06161   0.46308   0.67921   0.00000  Uiso   1.00
H800   H     0.02227   0.53636   0.82132   0.00000  Uiso   1.00
H801   H     0.27135   0.53440   0.82279   0.00000  Uiso   1.00
H802   H     0.28257   0.46059   0.90279   0.00000  Uiso   1.00
H803   H     0.30570   0.48545   0.97914   0.00000  Uiso   1.00
H804   H     0.13579   0.49401   0.58890   0.00000  Uiso   1.00
H805   H     0.08591   0.46601   0.55801   0.00000  Uiso   1.00
H806   H     0.03182   0.44616   0.51019   0.00000  Uiso   1.00
N807   N     0.04760   0.50001   0.75001   0.00000  Uiso   1.00
N808   N     0.28573   0.49998   0.75000   0.00000  Uiso   1.00
O809   O     0.12846   0.56108   0.75000   0.00000  Uiso   1.00
O810   O     0.20490   0.56107   0.75000   0.00000  Uiso   1.00
O811   O     0.10947   0.50000   0.82681   0.00000  Uiso   1.00
O812   O     0.18591   0.49999   0.82681   0.00000  Uiso   1.00
O813   O     0.12843   0.43893   0.74999   0.00000  Uiso   1.00
O814   O     0.20488   0.43892   0.74999   0.00000  Uiso   1.00
O815   O     0.14742   0.50001   0.67319   0.00000  Uiso   1.00
O816   O     0.22387   0.50000   0.67319   0.00000  Uiso   1.00
Zn817  Zn    0.11562   0.50001   0.75000   0.00000  Uiso   1.00
Zn818  Zn    0.21771   0.49999   0.75000   0.00000  Uiso   1.00
F819   F     0.29123   0.50209   0.58000   0.00000  Uiso   1.00
F820   F     0.12823   0.62347   0.68357   0.00000  Uiso   1.00
F821   F     0.30870   0.45873   0.67122   0.00000  Uiso   1.00
S822   S     0.04857   0.42742   0.89730   0.00000  Uiso   1.00
O823   O     0.03262   0.45489   0.86006   0.00000  Uiso   1.00
O824   O     0.07966   0.39357   0.86466   0.00000  Uiso   1.00
O825   O     0.00075   0.40540   0.94241   0.00000  Uiso   1.00
H826   H     0.31893   0.38838   0.92056   0.00000  Uiso   1.00
F827   F     0.22547   0.44012   0.85183   0.00000  Uiso   1.00
S828   S     0.20577   0.62344   0.83800   0.00000  Uiso   1.00
O829   O     0.25639   0.61025   0.81131   0.00000  Uiso   1.00
O830   O     0.20440   0.65441   0.88187   0.00000  Uiso   1.00
O831   O     0.17213   0.58192   0.86570   0.00000  Uiso   1.00
H832   H     0.18686   0.57067   0.89195   0.00000  Uiso   1.00
C833   C     0.49961   0.58001   0.75183   0.00000  Uiso   1.00
C834   C     0.48196   0.47150   0.98569   0.00000  Uiso   1.00
C835   C     0.49655   0.46674   0.92922   0.00000  Uiso   1.00
C836   C     0.51743   0.47964   0.51048   0.00000  Uiso   1.00
C837   C     0.56631   0.47757   0.97953   0.00000  Uiso   1.00
C838   C     0.57922   0.46526   0.92589   0.00000  Uiso   1.00
C839   C     0.54488   0.45825   0.90139   0.00000  Uiso   1.00
C840   C     0.50583   0.49034   0.56478   0.00000  Uiso   1.00
C841   C     0.58944   0.49512   0.55786   0.00000  Uiso   1.00
C842   C     0.46201   0.46946   0.90255   0.00000  Uiso   1.00
C843   C     0.51786   0.64674   0.78868   0.00000  Uiso   1.00
C844   C     0.47533   0.48790   0.84781   0.00000  Uiso   1.00
C845   C     0.51886   0.35628   0.78561   0.00000  Uiso   1.00
C846   C     0.49953   0.37619   0.75027   0.00000  Uiso   1.00
C847   C     0.47908   0.35436   0.71711   0.00000  Uiso   1.00
C848   C     0.47936   0.64487   0.71801   0.00000  Uiso   1.00
C849   C     0.49909   0.62433   0.75327   0.00000  Uiso   1.00
C850   C     0.65365   0.47962   0.71052   0.00000  Uiso   1.00
C851   C     0.36817   0.47956   0.71063   0.00000  Uiso   1.00
C852   C     0.34635   0.52025   0.78953   0.00000  Uiso   1.00
C853   C     0.63170   0.51960   0.79002   0.00000  Uiso   1.00
C854   C     0.50012   0.42012   0.74907   0.00000  Uiso   1.00
C855   C     0.52602   0.50025   0.64781   0.00000  Uiso   1.00
C856   C     0.60177   0.48624   0.50305   0.00000  Uiso   1.00
C857   C     0.54121   0.49625   0.58916   0.00000  Uiso   1.00
C858   C     0.41533   0.45631   0.93069   0.00000  Uiso   1.00
C859   C     0.40086   0.45580   0.98713   0.00000  Uiso   1.00
C860   C     0.43292   0.46635   0.51451   0.00000  Uiso   1.00
H861   H     0.53362   0.37439   0.81164   0.00000  Uiso   1.00
H862   H     0.46415   0.37047   0.68977   0.00000  Uiso   1.00
H863   H     0.39494   0.46308   0.67921   0.00000  Uiso   1.00
H864   H     0.35561   0.53636   0.82132   0.00000  Uiso   1.00
H865   H     0.60468   0.53440   0.82279   0.00000  Uiso   1.00
H866   H     0.61590   0.46059   0.90279   0.00000  Uiso   1.00
H867   H     0.63903   0.48545   0.97914   0.00000  Uiso   1.00
H868   H     0.46912   0.49401   0.58890   0.00000  Uiso   1.00
H869   H     0.41924   0.46601   0.55801   0.00000  Uiso   1.00
H870   H     0.36515   0.44616   0.51019   0.00000  Uiso   1.00
N871   N     0.38093   0.50001   0.75001   0.00000  Uiso   1.00
N872   N     0.61906   0.49998   0.75000   0.00000  Uiso   1.00
O873   O     0.46179   0.56108   0.75000   0.00000  Uiso   1.00
O874   O     0.53823   0.56107   0.75000   0.00000  Uiso   1.00
O875   O     0.44280   0.50000   0.82681   0.00000  Uiso   1.00
O876   O     0.51924   0.49999   0.82681   0.00000  Uiso   1.00
O877   O     0.46177   0.43893   0.74999   0.00000  Uiso   1.00
O878   O     0.53821   0.43892   0.74999   0.00000  Uiso   1.00
O879   O     0.48076   0.50001   0.67319   0.00000  Uiso   1.00
O880   O     0.55720   0.50000   0.67319   0.00000  Uiso   1.00
Zn881  Zn    0.44896   0.50001   0.75000   0.00000  Uiso   1.00
Zn882  Zn    0.55104   0.49999   0.75000   0.00000  Uiso   1.00
F883   F     0.62457   0.50209   0.58000   0.00000  Uiso   1.00
F884   F     0.46157   0.62347   0.68357   0.00000  Uiso   1.00
F885   F     0.64204   0.45873   0.67122   0.00000  Uiso   1.00
S886   S     0.38191   0.42742   0.89730   0.00000  Uiso   1.00
O887   O     0.36595   0.45489   0.86006   0.00000  Uiso   1.00
O888   O     0.41299   0.39357   0.86466   0.00000  Uiso   1.00
O889   O     0.33409   0.40540   0.94241   0.00000  Uiso   1.00
H890   H     0.65226   0.38838   0.92056   0.00000  Uiso   1.00
F891   F     0.55881   0.44012   0.85183   0.00000  Uiso   1.00
S892   S     0.53911   0.62344   0.83800   0.00000  Uiso   1.00
O893   O     0.58973   0.61025   0.81131   0.00000  Uiso   1.00
O894   O     0.53773   0.65441   0.88187   0.00000  Uiso   1.00
O895   O     0.50547   0.58192   0.86570   0.00000  Uiso   1.00
H896   H     0.52019   0.57067   0.89195   0.00000  Uiso   1.00
C897   C     0.83294   0.58001   0.75183   0.00000  Uiso   1.00
C898   C     0.81530   0.47150   0.98569   0.00000  Uiso   1.00
C899   C     0.82988   0.46674   0.92922   0.00000  Uiso   1.00
C900   C     0.85076   0.47964   0.51048   0.00000  Uiso   1.00
C901   C     0.89964   0.47757   0.97953   0.00000  Uiso   1.00
C902   C     0.91256   0.46526   0.92589   0.00000  Uiso   1.00
C903   C     0.87821   0.45825   0.90139   0.00000  Uiso   1.00
C904   C     0.83916   0.49034   0.56478   0.00000  Uiso   1.00
C905   C     0.92277   0.49512   0.55786   0.00000  Uiso   1.00
C906   C     0.79534   0.46946   0.90255   0.00000  Uiso   1.00
C907   C     0.85119   0.64674   0.78868   0.00000  Uiso   1.00
C908   C     0.80866   0.48790   0.84781   0.00000  Uiso   1.00
C909   C     0.85220   0.35628   0.78561   0.00000  Uiso   1.00
C910   C     0.83287   0.37619   0.75027   0.00000  Uiso   1.00
C911   C     0.81241   0.35436   0.71711   0.00000  Uiso   1.00
C912   C     0.81269   0.64487   0.71801   0.00000  Uiso   1.00
C913   C     0.83242   0.62433   0.75327   0.00000  Uiso   1.00
C914   C     0.98698   0.47962   0.71052   0.00000  Uiso   1.00
C915   C     0.70151   0.47956   0.71063   0.00000  Uiso   1.00
C916   C     0.67968   0.52025   0.78953   0.00000  Uiso   1.00
C917   C     0.96503   0.51960   0.79002   0.00000  Uiso   1.00
C918   C     0.83345   0.42012   0.74907   0.00000  Uiso   1.00
C919   C     0.85935   0.50025   0.64781   0.00000  Uiso   1.00
C920   C     0.93510   0.48624   0.50305   0.00000  Uiso   1.00
C921   C     0.87455   0.49625   0.58916   0.00000  Uiso   1.00
C922   C     0.74867   0.45631   0.93069   0.00000  Uiso   1.00
C923   C     0.73420   0.45580   0.98713   0.00000  Uiso   1.00
C924   C     0.76625   0.46635   0.51451   0.00000  Uiso   1.00
H925   H     0.86696   0.37439   0.81164   0.00000  Uiso   1.00
H926   H     0.79748   0.37047   0.68977   0.00000  Uiso   1.00
H927   H     0.72828   0.46308   0.67921   0.00000  Uiso   1.00
H928   H     0.68894   0.53636   0.82132   0.00000  Uiso   1.00
H929   H     0.93801   0.53440   0.82279   0.00000  Uiso   1.00
H930   H     0.94924   0.46059   0.90279   0.00000  Uiso   1.00
H931   H     0.97237   0.48545   0.97914   0.00000  Uiso   1.00
H932   H     0.80246   0.49401   0.58890   0.00000  Uiso   1.00
H933   H     0.75258   0.46601   0.55801   0.00000  Uiso   1.00
H934   H     0.69848   0.44616   0.51019   0.00000  Uiso   1.00
N935   N     0.71426   0.50001   0.75001   0.00000  Uiso   1.00
N936   N     0.95239   0.49998   0.75000   0.00000  Uiso   1.00
O937   O     0.79512   0.56108   0.75000   0.00000  Uiso   1.00
O938   O     0.87157   0.56107   0.75000   0.00000  Uiso   1.00
O939   O     0.77613   0.50000   0.82681   0.00000  Uiso   1.00
O940   O     0.85258   0.49999   0.82681   0.00000  Uiso   1.00
O941   O     0.79510   0.43893   0.74999   0.00000  Uiso   1.00
O942   O     0.87154   0.43892   0.74999   0.00000  Uiso   1.00
O943   O     0.81409   0.50001   0.67319   0.00000  Uiso   1.00
O944   O     0.89053   0.50000   0.67319   0.00000  Uiso   1.00
Zn945  Zn    0.78229   0.50001   0.75000   0.00000  Uiso   1.00
Zn946  Zn    0.88438   0.49999   0.75000   0.00000  Uiso   1.00
F947   F     0.95790   0.50209   0.58000   0.00000  Uiso   1.00
F948   F     0.79490   0.62347   0.68357   0.00000  Uiso   1.00
F949   F     0.97537   0.45873   0.67122   0.00000  Uiso   1.00
S950   S     0.71524   0.42742   0.89730   0.00000  Uiso   1.00
O951   O     0.69929   0.45489   0.86006   0.00000  Uiso   1.00
O952   O     0.74632   0.39357   0.86466   0.00000  Uiso   1.00
O953   O     0.66742   0.40540   0.94241   0.00000  Uiso   1.00
H954   H     0.98559   0.38838   0.92056   0.00000  Uiso   1.00
F955   F     0.89214   0.44012   0.85183   0.00000  Uiso   1.00
S956   S     0.87244   0.62344   0.83800   0.00000  Uiso   1.00
O957   O     0.92306   0.61025   0.81131   0.00000  Uiso   1.00
O958   O     0.87106   0.65441   0.88187   0.00000  Uiso   1.00
O959   O     0.83880   0.58192   0.86570   0.00000  Uiso   1.00
H960   H     0.85353   0.57067   0.89195   0.00000  Uiso   1.00
C961   C     0.16627   0.91334   0.75183   0.00000  Uiso   1.00
C962   C     0.14863   0.80484   0.98569   0.00000  Uiso   1.00
C963   C     0.16322   0.80007   0.92922   0.00000  Uiso   1.00
C964   C     0.18409   0.81297   0.51048   0.00000  Uiso   1.00
C965   C     0.23297   0.81090   0.97953   0.00000  Uiso   1.00
C966   C     0.24589   0.79859   0.92589   0.00000  Uiso   1.00
C967   C     0.21154   0.79158   0.90139   0.00000  Uiso   1.00
C968   C     0.17250   0.82367   0.56478   0.00000  Uiso   1.00
C969   C     0.25611   0.82845   0.55786   0.00000  Uiso   1.00
C970   C     0.12868   0.80280   0.90255   0.00000  Uiso   1.00
C971   C     0.18452   0.98007   0.78868   0.00000  Uiso   1.00
C972   C     0.14199   0.82123   0.84781   0.00000  Uiso   1.00
C973   C     0.18553   0.68962   0.78561   0.00000  Uiso   1.00
C974   C     0.16620   0.70953   0.75027   0.00000  Uiso   1.00
C975   C     0.14575   0.68770   0.71711   0.00000  Uiso   1.00
C976   C     0.14603   0.97820   0.71801   0.00000  Uiso   1.00
C977   C     0.16575   0.95767   0.75327   0.00000  Uiso   1.00
C978   C     0.32031   0.81295   0.71052   0.00000  Uiso   1.00
C979   C     0.03484   0.81289   0.71063   0.00000  Uiso   1.00
C980   C     0.01301   0.85358   0.78953   0.00000  Uiso   1.00
C981   C     0.29837   0.85293   0.79002   0.00000  Uiso   1.00
C982   C     0.16678   0.75345   0.74907   0.00000  Uiso   1.00
C983   C     0.19269   0.83358   0.64781   0.00000  Uiso   1.00
C984   C     0.26843   0.81957   0.50305   0.00000  Uiso   1.00
C985   C     0.20788   0.82958   0.58916   0.00000  Uiso   1.00
C986   C     0.08200   0.78964   0.93069   0.00000  Uiso   1.00
C987   C     0.06753   0.78913   0.98713   0.00000  Uiso   1.00
C988   C     0.09959   0.79968   0.51451   0.00000  Uiso   1.00
H989   H     0.20029   0.70772   0.81164   0.00000  Uiso   1.00
H990   H     0.13082   0.70381   0.68977   0.00000  Uiso   1.00
H991   H     0.06161   0.79641   0.67921   0.00000  Uiso   1.00
H992   H     0.02227   0.86970   0.82132   0.00000  Uiso   1.00
H993   H     0.27135   0.86774   0.82279   0.00000  Uiso   1.00
H994   H     0.28257   0.79393   0.90279   0.00000  Uiso   1.00
H995   H     0.30570   0.81878   0.97914   0.00000  Uiso   1.00
H996   H     0.13579   0.82735   0.58890   0.00000  Uiso   1.00
H997   H     0.08591   0.79934   0.55801   0.00000  Uiso   1.00
H998   H     0.03182   0.77949   0.51019   0.00000  Uiso   1.00
N999   N     0.04760   0.83334   0.75001   0.00000  Uiso   1.00
N1000  N     0.28573   0.83331   0.75000   0.00000  Uiso   1.00
O1001  O     0.12846   0.89442   0.75000   0.00000  Uiso   1.00
O1002  O     0.20490   0.89441   0.75000   0.00000  Uiso   1.00
O1003  O     0.10947   0.83333   0.82681   0.00000  Uiso   1.00
O1004  O     0.18591   0.83332   0.82681   0.00000  Uiso   1.00
O1005  O     0.12843   0.77226   0.74999   0.00000  Uiso   1.00
O1006  O     0.20488   0.77225   0.74999   0.00000  Uiso   1.00
O1007  O     0.14742   0.83335   0.67319   0.00000  Uiso   1.00
O1008  O     0.22387   0.83334   0.67319   0.00000  Uiso   1.00
Zn1009 Zn    0.11562   0.83334   0.75000   0.00000  Uiso   1.00
Zn1010 Zn    0.21771   0.83333   0.75000   0.00000  Uiso   1.00
F1011  F     0.29123   0.83542   0.58000   0.00000  Uiso   1.00
F1012  F     0.12823   0.95681   0.68357   0.00000  Uiso   1.00
F1013  F     0.30870   0.79206   0.67122   0.00000  Uiso   1.00
S1014  S     0.04857   0.76076   0.89730   0.00000  Uiso   1.00
O1015  O     0.03262   0.78822   0.86006   0.00000  Uiso   1.00
O1016  O     0.07966   0.72690   0.86466   0.00000  Uiso   1.00
O1017  O     0.00075   0.73873   0.94241   0.00000  Uiso   1.00
H1018  H     0.31893   0.72171   0.92056   0.00000  Uiso   1.00
F1019  F     0.22547   0.77345   0.85183   0.00000  Uiso   1.00
S1020  S     0.20577   0.95678   0.83800   0.00000  Uiso   1.00
O1021  O     0.25639   0.94359   0.81131   0.00000  Uiso   1.00
O1022  O     0.20440   0.98775   0.88187   0.00000  Uiso   1.00
O1023  O     0.17213   0.91526   0.86570   0.00000  Uiso   1.00
H1024  H     0.18686   0.90400   0.89195   0.00000  Uiso   1.00
C1025  C     0.49961   0.91334   0.75183   0.00000  Uiso   1.00
C1026  C     0.48196   0.80484   0.98569   0.00000  Uiso   1.00
C1027  C     0.49655   0.80007   0.92922   0.00000  Uiso   1.00
C1028  C     0.51743   0.81297   0.51048   0.00000  Uiso   1.00
C1029  C     0.56631   0.81090   0.97953   0.00000  Uiso   1.00
C1030  C     0.57922   0.79859   0.92589   0.00000  Uiso   1.00
C1031  C     0.54488   0.79158   0.90139   0.00000  Uiso   1.00
C1032  C     0.50583   0.82367   0.56478   0.00000  Uiso   1.00
C1033  C     0.58944   0.82845   0.55786   0.00000  Uiso   1.00
C1034  C     0.46201   0.80280   0.90255   0.00000  Uiso   1.00
C1035  C     0.51786   0.98007   0.78868   0.00000  Uiso   1.00
C1036  C     0.47533   0.82123   0.84781   0.00000  Uiso   1.00
C1037  C     0.51886   0.68962   0.78561   0.00000  Uiso   1.00
C1038  C     0.49953   0.70953   0.75027   0.00000  Uiso   1.00
C1039  C     0.47908   0.68770   0.71711   0.00000  Uiso   1.00
C1040  C     0.47936   0.97820   0.71801   0.00000  Uiso   1.00
C1041  C     0.49909   0.95767   0.75327   0.00000  Uiso   1.00
C1042  C     0.65365   0.81295   0.71052   0.00000  Uiso   1.00
C1043  C     0.36817   0.81289   0.71063   0.00000  Uiso   1.00
C1044  C     0.34635   0.85358   0.78953   0.00000  Uiso   1.00
C1045  C     0.63170   0.85293   0.79002   0.00000  Uiso   1.00
C1046  C     0.50012   0.75345   0.74907   0.00000  Uiso   1.00
C1047  C     0.52602   0.83358   0.64781   0.00000  Uiso   1.00
C1048  C     0.60177   0.81957   0.50305   0.00000  Uiso   1.00
C1049  C     0.54121   0.82958   0.58916   0.00000  Uiso   1.00
C1050  C     0.41533   0.78964   0.93069   0.00000  Uiso   1.00
C1051  C     0.40086   0.78913   0.98713   0.00000  Uiso   1.00
C1052  C     0.43292   0.79968   0.51451   0.00000  Uiso   1.00
H1053  H     0.53362   0.70772   0.81164   0.00000  Uiso   1.00
H1054  H     0.46415   0.70381   0.68977   0.00000  Uiso   1.00
H1055  H     0.39494   0.79641   0.67921   0.00000  Uiso   1.00
H1056  H     0.35561   0.86970   0.82132   0.00000  Uiso   1.00
H1057  H     0.60468   0.86774   0.82279   0.00000  Uiso   1.00
H1058  H     0.61590   0.79393   0.90279   0.00000  Uiso   1.00
H1059  H     0.63903   0.81878   0.97914   0.00000  Uiso   1.00
H1060  H     0.46912   0.82735   0.58890   0.00000  Uiso   1.00
H1061  H     0.41924   0.79934   0.55801   0.00000  Uiso   1.00
H1062  H     0.36515   0.77949   0.51019   0.00000  Uiso   1.00
N1063  N     0.38093   0.83334   0.75001   0.00000  Uiso   1.00
N1064  N     0.61906   0.83331   0.75000   0.00000  Uiso   1.00
O1065  O     0.46179   0.89442   0.75000   0.00000  Uiso   1.00
O1066  O     0.53823   0.89441   0.75000   0.00000  Uiso   1.00
O1067  O     0.44280   0.83333   0.82681   0.00000  Uiso   1.00
O1068  O     0.51924   0.83332   0.82681   0.00000  Uiso   1.00
O1069  O     0.46177   0.77226   0.74999   0.00000  Uiso   1.00
O1070  O     0.53821   0.77225   0.74999   0.00000  Uiso   1.00
O1071  O     0.48076   0.83335   0.67319   0.00000  Uiso   1.00
O1072  O     0.55720   0.83334   0.67319   0.00000  Uiso   1.00
Zn1073 Zn    0.44896   0.83334   0.75000   0.00000  Uiso   1.00
Zn1074 Zn    0.55104   0.83333   0.75000   0.00000  Uiso   1.00
F1075  F     0.62457   0.83542   0.58000   0.00000  Uiso   1.00
F1076  F     0.46157   0.95681   0.68357   0.00000  Uiso   1.00
F1077  F     0.64204   0.79206   0.67122   0.00000  Uiso   1.00
S1078  S     0.38191   0.76076   0.89730   0.00000  Uiso   1.00
O1079  O     0.36595   0.78822   0.86006   0.00000  Uiso   1.00
O1080  O     0.41299   0.72690   0.86466   0.00000  Uiso   1.00
O1081  O     0.33409   0.73873   0.94241   0.00000  Uiso   1.00
H1082  H     0.65226   0.72171   0.92056   0.00000  Uiso   1.00
F1083  F     0.55881   0.77345   0.85183   0.00000  Uiso   1.00
S1084  S     0.53911   0.95678   0.83800   0.00000  Uiso   1.00
O1085  O     0.58973   0.94359   0.81131   0.00000  Uiso   1.00
O1086  O     0.53773   0.98775   0.88187   0.00000  Uiso   1.00
O1087  O     0.50547   0.91526   0.86570   0.00000  Uiso   1.00
H1088  H     0.52019   0.90400   0.89195   0.00000  Uiso   1.00
C1089  C     0.83294   0.91334   0.75183   0.00000  Uiso   1.00
C1090  C     0.81530   0.80484   0.98569   0.00000  Uiso   1.00
C1091  C     0.82988   0.80007   0.92922   0.00000  Uiso   1.00
C1092  C     0.85076   0.81297   0.51048   0.00000  Uiso   1.00
C1093  C     0.89964   0.81090   0.97953   0.00000  Uiso   1.00
C1094  C     0.91256   0.79859   0.92589   0.00000  Uiso   1.00
C1095  C     0.87821   0.79158   0.90139   0.00000  Uiso   1.00
C1096  C     0.83916   0.82367   0.56478   0.00000  Uiso   1.00
C1097  C     0.92277   0.82845   0.55786   0.00000  Uiso   1.00
C1098  C     0.79534   0.80280   0.90255   0.00000  Uiso   1.00
C1099  C     0.85119   0.98007   0.78868   0.00000  Uiso   1.00
C1100  C     0.80866   0.82123   0.84781   0.00000  Uiso   1.00
C1101  C     0.85220   0.68962   0.78561   0.00000  Uiso   1.00
C1102  C     0.83287   0.70953   0.75027   0.00000  Uiso   1.00
C1103  C     0.81241   0.68770   0.71711   0.00000  Uiso   1.00
C1104  C     0.81269   0.97820   0.71801   0.00000  Uiso   1.00
C1105  C     0.83242   0.95767   0.75327   0.00000  Uiso   1.00
C1106  C     0.98698   0.81295   0.71052   0.00000  Uiso   1.00
C1107  C     0.70151   0.81289   0.71063   0.00000  Uiso   1.00
C1108  C     0.67968   0.85358   0.78953   0.00000  Uiso   1.00
C1109  C     0.96503   0.85293   0.79002   0.00000  Uiso   1.00
C1110  C     0.83345   0.75345   0.74907   0.00000  Uiso   1.00
C1111  C     0.85935   0.83358   0.64781   0.00000  Uiso   1.00
C1112  C     0.93510   0.81957   0.50305   0.00000  Uiso   1.00
C1113  C     0.87455   0.82958   0.58916   0.00000  Uiso   1.00
C1114  C     0.74867   0.78964   0.93069   0.00000  Uiso   1.00
C1115  C     0.73420   0.78913   0.98713   0.00000  Uiso   1.00
C1116  C     0.76625   0.79968   0.51451   0.00000  Uiso   1.00
H1117  H     0.86696   0.70772   0.81164   0.00000  Uiso   1.00
H1118  H     0.79748   0.70381   0.68977   0.00000  Uiso   1.00
H1119  H     0.72828   0.79641   0.67921   0.00000  Uiso   1.00
H1120  H     0.68894   0.86970   0.82132   0.00000  Uiso   1.00
H1121  H     0.93801   0.86774   0.82279   0.00000  Uiso   1.00
H1122  H     0.94924   0.79393   0.90279   0.00000  Uiso   1.00
H1123  H     0.97237   0.81878   0.97914   0.00000  Uiso   1.00
H1124  H     0.80246   0.82735   0.58890   0.00000  Uiso   1.00
H1125  H     0.75258   0.79934   0.55801   0.00000  Uiso   1.00
H1126  H     0.69848   0.77949   0.51019   0.00000  Uiso   1.00
N1127  N     0.71426   0.83334   0.75001   0.00000  Uiso   1.00
N1128  N     0.95239   0.83331   0.75000   0.00000  Uiso   1.00
O1129  O     0.79512   0.89442   0.75000   0.00000  Uiso   1.00
O1130  O     0.87157   0.89441   0.75000   0.00000  Uiso   1.00
O1131  O     0.77613   0.83333   0.82681   0.00000  Uiso   1.00
O1132  O     0.85258   0.83332   0.82681   0.00000  Uiso   1.00
O1133  O     0.79510   0.77226   0.74999   0.00000  Uiso   1.00
O1134  O     0.87154   0.77225   0.74999   0.00000  Uiso   1.00
O1135  O     0.81409   0.83335   0.67319   0.00000  Uiso   1.00
O1136  O     0.89053   0.83334   0.67319   0.00000  Uiso   1.00
Zn1137 Zn    0.78229   0.83334   0.75000   0.00000  Uiso   1.00
Zn1138 Zn    0.88438   0.83333   0.75000   0.00000  Uiso   1.00
F1139  F     0.95790   0.83542   0.58000   0.00000  Uiso   1.00
F1140  F     0.79490   0.95681   0.68357   0.00000  Uiso   1.00
F1141  F     0.97537   0.79206   0.67122   0.00000  Uiso   1.00
S1142  S     0.71524   0.76076   0.89730   0.00000  Uiso   1.00
O1143  O     0.69929   0.78822   0.86006   0.00000  Uiso   1.00
O1144  O     0.74632   0.72690   0.86466   0.00000  Uiso   1.00
O1145  O     0.66742   0.73873   0.94241   0.00000  Uiso   1.00
H1146  H     0.98559   0.72171   0.92056   0.00000  Uiso   1.00
F1147  F     0.89214   0.77345   0.85183   0.00000  Uiso   1.00
S1148  S     0.87244   0.95678   0.83800   0.00000  Uiso   1.00
O1149  O     0.92306   0.94359   0.81131   0.00000  Uiso   1.00
O1150  O     0.87106   0.98775   0.88187   0.00000  Uiso   1.00
O1151  O     0.83880   0.91526   0.86570   0.00000  Uiso   1.00
H1152  H     0.85353   0.90400   0.89195   0.00000  Uiso   1.00
loop_
_geom_bond_atom_site_label_1
_geom_bond_atom_site_label_2
_geom_bond_distance
_geom_bond_site_symmetry_2
_ccdc_geom_bond_type
C1     O42     1.285   .     A
C1     C17     1.421   .     S
C1     O41     1.284   .     A
C2     C3      1.407   .     A
C2     C580    1.419   .     S
C2     C604    1.417   .     S
C3     C10     1.410   .     A
C3     C7      1.412   .     A
C4     C8      1.391   .     A
C4     C578    1.419   1_554 S
C4     C581    1.419   1_554 S
C5     C6      1.387   .     A
C5     C580    1.419   .     S
C5     C600    1.400   .     S
C6     C7      1.379   .     A
C6     H34     1.073   .     S
C7     F59     1.357   .     S
C8     C25     1.399   .     A
C8     H36     1.077   .     S
C9     C24     1.389   .     A
C9     F51     1.357   .     S
C9     C25     1.403   .     A
C10    C26     1.407   .     A
C10    C12     1.481   .     S
C11    C17     1.412   .     A
C11    S60     1.770   .     S
C11    C205    1.376   .     S
C12    O43     1.310   .     A
C12    O44     1.299   .     A
C13    C14     1.388   .     A
C13    H29     1.082   .     S
C13    C395    1.376   1_545 S
C14    C22     1.408   .     S
C14    C15     1.389   .     A
C15    H30     1.084   .     S
C15    C400    1.373   1_545 S
C16    F52     1.359   .     S
C16    C17     1.403   .     A
C16    C207    1.373   .     S
C18    N40     1.368   .     A
C18    F53     1.355   .     S
C18    C83     1.418   .     S
C19    H31     1.082   .     S
C19    N39     1.367   .     A
C19    C146    1.418   1_455 S
C20    H32     1.082   .     S
C20    N39     1.367   .     A
C20    C149    1.416   1_455 S
C21    N40     1.366   .     A
C21    H33     1.080   .     S
C21    C84     1.416   .     S
C22    O46     1.283   .     A
C22    O45     1.281   .     A
C23    C25     1.459   .     S
C23    O47     1.293   .     A
C23    O48     1.295   .     A
C24    C581    1.400   1_554 S
C24    H611    1.083   1_554 S
C26    C27     1.399   .     A
C26    S54     1.768   .     S
C27    C604    1.396   .     S
C27    H614    1.082   .     S
C28    H37     1.078   .     S
C28    C578    1.417   1_554 S
C28    C603    1.396   1_554 S
H35    C600    1.083   .     S
H38    C603    1.082   1_554 S
N39    Zn49    2.014   .     S
N40    Zn50    2.013   .     S
O41    Zn49    1.991   .     S
O42    Zn50    1.995   .     S
O43    Zn49    1.956   .     S
O44    Zn50    1.927   .     S
O45    Zn49    1.995   .     S
O46    Zn50    1.991   .     S
O47    Zn49    1.927   .     S
O48    Zn50    1.956   .     S
S54    O56     1.503   .     D
S54    O55     1.498   .     D
S54    O57     1.682   .     S
O57    H186    0.991   1_455 S
H58    O121    0.991   .     S
S60    O62     1.504   .     D
S60    O63     1.680   .     S
S60    O61     1.501   .     D
O63    H64     0.991   .     S
C65    O106    1.285   .     A
C65    C81     1.421   .     S
C65    O105    1.284   .     A
C66    C67     1.407   .     A
C66    C644    1.419   .     S
C66    C668    1.417   .     S
C67    C74     1.410   .     A
C67    C71     1.412   .     A
C68    C72     1.391   .     A
C68    C642    1.419   1_554 S
C68    C645    1.419   1_554 S
C69    C70     1.387   .     A
C69    C644    1.419   .     S
C69    C664    1.400   .     S
C70    C71     1.379   .     A
C70    H98     1.073   .     S
C71    F123    1.357   .     S
C72    C89     1.399   .     A
C72    H100    1.077   .     S
C73    C88     1.389   .     A
C73    F115    1.357   .     S
C73    C89     1.403   .     A
C74    C90     1.407   .     A
C74    C76     1.481   .     S
C75    C81     1.412   .     A
C75    S124    1.770   .     S
C75    C269    1.376   .     S
C76    O107    1.310   .     A
C76    O108    1.299   .     A
C77    C78     1.388   .     A
C77    H93     1.082   .     S
C77    C459    1.376   1_545 S
C78    C86     1.408   .     S
C78    C79     1.389   .     A
C79    H94     1.084   .     S
C79    C464    1.373   1_545 S
C80    F116    1.359   .     S
C80    C81     1.403   .     A
C80    C271    1.373   .     S
C82    N104    1.368   .     A
C82    F117    1.355   .     S
C82    C147    1.418   .     S
C83    H95     1.082   .     S
C83    N103    1.367   .     A
C84    H96     1.082   .     S
C84    N103    1.367   .     A
C85    N104    1.366   .     A
C85    H97     1.080   .     S
C85    C148    1.416   .     S
C86    O110    1.283   .     A
C86    O109    1.281   .     A
C87    C89     1.459   .     S
C87    O111    1.293   .     A
C87    O112    1.295   .     A
C88    C645    1.400   1_554 S
C88    H675    1.083   1_554 S
C90    C91     1.399   .     A
C90    S118    1.768   .     S
C91    C668    1.396   .     S
C91    H678    1.082   .     S
C92    H101    1.078   .     S
C92    C642    1.417   1_554 S
C92    C667    1.396   1_554 S
H99    C664    1.083   .     S
H102   C667    1.082   1_554 S
N103   Zn113   2.014   .     S
N104   Zn114   2.013   .     S
O105   Zn113   1.991   .     S
O106   Zn114   1.995   .     S
O107   Zn113   1.956   .     S
O108   Zn114   1.927   .     S
O109   Zn113   1.995   .     S
O110   Zn114   1.991   .     S
O111   Zn113   1.927   .     S
O112   Zn114   1.956   .     S
S118   O120    1.503   .     D
S118   O119    1.498   .     D
S118   O121    1.682   .     S
H122   O185    0.991   .     S
S124   O126    1.504   .     D
S124   O127    1.680   .     S
S124   O125    1.501   .     D
O127   H128    0.991   .     S
C129   O170    1.285   .     A
C129   C145    1.421   .     S
C129   O169    1.284   .     A
C130   C131    1.407   .     A
C130   C708    1.419   .     S
C130   C732    1.417   .     S
C131   C138    1.410   .     A
C131   C135    1.412   .     A
C132   C136    1.391   .     A
C132   C706    1.419   1_554 S
C132   C709    1.419   1_554 S
C133   C134    1.387   .     A
C133   C708    1.419   .     S
C133   C728    1.400   .     S
C134   C135    1.379   .     A
C134   H162    1.073   .     S
C135   F187    1.357   .     S
C136   C153    1.399   .     A
C136   H164    1.077   .     S
C137   C152    1.389   .     A
C137   F179    1.357   .     S
C137   C153    1.403   .     A
C138   C154    1.407   .     A
C138   C140    1.481   .     S
C139   C145    1.412   .     A
C139   S188    1.770   .     S
C139   C333    1.376   .     S
C140   O171    1.310   .     A
C140   O172    1.299   .     A
C141   C142    1.388   .     A
C141   H157    1.082   .     S
C141   C523    1.376   1_545 S
C142   C150    1.408   .     S
C142   C143    1.389   .     A
C143   H158    1.084   .     S
C143   C528    1.373   1_545 S
C144   F180    1.359   .     S
C144   C145    1.403   .     A
C144   C335    1.373   .     S
C146   N168    1.368   .     A
C146   F181    1.355   .     S
C146   C19     1.418   1_655 S
C147   H159    1.082   .     S
C147   N167    1.367   .     A
C148   H160    1.082   .     S
C148   N167    1.367   .     A
C149   N168    1.366   .     A
C149   H161    1.080   .     S
C149   C20     1.416   1_655 S
C150   O174    1.283   .     A
C150   O173    1.281   .     A
C151   C153    1.459   .     S
C151   O175    1.293   .     A
C151   O176    1.295   .     A
C152   C709    1.400   1_554 S
C152   H739    1.083   1_554 S
C154   C155    1.399   .     A
C154   S182    1.768   .     S
C155   C732    1.396   .     S
C155   H742    1.082   .     S
C156   H165    1.078   .     S
C156   C706    1.417   1_554 S
C156   C731    1.396   1_554 S
H163   C728    1.083   .     S
H166   C731    1.082   1_554 S
N167   Zn177   2.014   .     S
N168   Zn178   2.013   .     S
O169   Zn177   1.991   .     S
O170   Zn178   1.995   .     S
O171   Zn177   1.956   .     S
O172   Zn178   1.927   .     S
O173   Zn177   1.995   .     S
O174   Zn178   1.991   .     S
O175   Zn177   1.927   .     S
O176   Zn178   1.956   .     S
S182   O184    1.503   .     D
S182   O183    1.498   .     D
S182   O185    1.682   .     S
H186   O57     0.991   1_655 S
S188   O190    1.504   .     D
S188   O191    1.680   .     S
S188   O189    1.501   .     D
O191   H192    0.991   .     S
C193   O234    1.285   .     A
C193   C209    1.421   .     S
C193   O233    1.284   .     A
C194   C195    1.407   .     A
C194   C772    1.419   .     S
C194   C796    1.417   .     S
C195   C202    1.410   .     A
C195   C199    1.412   .     A
C196   C200    1.391   .     A
C196   C770    1.419   1_554 S
C196   C773    1.419   1_554 S
C197   C198    1.387   .     A
C197   C772    1.419   .     S
C197   C792    1.400   .     S
C198   C199    1.379   .     A
C198   H226    1.073   .     S
C199   F251    1.357   .     S
C200   C217    1.399   .     A
C200   H228    1.077   .     S
C201   C216    1.389   .     A
C201   F243    1.357   .     S
C201   C217    1.403   .     A
C202   C218    1.407   .     A
C202   C204    1.481   .     S
C203   C209    1.412   .     A
C203   S252    1.770   .     S
C203   C397    1.376   .     S
C204   O235    1.310   .     A
C204   O236    1.299   .     A
C205   C206    1.388   .     A
C205   H221    1.082   .     S
C206   C214    1.408   .     S
C206   C207    1.389   .     A
C207   H222    1.084   .     S
C208   F244    1.359   .     S
C208   C209    1.403   .     A
C208   C399    1.373   .     S
C210   N232    1.368   .     A
C210   F245    1.355   .     S
C210   C275    1.418   .     S
C211   H223    1.082   .     S
C211   N231    1.367   .     A
C211   C338    1.418   1_455 S
C212   H224    1.082   .     S
C212   N231    1.367   .     A
C212   C341    1.416   1_455 S
C213   N232    1.366   .     A
C213   H225    1.080   .     S
C213   C276    1.416   .     S
C214   O238    1.283   .     A
C214   O237    1.281   .     A
C215   C217    1.459   .     S
C215   O239    1.293   .     A
C215   O240    1.295   .     A
C216   C773    1.400   1_554 S
C216   H803    1.083   1_554 S
C218   C219    1.399   .     A
C218   S246    1.768   .     S
C219   C796    1.396   .     S
C219   H806    1.082   .     S
C220   H229    1.078   .     S
C220   C770    1.417   1_554 S
C220   C795    1.396   1_554 S
H227   C792    1.083   .     S
H230   C795    1.082   1_554 S
N231   Zn241   2.014   .     S
N232   Zn242   2.013   .     S
O233   Zn241   1.991   .     S
O234   Zn242   1.995   .     S
O235   Zn241   1.956   .     S
O236   Zn242   1.927   .     S
O237   Zn241   1.995   .     S
O238   Zn242   1.991   .     S
O239   Zn241   1.927   .     S
O240   Zn242   1.956   .     S
S246   O248    1.503   .     D
S246   O247    1.498   .     D
S246   O249    1.682   .     S
O249   H378    0.991   1_455 S
H250   O313    0.991   .     S
S252   O254    1.504   .     D
S252   O255    1.680   .     S
S252   O253    1.501   .     D
O255   H256    0.991   .     S
C257   O298    1.285   .     A
C257   C273    1.421   .     S
C257   O297    1.284   .     A
C258   C259    1.407   .     A
C258   C836    1.419   .     S
C258   C860    1.417   .     S
C259   C266    1.410   .     A
C259   C263    1.412   .     A
C260   C264    1.391   .     A
C260   C834    1.419   1_554 S
C260   C837    1.419   1_554 S
C261   C262    1.387   .     A
C261   C836    1.419   .     S
C261   C856    1.400   .     S
C262   C263    1.379   .     A
C262   H290    1.073   .     S
C263   F315    1.357   .     S
C264   C281    1.399   .     A
C264   H292    1.077   .     S
C265   C280    1.389   .     A
C265   F307    1.357   .     S
C265   C281    1.403   .     A
C266   C282    1.407   .     A
C266   C268    1.481   .     S
C267   C273    1.412   .     A
C267   S316    1.770   .     S
C267   C461    1.376   .     S
C268   O299    1.310   .     A
C268   O300    1.299   .     A
C269   C270    1.388   .     A
C269   H285    1.082   .     S
C270   C278    1.408   .     S
C270   C271    1.389   .     A
C271   H286    1.084   .     S
C272   F308    1.359   .     S
C272   C273    1.403   .     A
C272   C463    1.373   .     S
C274   N296    1.368   .     A
C274   F309    1.355   .     S
C274   C339    1.418   .     S
C275   H287    1.082   .     S
C275   N295    1.367   .     A
C276   H288    1.082   .     S
C276   N295    1.367   .     A
C277   N296    1.366   .     A
C277   H289    1.080   .     S
C277   C340    1.416   .     S
C278   O302    1.283   .     A
C278   O301    1.281   .     A
C279   C281    1.459   .     S
C279   O303    1.293   .     A
C279   O304    1.295   .     A
C280   C837    1.400   1_554 S
C280   H867    1.083   1_554 S
C282   C283    1.399   .     A
C282   S310    1.768   .     S
C283   C860    1.396   .     S
C283   H870    1.082   .     S
C284   H293    1.078   .     S
C284   C834    1.417   1_554 S
C284   C859    1.396   1_554 S
H291   C856    1.083   .     S
H294   C859    1.082   1_554 S
N295   Zn305   2.014   .     S
N296   Zn306   2.013   .     S
O297   Zn305   1.991   .     S
O298   Zn306   1.995   .     S
O299   Zn305   1.956   .     S
O300   Zn306   1.927   .     S
O301   Zn305   1.995   .     S
O302   Zn306   1.991   .     S
O303   Zn305   1.927   .     S
O304   Zn306   1.956   .     S
S310   O312    1.503   .     D
S310   O311    1.498   .     D
S310   O313    1.682   .     S
H314   O377    0.991   .     S
S316   O318    1.504   .     D
S316   O319    1.680   .     S
S316   O317    1.501   .     D
O319   H320    0.991   .     S
C321   O362    1.285   .     A
C321   C337    1.421   .     S
C321   O361    1.284   .     A
C322   C323    1.407   .     A
C322   C900    1.419   .     S
C322   C924    1.417   .     S
C323   C330    1.410   .     A
C323   C327    1.412   .     A
C324   C328    1.391   .     A
C324   C898    1.419   1_554 S
C324   C901    1.419   1_554 S
C325   C326    1.387   .     A
C325   C900    1.419   .     S
C325   C920    1.400   .     S
C326   C327    1.379   .     A
C326   H354    1.073   .     S
C327   F379    1.357   .     S
C328   C345    1.399   .     A
C328   H356    1.077   .     S
C329   C344    1.389   .     A
C329   F371    1.357   .     S
C329   C345    1.403   .     A
C330   C346    1.407   .     A
C330   C332    1.481   .     S
C331   C337    1.412   .     A
C331   S380    1.770   .     S
C331   C525    1.376   .     S
C332   O363    1.310   .     A
C332   O364    1.299   .     A
C333   C334    1.388   .     A
C333   H349    1.082   .     S
C334   C342    1.408   .     S
C334   C335    1.389   .     A
C335   H350    1.084   .     S
C336   F372    1.359   .     S
C336   C337    1.403   .     A
C336   C527    1.373   .     S
C338   N360    1.368   .     A
C338   F373    1.355   .     S
C338   C211    1.418   1_655 S
C339   H351    1.082   .     S
C339   N359    1.367   .     A
C340   H352    1.082   .     S
C340   N359    1.367   .     A
C341   N360    1.366   .     A
C341   H353    1.080   .     S
C341   C212    1.416   1_655 S
C342   O366    1.283   .     A
C342   O365    1.281   .     A
C343   C345    1.459   .     S
C343   O367    1.293   .     A
C343   O368    1.295   .     A
C344   C901    1.400   1_554 S
C344   H931    1.083   1_554 S
C346   C347    1.399   .     A
C346   S374    1.768   .     S
C347   C924    1.396   .     S
C347   H934    1.082   .     S
C348   H357    1.078   .     S
C348   C898    1.417   1_554 S
C348   C923    1.396   1_554 S
H355   C920    1.083   .     S
H358   C923    1.082   1_554 S
N359   Zn369   2.014   .     S
N360   Zn370   2.013   .     S
O361   Zn369   1.991   .     S
O362   Zn370   1.995   .     S
O363   Zn369   1.956   .     S
O364   Zn370   1.927   .     S
O365   Zn369   1.995   .     S
O366   Zn370   1.991   .     S
O367   Zn369   1.927   .     S
O368   Zn370   1.956   .     S
S374   O376    1.503   .     D
S374   O375    1.498   .     D
S374   O377    1.682   .     S
H378   O249    0.991   1_655 S
S380   O382    1.504   .     D
S380   O383    1.680   .     S
S380   O381    1.501   .     D
O383   H384    0.991   .     S
C385   O426    1.285   .     A
C385   C401    1.421   .     S
C385   O425    1.284   .     A
C386   C387    1.407   .     A
C386   C964    1.419   .     S
C386   C988    1.417   .     S
C387   C394    1.410   .     A
C387   C391    1.412   .     A
C388   C392    1.391   .     A
C388   C962    1.419   1_554 S
C388   C965    1.419   1_554 S
C389   C390    1.387   .     A
C389   C964    1.419   .     S
C389   C984    1.400   .     S
C390   C391    1.379   .     A
C390   H418    1.073   .     S
C391   F443    1.357   .     S
C392   C409    1.399   .     A
C392   H420    1.077   .     S
C393   C408    1.389   .     A
C393   F435    1.357   .     S
C393   C409    1.403   .     A
C394   C410    1.407   .     A
C394   C396    1.481   .     S
C395   C401    1.412   .     A
C395   S444    1.770   .     S
C395   C13     1.376   1_565 S
C396   O427    1.310   .     A
C396   O428    1.299   .     A
C397   C398    1.388   .     A
C397   H413    1.082   .     S
C398   C406    1.408   .     S
C398   C399    1.389   .     A
C399   H414    1.084   .     S
C400   F436    1.359   .     S
C400   C401    1.403   .     A
C400   C15     1.373   1_565 S
C402   N424    1.368   .     A
C402   F437    1.355   .     S
C402   C467    1.418   .     S
C403   H415    1.082   .     S
C403   N423    1.367   .     A
C403   C530    1.418   1_455 S
C404   H416    1.082   .     S
C404   N423    1.367   .     A
C404   C533    1.416   1_455 S
C405   N424    1.366   .     A
C405   H417    1.080   .     S
C405   C468    1.416   .     S
C406   O430    1.283   .     A
C406   O429    1.281   .     A
C407   C409    1.459   .     S
C407   O431    1.293   .     A
C407   O432    1.295   .     A
C408   C965    1.400   1_554 S
C408   H995    1.083   1_554 S
C410   C411    1.399   .     A
C410   S438    1.768   .     S
C411   C988    1.396   .     S
C411   H998    1.082   .     S
C412   H421    1.078   .     S
C412   C962    1.417   1_554 S
C412   C987    1.396   1_554 S
H419   C984    1.083   .     S
H422   C987    1.082   1_554 S
N423   Zn433   2.014   .     S
N424   Zn434   2.013   .     S
O425   Zn433   1.991   .     S
O426   Zn434   1.995   .     S
O427   Zn433   1.956   .     S
O428   Zn434   1.927   .     S
O429   Zn433   1.995   .     S
O430   Zn434   1.991   .     S
O431   Zn433   1.927   .     S
O432   Zn434   1.956   .     S
S438   O440    1.503   .     D
S438   O439    1.498   .     D
S438   O441    1.682   .     S
O441   H570    0.991   1_455 S
H442   O505    0.991   .     S
S444   O446    1.504   .     D
S444   O447    1.680   .     S
S444   O445    1.501   .     D
O447   H448    0.991   .     S
C449   O490    1.285   .     A
C449   C465    1.421   .     S
C449   O489    1.284   .     A
C450   C451    1.407   .     A
C450   C1028   1.419   .     S
C450   C1052   1.417   .     S
C451   C458    1.410   .     A
C451   C455    1.412   .     A
C452   C456    1.391   .     A
C452   C1026   1.419   1_554 S
C452   C1029   1.419   1_554 S
C453   C454    1.387   .     A
C453   C1028   1.419   .     S
C453   C1048   1.400   .     S
C454   C455    1.379   .     A
C454   H482    1.073   .     S
C455   F507    1.357   .     S
C456   C473    1.399   .     A
C456   H484    1.077   .     S
C457   C472    1.389   .     A
C457   F499    1.357   .     S
C457   C473    1.403   .     A
C458   C474    1.407   .     A
C458   C460    1.481   .     S
C459   C465    1.412   .     A
C459   S508    1.770   .     S
C459   C77     1.376   1_565 S
C460   O491    1.310   .     A
C460   O492    1.299   .     A
C461   C462    1.388   .     A
C461   H477    1.082   .     S
C462   C470    1.408   .     S
C462   C463    1.389   .     A
C463   H478    1.084   .     S
C464   F500    1.359   .     S
C464   C465    1.403   .     A
C464   C79     1.373   1_565 S
C466   N488    1.368   .     A
C466   F501    1.355   .     S
C466   C531    1.418   .     S
C467   H479    1.082   .     S
C467   N487    1.367   .     A
C468   H480    1.082   .     S
C468   N487    1.367   .     A
C469   N488    1.366   .     A
C469   H481    1.080   .     S
C469   C532    1.416   .     S
C470   O494    1.283   .     A
C470   O493    1.281   .     A
C471   C473    1.459   .     S
C471   O495    1.293   .     A
C471   O496    1.295   .     A
C472   C1029   1.400   1_554 S
C472   H1059   1.083   1_554 S
C474   C475    1.399   .     A
C474   S502    1.768   .     S
C475   C1052   1.396   .     S
C475   H1062   1.082   .     S
C476   H485    1.078   .     S
C476   C1026   1.417   1_554 S
C476   C1051   1.396   1_554 S
H483   C1048   1.083   .     S
H486   C1051   1.082   1_554 S
N487   Zn497   2.014   .     S
N488   Zn498   2.013   .     S
O489   Zn497   1.991   .     S
O490   Zn498   1.995   .     S
O491   Zn497   1.956   .     S
O492   Zn498   1.927   .     S
O493   Zn497   1.995   .     S
O494   Zn498   1.991   .     S
O495   Zn497   1.927   .     S
O496   Zn498   1.956   .     S
S502   O504    1.503   .     D
S502   O503    1.498   .     D
S502   O505    1.682   .     S
H506   O569    0.991   .     S
S508   O510    1.504   .     D
S508   O511    1.680   .     S
S508   O509    1.501   .     D
O511   H512    0.991   .     S
C513   O554    1.285   .     A
C513   C529    1.421   .     S
C513   O553    1.284   .     A
C514   C515    1.407   .     A
C514   C1092   1.419   .     S
C514   C1116   1.417   .     S
C515   C522    1.410   .     A
C515   C519    1.412   .     A
C516   C520    1.391   .     A
C516   C1090   1.419   1_554 S
C516   C1093   1.419   1_554 S
C517   C518    1.387   .     A
C517   C1092   1.419   .     S
C517   C1112   1.400   .     S
C518   C519    1.379   .     A
C518   H546    1.073   .     S
C519   F571    1.357   .     S
C520   C537    1.399   .     A
C520   H548    1.077   .     S
C521   C536    1.389   .     A
C521   F563    1.357   .     S
C521   C537    1.403   .     A
C522   C538    1.407   .     A
C522   C524    1.481   .     S
C523   C529    1.412   .     A
C523   S572    1.770   .     S
C523   C141    1.376   1_565 S
C524   O555    1.310   .     A
C524   O556    1.299   .     A
C525   C526    1.388   .     A
C525   H541    1.082   .     S
C526   C534    1.408   .     S
C526   C527    1.389   .     A
C527   H542    1.084   .     S
C528   F564    1.359   .     S
C528   C529    1.403   .     A
C528   C143    1.373   1_565 S
C530   N552    1.368   .     A
C530   F565    1.355   .     S
C530   C403    1.418   1_655 S
C531   H543    1.082   .     S
C531   N551    1.367   .     A
C532   H544    1.082   .     S
C532   N551    1.367   .     A
C533   N552    1.366   .     A
C533   H545    1.080   .     S
C533   C404    1.416   1_655 S
C534   O558    1.283   .     A
C534   O557    1.281   .     A
C535   C537    1.459   .     S
C535   O559    1.293   .     A
C535   O560    1.295   .     A
C536   C1093   1.400   1_554 S
C536   H1123   1.083   1_554 S
C538   C539    1.399   .     A
C538   S566    1.768   .     S
C539   C1116   1.396   .     S
C539   H1126   1.082   .     S
C540   H549    1.078   .     S
C540   C1090   1.417   1_554 S
C540   C1115   1.396   1_554 S
H547   C1112   1.083   .     S
H550   C1115   1.082   1_554 S
N551   Zn561   2.014   .     S
N552   Zn562   2.013   .     S
O553   Zn561   1.991   .     S
O554   Zn562   1.995   .     S
O555   Zn561   1.956   .     S
O556   Zn562   1.927   .     S
O557   Zn561   1.995   .     S
O558   Zn562   1.991   .     S
O559   Zn561   1.927   .     S
O560   Zn562   1.956   .     S
S566   O568    1.503   .     D
S566   O567    1.498   .     D
S566   O569    1.682   .     S
H570   O441    0.991   1_655 S
S572   O574    1.504   .     D
S572   O575    1.680   .     S
S572   O573    1.501   .     D
O575   H576    0.991   .     S
C577   O618    1.285   .     A
C577   C593    1.421   .     S
C577   O617    1.284   .     A
C578   C579    1.407   .     A
C578   C4      1.419   1_556 S
C578   C28     1.417   1_556 S
C579   C586    1.410   .     A
C579   C583    1.412   .     A
C580   C584    1.391   .     A
C581   C582    1.387   .     A
C581   C4      1.419   1_556 S
C581   C24     1.400   1_556 S
C582   C583    1.379   .     A
C582   H610    1.073   .     S
C583   F635    1.357   .     S
C584   C601    1.399   .     A
C584   H612    1.077   .     S
C585   C600    1.389   .     A
C585   F627    1.357   .     S
C585   C601    1.403   .     A
C586   C602    1.407   .     A
C586   C588    1.481   .     S
C587   C593    1.412   .     A
C587   S636    1.770   .     S
C587   C781    1.376   .     S
C588   O619    1.310   .     A
C588   O620    1.299   .     A
C589   C590    1.388   .     A
C589   H605    1.082   .     S
C589   C971    1.376   1_545 S
C590   C598    1.408   .     S
C590   C591    1.389   .     A
C591   H606    1.084   .     S
C591   C976    1.373   1_545 S
C592   F628    1.359   .     S
C592   C593    1.403   .     A
C592   C783    1.373   .     S
C594   N616    1.368   .     A
C594   F629    1.355   .     S
C594   C659    1.418   .     S
C595   H607    1.082   .     S
C595   N615    1.367   .     A
C595   C722    1.418   1_455 S
C596   H608    1.082   .     S
C596   N615    1.367   .     A
C596   C725    1.416   1_455 S
C597   N616    1.366   .     A
C597   H609    1.080   .     S
C597   C660    1.416   .     S
C598   O622    1.283   .     A
C598   O621    1.281   .     A
C599   C601    1.459   .     S
C599   O623    1.293   .     A
C599   O624    1.295   .     A
C602   C603    1.399   .     A
C602   S630    1.768   .     S
C603   C28     1.396   1_556 S
C603   H38     1.082   1_556 S
C604   H613    1.078   .     S
H611   C24     1.083   1_556 S
N615   Zn625   2.014   .     S
N616   Zn626   2.013   .     S
O617   Zn625   1.991   .     S
O618   Zn626   1.995   .     S
O619   Zn625   1.956   .     S
O620   Zn626   1.927   .     S
O621   Zn625   1.995   .     S
O622   Zn626   1.991   .     S
O623   Zn625   1.927   .     S
O624   Zn626   1.956   .     S
S630   O632    1.503   .     D
S630   O631    1.498   .     D
S630   O633    1.682   .     S
O633   H762    0.991   1_455 S
H634   O697    0.991   .     S
S636   O638    1.504   .     D
S636   O639    1.680   .     S
S636   O637    1.501   .     D
O639   H640    0.991   .     S
C641   O682    1.285   .     A
C641   C657    1.421   .     S
C641   O681    1.284   .     A
C642   C643    1.407   .     A
C642   C68     1.419   1_556 S
C642   C92     1.417   1_556 S
C643   C650    1.410   .     A
C643   C647    1.412   .     A
C644   C648    1.391   .     A
C645   C646    1.387   .     A
C645   C68     1.419   1_556 S
C645   C88     1.400   1_556 S
C646   C647    1.379   .     A
C646   H674    1.073   .     S
C647   F699    1.357   .     S
C648   C665    1.399   .     A
C648   H676    1.077   .     S
C649   C664    1.389   .     A
C649   F691    1.357   .     S
C649   C665    1.403   .     A
C650   C666    1.407   .     A
C650   C652    1.481   .     S
C651   C657    1.412   .     A
C651   S700    1.770   .     S
C651   C845    1.376   .     S
C652   O683    1.310   .     A
C652   O684    1.299   .     A
C653   C654    1.388   .     A
C653   H669    1.082   .     S
C653   C1035   1.376   1_545 S
C654   C662    1.408   .     S
C654   C655    1.389   .     A
C655   H670    1.084   .     S
C655   C1040   1.373   1_545 S
C656   F692    1.359   .     S
C656   C657    1.403   .     A
C656   C847    1.373   .     S
C658   N680    1.368   .     A
C658   F693    1.355   .     S
C658   C723    1.418   .     S
C659   H671    1.082   .     S
C659   N679    1.367   .     A
C660   H672    1.082   .     S
C660   N679    1.367   .     A
C661   N680    1.366   .     A
C661   H673    1.080   .     S
C661   C724    1.416   .     S
C662   O686    1.283   .     A
C662   O685    1.281   .     A
C663   C665    1.459   .     S
C663   O687    1.293   .     A
C663   O688    1.295   .     A
C666   C667    1.399   .     A
C666   S694    1.768   .     S
C667   C92     1.396   1_556 S
C667   H102    1.082   1_556 S
C668   H677    1.078   .     S
H675   C88     1.083   1_556 S
N679   Zn689   2.014   .     S
N680   Zn690   2.013   .     S
O681   Zn689   1.991   .     S
O682   Zn690   1.995   .     S
O683   Zn689   1.956   .     S
O684   Zn690   1.927   .     S
O685   Zn689   1.995   .     S
O686   Zn690   1.991   .     S
O687   Zn689   1.927   .     S
O688   Zn690   1.956   .     S
S694   O696    1.503   .     D
S694   O695    1.498   .     D
S694   O697    1.682   .     S
H698   O761    0.991   .     S
S700   O702    1.504   .     D
S700   O703    1.680   .     S
S700   O701    1.501   .     D
O703   H704    0.991   .     S
C705   O746    1.285   .     A
C705   C721    1.421   .     S
C705   O745    1.284   .     A
C706   C707    1.407   .     A
C706   C132    1.419   1_556 S
C706   C156    1.417   1_556 S
C707   C714    1.410   .     A
C707   C711    1.412   .     A
C708   C712    1.391   .     A
C709   C710    1.387   .     A
C709   C132    1.419   1_556 S
C709   C152    1.400   1_556 S
C710   C711    1.379   .     A
C710   H738    1.073   .     S
C711   F763    1.357   .     S
C712   C729    1.399   .     A
C712   H740    1.077   .     S
C713   C728    1.389   .     A
C713   F755    1.357   .     S
C713   C729    1.403   .     A
C714   C730    1.407   .     A
C714   C716    1.481   .     S
C715   C721    1.412   .     A
C715   S764    1.770   .     S
C715   C909    1.376   .     S
C716   O747    1.310   .     A
C716   O748    1.299   .     A
C717   C718    1.388   .     A
C717   H733    1.082   .     S
C717   C1099   1.376   1_545 S
C718   C726    1.408   .     S
C718   C719    1.389   .     A
C719   H734    1.084   .     S
C719   C1104   1.373   1_545 S
C720   F756    1.359   .     S
C720   C721    1.403   .     A
C720   C911    1.373   .     S
C722   N744    1.368   .     A
C722   F757    1.355   .     S
C722   C595    1.418   1_655 S
C723   H735    1.082   .     S
C723   N743    1.367   .     A
C724   H736    1.082   .     S
C724   N743    1.367   .     A
C725   N744    1.366   .     A
C725   H737    1.080   .     S
C725   C596    1.416   1_655 S
C726   O750    1.283   .     A
C726   O749    1.281   .     A
C727   C729    1.459   .     S
C727   O751    1.293   .     A
C727   O752    1.295   .     A
C730   C731    1.399   .     A
C730   S758    1.768   .     S
C731   C156    1.396   1_556 S
C731   H166    1.082   1_556 S
C732   H741    1.078   .     S
H739   C152    1.083   1_556 S
N743   Zn753   2.014   .     S
N744   Zn754   2.013   .     S
O745   Zn753   1.991   .     S
O746   Zn754   1.995   .     S
O747   Zn753   1.956   .     S
O748   Zn754   1.927   .     S
O749   Zn753   1.995   .     S
O750   Zn754   1.991   .     S
O751   Zn753   1.927   .     S
O752   Zn754   1.956   .     S
S758   O760    1.503   .     D
S758   O759    1.498   .     D
S758   O761    1.682   .     S
H762   O633    0.991   1_655 S
S764   O766    1.504   .     D
S764   O767    1.680   .     S
S764   O765    1.501   .     D
O767   H768    0.991   .     S
C769   O810    1.285   .     A
C769   C785    1.421   .     S
C769   O809    1.284   .     A
C770   C771    1.407   .     A
C770   C196    1.419   1_556 S
C770   C220    1.417   1_556 S
C771   C778    1.410   .     A
C771   C775    1.412   .     A
C772   C776    1.391   .     A
C773   C774    1.387   .     A
C773   C196    1.419   1_556 S
C773   C216    1.400   1_556 S
C774   C775    1.379   .     A
C774   H802    1.073   .     S
C775   F827    1.357   .     S
C776   C793    1.399   .     A
C776   H804    1.077   .     S
C777   C792    1.389   .     A
C777   F819    1.357   .     S
C777   C793    1.403   .     A
C778   C794    1.407   .     A
C778   C780    1.481   .     S
C779   C785    1.412   .     A
C779   S828    1.770   .     S
C779   C973    1.376   .     S
C780   O811    1.310   .     A
C780   O812    1.299   .     A
C781   C782    1.388   .     A
C781   H797    1.082   .     S
C782   C790    1.408   .     S
C782   C783    1.389   .     A
C783   H798    1.084   .     S
C784   F820    1.359   .     S
C784   C785    1.403   .     A
C784   C975    1.373   .     S
C786   N808    1.368   .     A
C786   F821    1.355   .     S
C786   C851    1.418   .     S
C787   H799    1.082   .     S
C787   N807    1.367   .     A
C787   C914    1.418   1_455 S
C788   H800    1.082   .     S
C788   N807    1.367   .     A
C788   C917    1.416   1_455 S
C789   N808    1.366   .     A
C789   H801    1.080   .     S
C789   C852    1.416   .     S
C790   O814    1.283   .     A
C790   O813    1.281   .     A
C791   C793    1.459   .     S
C791   O815    1.293   .     A
C791   O816    1.295   .     A
C794   C795    1.399   .     A
C794   S822    1.768   .     S
C795   C220    1.396   1_556 S
C795   H230    1.082   1_556 S
C796   H805    1.078   .     S
H803   C216    1.083   1_556 S
N807   Zn817   2.014   .     S
N808   Zn818   2.013   .     S
O809   Zn817   1.991   .     S
O810   Zn818   1.995   .     S
O811   Zn817   1.956   .     S
O812   Zn818   1.927   .     S
O813   Zn817   1.995   .     S
O814   Zn818   1.991   .     S
O815   Zn817   1.927   .     S
O816   Zn818   1.956   .     S
S822   O824    1.503   .     D
S822   O823    1.498   .     D
S822   O825    1.682   .     S
O825   H954    0.991   1_455 S
H826   O889    0.991   .     S
S828   O830    1.504   .     D
S828   O831    1.680   .     S
S828   O829    1.501   .     D
O831   H832    0.991   .     S
C833   O874    1.285   .     A
C833   C849    1.421   .     S
C833   O873    1.284   .     A
C834   C835    1.407   .     A
C834   C260    1.419   1_556 S
C834   C284    1.417   1_556 S
C835   C842    1.410   .     A
C835   C839    1.412   .     A
C836   C840    1.391   .     A
C837   C838    1.387   .     A
C837   C260    1.419   1_556 S
C837   C280    1.400   1_556 S
C838   C839    1.379   .     A
C838   H866    1.073   .     S
C839   F891    1.357   .     S
C840   C857    1.399   .     A
C840   H868    1.077   .     S
C841   C856    1.389   .     A
C841   F883    1.357   .     S
C841   C857    1.403   .     A
C842   C858    1.407   .     A
C842   C844    1.481   .     S
C843   C849    1.412   .     A
C843   S892    1.770   .     S
C843   C1037   1.376   .     S
C844   O875    1.310   .     A
C844   O876    1.299   .     A
C845   C846    1.388   .     A
C845   H861    1.082   .     S
C846   C854    1.408   .     S
C846   C847    1.389   .     A
C847   H862    1.084   .     S
C848   F884    1.359   .     S
C848   C849    1.403   .     A
C848   C1039   1.373   .     S
C850   N872    1.368   .     A
C850   F885    1.355   .     S
C850   C915    1.418   .     S
C851   H863    1.082   .     S
C851   N871    1.367   .     A
C852   H864    1.082   .     S
C852   N871    1.367   .     A
C853   N872    1.366   .     A
C853   H865    1.080   .     S
C853   C916    1.416   .     S
C854   O878    1.283   .     A
C854   O877    1.281   .     A
C855   C857    1.459   .     S
C855   O879    1.293   .     A
C855   O880    1.295   .     A
C858   C859    1.399   .     A
C858   S886    1.768   .     S
C859   C284    1.396   1_556 S
C859   H294    1.082   1_556 S
C860   H869    1.078   .     S
H867   C280    1.083   1_556 S
N871   Zn881   2.014   .     S
N872   Zn882   2.013   .     S
O873   Zn881   1.991   .     S
O874   Zn882   1.995   .     S
O875   Zn881   1.956   .     S
O876   Zn882   1.927   .     S
O877   Zn881   1.995   .     S
O878   Zn882   1.991   .     S
O879   Zn881   1.927   .     S
O880   Zn882   1.956   .     S
S886   O888    1.503   .     D
S886   O887    1.498   .     D
S886   O889    1.682   .     S
H890   O953    0.991   .     S
S892   O894    1.504   .     D
S892   O895    1.680   .     S
S892   O893    1.501   .     D
O895   H896    0.991   .     S
C897   O938    1.285   .     A
C897   C913    1.421   .     S
C897   O937    1.284   .     A
C898   C899    1.407   .     A
C898   C324    1.419   1_556 S
C898   C348    1.417   1_556 S
C899   C906    1.410   .     A
C899   C903    1.412   .     A
C900   C904    1.391   .     A
C901   C902    1.387   .     A
C901   C324    1.419   1_556 S
C901   C344    1.400   1_556 S
C902   C903    1.379   .     A
C902   H930    1.073   .     S
C903   F955    1.357   .     S
C904   C921    1.399   .     A
C904   H932    1.077   .     S
C905   C920    1.389   .     A
C905   F947    1.357   .     S
C905   C921    1.403   .     A
C906   C922    1.407   .     A
C906   C908    1.481   .     S
C907   C913    1.412   .     A
C907   S956    1.770   .     S
C907   C1101   1.376   .     S
C908   O939    1.310   .     A
C908   O940    1.299   .     A
C909   C910    1.388   .     A
C909   H925    1.082   .     S
C910   C918    1.408   .     S
C910   C911    1.389   .     A
C911   H926    1.084   .     S
C912   F948    1.359   .     S
C912   C913    1.403   .     A
C912   C1103   1.373   .     S
C914   N936    1.368   .     A
C914   F949    1.355   .     S
C914   C787    1.418   1_655 S
C915   H927    1.082   .     S
C915   N935    1.367   .     A
C916   H928    1.082   .     S
C916   N935    1.367   .     A
C917   N936    1.366   .     A
C917   H929    1.080   .     S
C917   C788    1.416   1_655 S
C918   O942    1.283   .     A
C918   O941    1.281   .     A
C919   C921    1.459   .     S
C919   O943    1.293   .     A
C919   O944    1.295   .     A
C922   C923    1.399   .     A
C922   S950    1.768   .     S
C923   C348    1.396   1_556 S
C923   H358    1.082   1_556 S
C924   H933    1.078   .     S
H931   C344    1.083   1_556 S
N935   Zn945   2.014   .     S
N936   Zn946   2.013   .     S
O937   Zn945   1.991   .     S
O938   Zn946   1.995   .     S
O939   Zn945   1.956   .     S
O940   Zn946   1.927   .     S
O941   Zn945   1.995   .     S
O942   Zn946   1.991   .     S
O943   Zn945   1.927   .     S
O944   Zn946   1.956   .     S
S950   O952    1.503   .     D
S950   O951    1.498   .     D
S950   O953    1.682   .     S
H954   O825    0.991   1_655 S
S956   O958    1.504   .     D
S956   O959    1.680   .     S
S956   O957    1.501   .     D
O959   H960    0.991   .     S
C961   O1002   1.285   .     A
C961   C977    1.421   .     S
C961   O1001   1.284   .     A
C962   C963    1.407   .     A
C962   C388    1.419   1_556 S
C962   C412    1.417   1_556 S
C963   C970    1.410   .     A
C963   C967    1.412   .     A
C964   C968    1.391   .     A
C965   C966    1.387   .     A
C965   C388    1.419   1_556 S
C965   C408    1.400   1_556 S
C966   C967    1.379   .     A
C966   H994    1.073   .     S
C967   F1019   1.357   .     S
C968   C985    1.399   .     A
C968   H996    1.077   .     S
C969   C984    1.389   .     A
C969   F1011   1.357   .     S
C969   C985    1.403   .     A
C970   C986    1.407   .     A
C970   C972    1.481   .     S
C971   C977    1.412   .     A
C971   S1020   1.770   .     S
C971   C589    1.376   1_565 S
C972   O1003   1.310   .     A
C972   O1004   1.299   .     A
C973   C974    1.388   .     A
C973   H989    1.082   .     S
C974   C982    1.408   .     S
C974   C975    1.389   .     A
C975   H990    1.084   .     S
C976   F1012   1.359   .     S
C976   C977    1.403   .     A
C976   C591    1.373   1_565 S
C978   N1000   1.368   .     A
C978   F1013   1.355   .     S
C978   C1043   1.418   .     S
C979   H991    1.082   .     S
C979   N999    1.367   .     A
C979   C1106   1.418   1_455 S
C980   H992    1.082   .     S
C980   N999    1.367   .     A
C980   C1109   1.416   1_455 S
C981   N1000   1.366   .     A
C981   H993    1.080   .     S
C981   C1044   1.416   .     S
C982   O1006   1.283   .     A
C982   O1005   1.281   .     A
C983   C985    1.459   .     S
C983   O1007   1.293   .     A
C983   O1008   1.295   .     A
C986   C987    1.399   .     A
C986   S1014   1.768   .     S
C987   C412    1.396   1_556 S
C987   H422    1.082   1_556 S
C988   H997    1.078   .     S
H995   C408    1.083   1_556 S
N999   Zn1009  2.014   .     S
N1000  Zn1010  2.013   .     S
O1001  Zn1009  1.991   .     S
O1002  Zn1010  1.995   .     S
O1003  Zn1009  1.956   .     S
O1004  Zn1010  1.927   .     S
O1005  Zn1009  1.995   .     S
O1006  Zn1010  1.991   .     S
O1007  Zn1009  1.927   .     S
O1008  Zn1010  1.956   .     S
S1014  O1016   1.503   .     D
S1014  O1015   1.498   .     D
S1014  O1017   1.682   .     S
O1017  H1146   0.991   1_455 S
H1018  O1081   0.991   .     S
S1020  O1022   1.504   .     D
S1020  O1023   1.680   .     S
S1020  O1021   1.501   .     D
O1023  H1024   0.991   .     S
C1025  O1066   1.285   .     A
C1025  C1041   1.421   .     S
C1025  O1065   1.284   .     A
C1026  C1027   1.407   .     A
C1026  C452    1.419   1_556 S
C1026  C476    1.417   1_556 S
C1027  C1034   1.410   .     A
C1027  C1031   1.412   .     A
C1028  C1032   1.391   .     A
C1029  C1030   1.387   .     A
C1029  C452    1.419   1_556 S
C1029  C472    1.400   1_556 S
C1030  C1031   1.379   .     A
C1030  H1058   1.073   .     S
C1031  F1083   1.357   .     S
C1032  C1049   1.399   .     A
C1032  H1060   1.077   .     S
C1033  C1048   1.389   .     A
C1033  F1075   1.357   .     S
C1033  C1049   1.403   .     A
C1034  C1050   1.407   .     A
C1034  C1036   1.481   .     S
C1035  C1041   1.412   .     A
C1035  S1084   1.770   .     S
C1035  C653    1.376   1_565 S
C1036  O1067   1.310   .     A
C1036  O1068   1.299   .     A
C1037  C1038   1.388   .     A
C1037  H1053   1.082   .     S
C1038  C1046   1.408   .     S
C1038  C1039   1.389   .     A
C1039  H1054   1.084   .     S
C1040  F1076   1.359   .     S
C1040  C1041   1.403   .     A
C1040  C655    1.373   1_565 S
C1042  N1064   1.368   .     A
C1042  F1077   1.355   .     S
C1042  C1107   1.418   .     S
C1043  H1055   1.082   .     S
C1043  N1063   1.367   .     A
C1044  H1056   1.082   .     S
C1044  N1063   1.367   .     A
C1045  N1064   1.366   .     A
C1045  H1057   1.080   .     S
C1045  C1108   1.416   .     S
C1046  O1070   1.283   .     A
C1046  O1069   1.281   .     A
C1047  C1049   1.459   .     S
C1047  O1071   1.293   .     A
C1047  O1072   1.295   .     A
C1050  C1051   1.399   .     A
C1050  S1078   1.768   .     S
C1051  C476    1.396   1_556 S
C1051  H486    1.082   1_556 S
C1052  H1061   1.078   .     S
H1059  C472    1.083   1_556 S
N1063  Zn1073  2.014   .     S
N1064  Zn1074  2.013   .     S
O1065  Zn1073  1.991   .     S
O1066  Zn1074  1.995   .     S
O1067  Zn1073  1.956   .     S
O1068  Zn1074  1.927   .     S
O1069  Zn1073  1.995   .     S
O1070  Zn1074  1.991   .     S
O1071  Zn1073  1.927   .     S
O1072  Zn1074  1.956   .     S
S1078  O1080   1.503   .     D
S1078  O1079   1.498   .     D
S1078  O1081   1.682   .     S
H1082  O1145   0.991   .     S
S1084  O1086   1.504   .     D
S1084  O1087   1.680   .     S
S1084  O1085   1.501   .     D
O1087  H1088   0.991   .     S
C1089  O1130   1.285   .     A
C1089  C1105   1.421   .     S
C1089  O1129   1.284   .     A
C1090  C1091   1.407   .     A
C1090  C516    1.419   1_556 S
C1090  C540    1.417   1_556 S
C1091  C1098   1.410   .     A
C1091  C1095   1.412   .     A
C1092  C1096   1.391   .     A
C1093  C1094   1.387   .     A
C1093  C516    1.419   1_556 S
C1093  C536    1.400   1_556 S
C1094  C1095   1.379   .     A
C1094  H1122   1.073   .     S
C1095  F1147   1.357   .     S
C1096  C1113   1.399   .     A
C1096  H1124   1.077   .     S
C1097  C1112   1.389   .     A
C1097  F1139   1.357   .     S
C1097  C1113   1.403   .     A
C1098  C1114   1.407   .     A
C1098  C1100   1.481   .     S
C1099  C1105   1.412   .     A
C1099  S1148   1.770   .     S
C1099  C717    1.376   1_565 S
C1100  O1131   1.310   .     A
C1100  O1132   1.299   .     A
C1101  C1102   1.388   .     A
C1101  H1117   1.082   .     S
C1102  C1110   1.408   .     S
C1102  C1103   1.389   .     A
C1103  H1118   1.084   .     S
C1104  F1140   1.359   .     S
C1104  C1105   1.403   .     A
C1104  C719    1.373   1_565 S
C1106  N1128   1.368   .     A
C1106  F1141   1.355   .     S
C1106  C979    1.418   1_655 S
C1107  H1119   1.082   .     S
C1107  N1127   1.367   .     A
C1108  H1120   1.082   .     S
C1108  N1127   1.367   .     A
C1109  N1128   1.366   .     A
C1109  H1121   1.080   .     S
C1109  C980    1.416   1_655 S
C1110  O1134   1.283   .     A
C1110  O1133   1.281   .     A
C1111  C1113   1.459   .     S
C1111  O1135   1.293   .     A
C1111  O1136   1.295   .     A
C1114  C1115   1.399   .     A
C1114  S1142   1.768   .     S
C1115  C540    1.396   1_556 S
C1115  H550    1.082   1_556 S
C1116  H1125   1.078   .     S
H1123  C536    1.083   1_556 S
N1127  Zn1137  2.014   .     S
N1128  Zn1138  2.013   .     S
O1129  Zn1137  1.991   .     S
O1130  Zn1138  1.995   .     S
O1131  Zn1137  1.956   .     S
O1132  Zn1138  1.927   .     S
O1133  Zn1137  1.995   .     S
O1134  Zn1138  1.991   .     S
O1135  Zn1137  1.927   .     S
O1136  Zn1138  1.956   .     S
S1142  O1144   1.503   .     D
S1142  O1143   1.498   .     D
S1142  O1145   1.682   .     S
H1146  O1017   0.991   1_655 S
S1148  O1150   1.504   .     D
S1148  O1151   1.680   .     S
S1148  O1149   1.501   .     D
O1151  H1152   0.991   .     S
