data_str_m1_o1_o2_pcu_sym.21
_audit_creation_date              2020-01-03
_audit_creation_method            'Materials Studio'
_symmetry_space_group_name_H-M    'P1'
_symmetry_Int_Tables_number       1
_symmetry_cell_setting            triclinic
loop_
_symmetry_equiv_pos_as_xyz
  x,y,z
_cell_length_a                    36.5612
_cell_length_b                    36.5611
_cell_length_c                    34.5732
_cell_angle_alpha                 90.1175
_cell_angle_beta                  90.1173
_cell_angle_gamma                 90.0435
loop_
_atom_site_label
_atom_site_type_symbol
_atom_site_fract_x
_atom_site_fract_y
_atom_site_fract_z
_atom_site_U_iso_or_equiv
_atom_site_adp_type
_atom_site_occupancy
C1     C     0.21838   0.48977   0.04169   0.00000  Uiso   1.00
C2     C     0.03117   0.23854   0.45820   0.00000  Uiso   1.00
C3     C     0.34780   0.40169   0.74965   0.00000  Uiso   1.00
C4     C     0.40231   0.15158   0.24951   0.00000  Uiso   1.00
C5     C     0.09776   0.34836   0.75049   0.00000  Uiso   1.00
C6     C     0.34779   0.40168   0.25054   0.00000  Uiso   1.00
C7     C     0.15168   0.09779   0.75054   0.00000  Uiso   1.00
C8     C     0.09831   0.15220   0.74948   0.00000  Uiso   1.00
C9     C     0.40220   0.34831   0.24948   0.00000  Uiso   1.00
C10    C     0.15225   0.40163   0.74949   0.00000  Uiso   1.00
C11    C     0.34770   0.09842   0.25048   0.00000  Uiso   1.00
C12    C     0.40220   0.34833   0.75038   0.00000  Uiso   1.00
C13    C     0.23975   0.46838   0.54169   0.00000  Uiso   1.00
C14    C     0.09833   0.15220   0.25037   0.00000  Uiso   1.00
C15    C     0.34842   0.09770   0.75048   0.00000  Uiso   1.00
C16    C     0.15163   0.40226   0.24949   0.00000  Uiso   1.00
C17    C     0.24993   0.00001   0.10241   0.00000  Uiso   1.00
C18    C     0.25005   0.00004   0.89755   0.00000  Uiso   1.00
C19    C     0.00002   0.24995   0.10241   0.00000  Uiso   1.00
C20    C     0.00005   0.25008   0.89755   0.00000  Uiso   1.00
C21    C     0.49995   0.25002   0.60241   0.00000  Uiso   1.00
C22    C     0.00008   0.25005   0.39755   0.00000  Uiso   1.00
C23    C     0.25001   0.49993   0.60241   0.00000  Uiso   1.00
C24    C     0.23824   0.03101   0.45821   0.00000  Uiso   1.00
C25    C     0.25004   0.00005   0.39755   0.00000  Uiso   1.00
C26    C     0.18512   0.37105   0.19512   0.00000  Uiso   1.00
C27    C     0.30588   0.13713   0.78963   0.00000  Uiso   1.00
C28    C     0.11530   0.17178   0.18271   0.00000  Uiso   1.00
C29    C     0.38181   0.32621   0.81579   0.00000  Uiso   1.00
C30    C     0.30704   0.13705   0.20804   0.00000  Uiso   1.00
C31    C     0.18363   0.37309   0.80696   0.00000  Uiso   1.00
C32    C     0.37641   0.32076   0.18845   0.00000  Uiso   1.00
C33    C     0.12131   0.17824   0.81261   0.00000  Uiso   1.00
C34    C     0.17911   0.12346   0.81170   0.00000  Uiso   1.00
C35    C     0.03150   0.26042   0.54190   0.00000  Uiso   1.00
C36    C     0.32168   0.37860   0.18748   0.00000  Uiso   1.00
C37    C     0.12885   0.31500   0.80502   0.00000  Uiso   1.00
C38    C     0.36291   0.19407   0.21029   0.00000  Uiso   1.00
C39    C     0.32819   0.38470   0.81729   0.00000  Uiso   1.00
C40    C     0.17379   0.11817   0.18423   0.00000  Uiso   1.00
C41    C     0.36293   0.19298   0.79193   0.00000  Uiso   1.00
C42    C     0.12712   0.31618   0.19327   0.00000  Uiso   1.00
C43    C     0.44407   0.11290   0.71030   0.00000  Uiso   1.00
C44    C     0.06478   0.37905   0.30474   0.00000  Uiso   1.00
C45    C     0.36830   0.42391   0.68431   0.00000  Uiso   1.00
C46    C     0.46897   0.26155   0.45811   0.00000  Uiso   1.00
C47    C     0.13480   0.07830   0.31736   0.00000  Uiso   1.00
C48    C     0.06644   0.37684   0.69296   0.00000  Uiso   1.00
C49    C     0.44297   0.11293   0.29193   0.00000  Uiso   1.00
C50    C     0.12860   0.07167   0.68748   0.00000  Uiso   1.00
C51    C     0.37347   0.42911   0.31169   0.00000  Uiso   1.00
C52    C     0.42824   0.37130   0.31261   0.00000  Uiso   1.00
C53    C     0.07076   0.12641   0.68846   0.00000  Uiso   1.00
C54    C     0.38713   0.05589   0.28964   0.00000  Uiso   1.00
C55    C     0.12125   0.43489   0.69483   0.00000  Uiso   1.00
C56    C     0.07632   0.13192   0.31588   0.00000  Uiso   1.00
C57    C     0.26020   0.03150   0.54188   0.00000  Uiso   1.00
C58    C     0.42189   0.36540   0.68278   0.00000  Uiso   1.00
C59    C     0.12282   0.43388   0.30665   0.00000  Uiso   1.00
C60    C     0.38705   0.05704   0.70805   0.00000  Uiso   1.00
C61    C     0.26172   0.46899   0.45810   0.00000  Uiso   1.00
C62    C     0.21830   0.49003   0.08195   0.00000  Uiso   1.00
C63    C     0.28113   0.48852   0.91796   0.00000  Uiso   1.00
C64    C     0.48987   0.21839   0.08194   0.00000  Uiso   1.00
C65    C     0.28101   0.48824   0.95821   0.00000  Uiso   1.00
C66    C     0.48879   0.28126   0.91795   0.00000  Uiso   1.00
C67    C     0.28156   0.00998   0.08212   0.00000  Uiso   1.00
C68    C     0.21894   0.01153   0.91785   0.00000  Uiso   1.00
C69    C     0.01017   0.28154   0.08215   0.00000  Uiso   1.00
C70    C     0.01132   0.21890   0.91787   0.00000  Uiso   1.00
C71    C     0.46839   0.23986   0.58194   0.00000  Uiso   1.00
C72    C     0.03127   0.23881   0.41795   0.00000  Uiso   1.00
C73    C     0.24002   0.46830   0.58195   0.00000  Uiso   1.00
C74    C     0.23853   0.03114   0.41796   0.00000  Uiso   1.00
C75    C     0.03154   0.26018   0.58215   0.00000  Uiso   1.00
C76    C     0.48962   0.21850   0.04168   0.00000  Uiso   1.00
C77    C     0.46890   0.26131   0.41787   0.00000  Uiso   1.00
C78    C     0.25998   0.03156   0.58212   0.00000  Uiso   1.00
C79    C     0.26152   0.46894   0.41785   0.00000  Uiso   1.00
C80    C     0.24995   0.49996   0.02129   0.00000  Uiso   1.00
C81    C     0.24998   0.49996   0.97865   0.00000  Uiso   1.00
C82    C     0.00000   0.25002   0.02129   0.00000  Uiso   1.00
C83    C     0.00002   0.25005   0.97866   0.00000  Uiso   1.00
C84    C     0.00002   0.25001   0.52130   0.00000  Uiso   1.00
C85    C     0.00005   0.25002   0.47866   0.00000  Uiso   1.00
C86    C     0.24996   0.49995   0.52129   0.00000  Uiso   1.00
C87    C     0.48853   0.28116   0.95820   0.00000  Uiso   1.00
C88    C     0.24996   0.49998   0.47865   0.00000  Uiso   1.00
C89    C     0.25002   0.00003   0.35523   0.00000  Uiso   1.00
C90    C     0.25000   0.49997   0.64475   0.00000  Uiso   1.00
C91    C     0.00003   0.25001   0.35523   0.00000  Uiso   1.00
C92    C     0.49997   0.25000   0.64476   0.00000  Uiso   1.00
C93    C     0.00001   0.25003   0.85523   0.00000  Uiso   1.00
C94    C    -0.00000   0.24997   0.14476   0.00000  Uiso   1.00
C95    C     0.25003   0.00002   0.85523   0.00000  Uiso   1.00
C96    C     0.24997  -0.00000   0.14475   0.00000  Uiso   1.00
C97    C     0.18021   0.07017   0.24962   0.00000  Uiso   1.00
C98    C     0.28150   0.01020   0.04188   0.00000  Uiso   1.00
C99    C     0.32017   0.43021   0.74961   0.00000  Uiso   1.00
C100   C     0.43025   0.17983   0.25015   0.00000  Uiso   1.00
C101   C     0.07000   0.31992   0.75020   0.00000  Uiso   1.00
C102   C     0.32017   0.43025   0.25043   0.00000  Uiso   1.00
C103   C     0.18025   0.07017   0.75043   0.00000  Uiso   1.00
C104   C     0.06993   0.32000   0.25019   0.00000  Uiso   1.00
C105   C     0.42983   0.18025   0.75016   0.00000  Uiso   1.00
C106   C     0.18000   0.43008   0.74980   0.00000  Uiso   1.00
C107   C     0.31975   0.07017   0.24984   0.00000  Uiso   1.00
C108   C     0.42982   0.31978   0.75040   0.00000  Uiso   1.00
C109   C     0.21899   0.01173   0.95810   0.00000  Uiso   1.00
C110   C     0.06978   0.17982   0.25040   0.00000  Uiso   1.00
C111   C     0.32017   0.06975   0.74984   0.00000  Uiso   1.00
C112   C     0.18007   0.43000   0.24980   0.00000  Uiso   1.00
C113   C     0.06976   0.17984   0.74958   0.00000  Uiso   1.00
C114   C     0.42984   0.31976   0.24958   0.00000  Uiso   1.00
C115   C     0.15365   0.37341   0.22239   0.00000  Uiso   1.00
C116   C     0.34157   0.13102   0.76982   0.00000  Uiso   1.00
C117   C     0.12063   0.14805   0.21734   0.00000  Uiso   1.00
C118   C     0.37924   0.35231   0.78290   0.00000  Uiso   1.00
C119   C     0.34142   0.13153   0.23055   0.00000  Uiso   1.00
C120   C     0.01040   0.28150   0.04190   0.00000  Uiso   1.00
C121   C     0.15395   0.37346   0.77733   0.00000  Uiso   1.00
C122   C     0.37621   0.34934   0.21922   0.00000  Uiso   1.00
C123   C     0.12364   0.15118   0.78035   0.00000  Uiso   1.00
C124   C     0.15061   0.12374   0.78084   0.00000  Uiso   1.00
C125   C     0.34879   0.37633   0.21970   0.00000  Uiso   1.00
C126   C     0.12652   0.34644   0.77770   0.00000  Uiso   1.00
C127   C     0.36899   0.15841   0.23015   0.00000  Uiso   1.00
C128   C     0.35192   0.37936   0.78267   0.00000  Uiso   1.00
C129   C     0.14768   0.12074   0.21711   0.00000  Uiso   1.00
C130   C     0.36846   0.15859   0.76943   0.00000  Uiso   1.00
C131   C     0.01155   0.21897   0.95811   0.00000  Uiso   1.00
C132   C     0.12664   0.34596   0.22278   0.00000  Uiso   1.00
C133   C     0.40841   0.11899   0.73015   0.00000  Uiso   1.00
C134   C     0.09631   0.37663   0.27755   0.00000  Uiso   1.00
C135   C     0.37081   0.39774   0.71715   0.00000  Uiso   1.00
C136   C     0.12941   0.10198   0.28271   0.00000  Uiso   1.00
C137   C     0.09608   0.37651   0.72262   0.00000  Uiso   1.00
C138   C     0.40859   0.11846   0.26944   0.00000  Uiso   1.00
C139   C     0.12632   0.09879   0.71970   0.00000  Uiso   1.00
C140   C     0.37374   0.40061   0.28084   0.00000  Uiso   1.00
C141   C     0.40117   0.37363   0.28036   0.00000  Uiso   1.00
C142   C     0.46850   0.23961   0.54168   0.00000  Uiso   1.00
C143   C     0.09934   0.12621   0.71922   0.00000  Uiso   1.00
C144   C     0.38102   0.09158   0.26983   0.00000  Uiso   1.00
C145   C     0.12352   0.40352   0.72224   0.00000  Uiso   1.00
C146   C     0.10237   0.12929   0.28294   0.00000  Uiso   1.00
C147   C     0.39811   0.37069   0.71737   0.00000  Uiso   1.00
C148   C     0.12333   0.40407   0.27718   0.00000  Uiso   1.00
C149   C     0.38153   0.09142   0.73055   0.00000  Uiso   1.00
C150   C     0.09836   0.34775   0.25049   0.00000  Uiso   1.00
C151   C     0.40158   0.15231   0.74952   0.00000  Uiso   1.00
C152   C     0.15168   0.09780   0.24965   0.00000  Uiso   1.00
H153   H     0.19388   0.48114   0.02657   0.00000  Uiso   1.00
H154   H     0.05528   0.22891   0.47329   0.00000  Uiso   1.00
H155   H     0.23112   0.44388   0.52657   0.00000  Uiso   1.00
H156   H     0.22842   0.05504   0.47330   0.00000  Uiso   1.00
H157   H     0.05596   0.26919   0.52695   0.00000  Uiso   1.00
H158   H     0.44485   0.27118   0.47312   0.00000  Uiso   1.00
H159   H     0.26882   0.05600   0.52690   0.00000  Uiso   1.00
H160   H     0.27152   0.44494   0.47311   0.00000  Uiso   1.00
H161   H     0.19366   0.48194   0.09705   0.00000  Uiso   1.00
H162   H     0.30532   0.47923   0.90281   0.00000  Uiso   1.00
H163   H     0.48165   0.19379   0.09702   0.00000  Uiso   1.00
H164   H     0.30504   0.47841   0.97330   0.00000  Uiso   1.00
H165   H     0.47969   0.30552   0.90280   0.00000  Uiso   1.00
H166   H     0.30620   0.01808   0.09734   0.00000  Uiso   1.00
H167   H     0.19477   0.02085   0.90262   0.00000  Uiso   1.00
H168   H     0.01840   0.30613   0.09739   0.00000  Uiso   1.00
H169   H     0.02044   0.19464   0.90266   0.00000  Uiso   1.00
H170   H     0.44380   0.23163   0.59702   0.00000  Uiso   1.00
H171   H     0.05553   0.22971   0.40280   0.00000  Uiso   1.00
H172   H     0.23192   0.44366   0.59705   0.00000  Uiso   1.00
H173   H     0.22924   0.05533   0.40281   0.00000  Uiso   1.00
H174   H     0.05612   0.26842   0.59739   0.00000  Uiso   1.00
H175   H     0.48085   0.19405   0.02655   0.00000  Uiso   1.00
H176   H     0.44464   0.27043   0.40266   0.00000  Uiso   1.00
H177   H     0.26809   0.05620   0.59734   0.00000  Uiso   1.00
H178   H     0.27083   0.44477   0.40262   0.00000  Uiso   1.00
H179   H     0.21682   0.39640   0.15566   0.00000  Uiso   1.00
H180   H     0.26740   0.11765   0.82592   0.00000  Uiso   1.00
H181   H     0.11085   0.17502   0.12463   0.00000  Uiso   1.00
H182   H     0.41258   0.30448   0.85844   0.00000  Uiso   1.00
H183   H     0.28382   0.15094   0.15717   0.00000  Uiso   1.00
H184   H     0.19739   0.36827   0.86326   0.00000  Uiso   1.00
H185   H     0.40472   0.29447   0.14677   0.00000  Uiso   1.00
H186   H     0.47888   0.30527   0.97329   0.00000  Uiso   1.00
H187   H     0.12116   0.18717   0.87021   0.00000  Uiso   1.00
H188   H     0.20522   0.09506   0.85344   0.00000  Uiso   1.00
H189   H     0.31267   0.37854   0.12989   0.00000  Uiso   1.00
H190   H     0.10345   0.28328   0.84443   0.00000  Uiso   1.00
H191   H     0.38239   0.23247   0.17392   0.00000  Uiso   1.00
H192   H     0.32497   0.38934   0.87535   0.00000  Uiso   1.00
H193   H     0.19550   0.08740   0.14157   0.00000  Uiso   1.00
H194   H     0.34898   0.21622   0.84277   0.00000  Uiso   1.00
H195   H     0.13200   0.30222   0.13703   0.00000  Uiso   1.00
H196   H     0.48247   0.13239   0.67392   0.00000  Uiso   1.00
H197   H     0.30601   0.01881   0.02690   0.00000  Uiso   1.00
H198   H     0.03294   0.35377   0.34412   0.00000  Uiso   1.00
H199   H     0.33758   0.44579   0.64171   0.00000  Uiso   1.00
H200   H     0.13952   0.07516   0.37542   0.00000  Uiso   1.00
H201   H     0.05273   0.38150   0.63663   0.00000  Uiso   1.00
H202   H     0.46621   0.09899   0.34278   0.00000  Uiso   1.00
H203   H     0.12852   0.06266   0.62989   0.00000  Uiso   1.00
H204   H     0.34507   0.45526   0.35342   0.00000  Uiso   1.00
H205   H     0.43716   0.37114   0.37022   0.00000  Uiso   1.00
H206   H     0.04447   0.15471   0.64677   0.00000  Uiso   1.00
H207   H     0.36765   0.01741   0.32593   0.00000  Uiso   1.00
H208   H     0.19494   0.02154   0.97311   0.00000  Uiso   1.00
H209   H     0.14673   0.46646   0.65534   0.00000  Uiso   1.00
H210   H     0.05474   0.16274   0.35857   0.00000  Uiso   1.00
H211   H     0.42521   0.36103   0.62470   0.00000  Uiso   1.00
H212   H     0.11778   0.44790   0.36286   0.00000  Uiso   1.00
H213   H     0.40095   0.03381   0.65719   0.00000  Uiso   1.00
H214   H     0.01917   0.30597   0.02695   0.00000  Uiso   1.00
H215   H     0.02119   0.19485   0.97312   0.00000  Uiso   1.00
H216   H     0.44406   0.23083   0.52655   0.00000  Uiso   1.00
O217   O     0.25000   0.00000   0.25000   0.00000  Uiso   1.00
O218   O     0.25000   0.46964   0.66317   0.00000  Uiso   1.00
O219   O     0.34176   0.43537   0.33324   0.00000  Uiso   1.00
O220   O     0.46083   0.36783   0.30562   0.00000  Uiso   1.00
O221   O     0.41629   0.37307   0.35097   0.00000  Uiso   1.00
O222   O     0.05301   0.09870   0.68189   0.00000  Uiso   1.00
O223   O     0.06441   0.15808   0.66689   0.00000  Uiso   1.00
O224   O     0.41550   0.03892   0.28430   0.00000  Uiso   1.00
O225   O     0.36033   0.04172   0.31423   0.00000  Uiso   1.00
O226   O     0.09275   0.45214   0.69176   0.00000  Uiso   1.00
O227   O     0.15167   0.44467   0.67267   0.00000  Uiso   1.00
O228   O     0.05777   0.10538   0.32469   0.00000  Uiso   1.00
O229   O     0.46964   0.25000   0.33683   0.00000  Uiso   1.00
O230   O     0.07344   0.16441   0.33702   0.00000  Uiso   1.00
O231   O     0.45492   0.36159   0.68663   0.00000  Uiso   1.00
O232   O     0.40634   0.36480   0.64579   0.00000  Uiso   1.00
O233   O     0.12692   0.46572   0.29681   0.00000  Uiso   1.00
O234   O     0.11761   0.42539   0.34568   0.00000  Uiso   1.00
O235   O     0.38216   0.02728   0.72329   0.00000  Uiso   1.00
O236   O     0.39804   0.05888   0.66939   0.00000  Uiso   1.00
O237   O     0.03036   0.25000   0.66317   0.00000  Uiso   1.00
O238   O     0.00000   0.21964   0.83683   0.00000  Uiso   1.00
O239   O     0.00000   0.28036   0.16317   0.00000  Uiso   1.00
O240   O     0.28036   0.00000   0.83683   0.00000  Uiso   1.00
O241   O     0.21964   0.00000   0.16317   0.00000  Uiso   1.00
O242   O     0.00000   0.28036   0.83683   0.00000  Uiso   1.00
O243   O     0.00000   0.21964   0.16317   0.00000  Uiso   1.00
O244   O     0.21964   0.00000   0.83683   0.00000  Uiso   1.00
O245   O     0.25000   0.00000   0.75000   0.00000  Uiso   1.00
O246   O     0.28036   0.00000   0.16317   0.00000  Uiso   1.00
O247   O     0.20726   0.07307   0.27282   0.00000  Uiso   1.00
O248   O     0.29275   0.42693   0.72718   0.00000  Uiso   1.00
O249   O     0.42693   0.20726   0.27282   0.00000  Uiso   1.00
O250   O     0.07307   0.29274   0.72718   0.00000  Uiso   1.00
O251   O     0.29275   0.42693   0.27282   0.00000  Uiso   1.00
O252   O     0.20726   0.07307   0.72718   0.00000  Uiso   1.00
O253   O     0.07307   0.29274   0.27282   0.00000  Uiso   1.00
O254   O     0.42693   0.20726   0.72718   0.00000  Uiso   1.00
O255   O     0.20726   0.42693   0.72718   0.00000  Uiso   1.00
O256   O     0.00000   0.25000   0.25000   0.00000  Uiso   1.00
O257   O     0.29275   0.07307   0.27282   0.00000  Uiso   1.00
O258   O     0.42693   0.29275   0.72718   0.00000  Uiso   1.00
O259   O     0.07307   0.20725   0.27282   0.00000  Uiso   1.00
O260   O     0.29275   0.07307   0.72718   0.00000  Uiso   1.00
O261   O     0.20726   0.42693   0.27282   0.00000  Uiso   1.00
O262   O     0.07307   0.20725   0.72718   0.00000  Uiso   1.00
O263   O     0.42693   0.29275   0.27282   0.00000  Uiso   1.00
O264   O     0.45726   0.32307   0.77282   0.00000  Uiso   1.00
O265   O     0.04275   0.17693   0.22718   0.00000  Uiso   1.00
O266   O     0.17693   0.45725   0.77282   0.00000  Uiso   1.00
O267   O     0.00000   0.25000   0.75000   0.00000  Uiso   1.00
O268   O     0.32307   0.04275   0.22718   0.00000  Uiso   1.00
O269   O     0.04275   0.17693   0.77282   0.00000  Uiso   1.00
O270   O     0.45726   0.32307   0.22718   0.00000  Uiso   1.00
O271   O     0.32307   0.04275   0.77282   0.00000  Uiso   1.00
O272   O     0.17693   0.45725   0.22718   0.00000  Uiso   1.00
O273   O     0.45726   0.17693   0.22718   0.00000  Uiso   1.00
O274   O     0.04275   0.32307   0.77282   0.00000  Uiso   1.00
O275   O     0.17693   0.04275   0.22718   0.00000  Uiso   1.00
O276   O     0.32307   0.45725   0.77282   0.00000  Uiso   1.00
O277   O     0.04275   0.32307   0.22718   0.00000  Uiso   1.00
O278   O     0.25000   0.46964   0.33683   0.00000  Uiso   1.00
O279   O     0.45726   0.17693   0.77282   0.00000  Uiso   1.00
O280   O     0.32307   0.45725   0.22718   0.00000  Uiso   1.00
O281   O     0.17693   0.04275   0.77282   0.00000  Uiso   1.00
O282   O     0.20239   0.34254   0.19223   0.00000  Uiso   1.00
O283   O     0.19497   0.40139   0.17289   0.00000  Uiso   1.00
O284   O     0.28892   0.16550   0.78430   0.00000  Uiso   1.00
O285   O     0.29172   0.11033   0.81423   0.00000  Uiso   1.00
O286   O     0.11151   0.20482   0.18652   0.00000  Uiso   1.00
O287   O     0.11465   0.15618   0.14574   0.00000  Uiso   1.00
O288   O     0.35522   0.30770   0.82458   0.00000  Uiso   1.00
O289   O     0.25000   0.03036   0.66317   0.00000  Uiso   1.00
O290   O     0.41429   0.32320   0.83692   0.00000  Uiso   1.00
O291   O     0.27729   0.13216   0.22327   0.00000  Uiso   1.00
O292   O     0.30889   0.14804   0.16938   0.00000  Uiso   1.00
O293   O     0.21550   0.37719   0.79726   0.00000  Uiso   1.00
O294   O     0.17496   0.36801   0.84596   0.00000  Uiso   1.00
O295   O     0.34870   0.30302   0.18188   0.00000  Uiso   1.00
O296   O     0.40808   0.31441   0.16689   0.00000  Uiso   1.00
O297   O     0.11783   0.21084   0.80561   0.00000  Uiso   1.00
O298   O     0.12309   0.16630   0.85096   0.00000  Uiso   1.00
O299   O     0.19688   0.15113   0.81835   0.00000  Uiso   1.00
O300   O     0.03036   0.25000   0.33683   0.00000  Uiso   1.00
O301   O     0.18533   0.09175   0.83326   0.00000  Uiso   1.00
O302   O     0.28910   0.38215   0.19451   0.00000  Uiso   1.00
O303   O     0.33356   0.37668   0.14911   0.00000  Uiso   1.00
O304   O     0.15738   0.29778   0.80802   0.00000  Uiso   1.00
O305   O     0.09847   0.30512   0.82717   0.00000  Uiso   1.00
O306   O     0.33455   0.21107   0.21561   0.00000  Uiso   1.00
O307   O     0.38970   0.20818   0.18567   0.00000  Uiso   1.00
O308   O     0.29515   0.38843   0.81348   0.00000  Uiso   1.00
O309   O     0.34380   0.38547   0.85425   0.00000  Uiso   1.00
O310   O     0.19234   0.14473   0.17549   0.00000  Uiso   1.00
O311   O     0.46964   0.25000   0.66317   0.00000  Uiso   1.00
O312   O     0.17675   0.08570   0.16306   0.00000  Uiso   1.00
O313   O     0.36785   0.22273   0.77669   0.00000  Uiso   1.00
O314   O     0.35189   0.19114   0.83058   0.00000  Uiso   1.00
O315   O     0.12307   0.28432   0.20310   0.00000  Uiso   1.00
O316   O     0.13221   0.32471   0.15424   0.00000  Uiso   1.00
O317   O     0.46107   0.08455   0.71562   0.00000  Uiso   1.00
O318   O     0.45818   0.13970   0.68567   0.00000  Uiso   1.00
O319   O     0.04754   0.40759   0.30756   0.00000  Uiso   1.00
O320   O     0.05483   0.34874   0.32696   0.00000  Uiso   1.00
O321   O     0.39491   0.44241   0.67560   0.00000  Uiso   1.00
O322   O     0.25000   0.03036   0.33683   0.00000  Uiso   1.00
O323   O     0.33583   0.42701   0.66317   0.00000  Uiso   1.00
O324   O     0.13852   0.04525   0.31360   0.00000  Uiso   1.00
O325   O     0.13562   0.09396   0.35429   0.00000  Uiso   1.00
O326   O     0.03454   0.37280   0.70264   0.00000  Uiso   1.00
O327   O     0.07514   0.38180   0.65396   0.00000  Uiso   1.00
O328   O     0.47273   0.11785   0.27670   0.00000  Uiso   1.00
O329   O     0.44114   0.10190   0.33058   0.00000  Uiso   1.00
O330   O     0.13216   0.03909   0.69451   0.00000  Uiso   1.00
O331   O     0.12666   0.08356   0.64911   0.00000  Uiso   1.00
O332   O     0.40115   0.44687   0.31836   0.00000  Uiso   1.00
Zn333  Zn    0.20660   0.00000   0.21760   0.00000  Uiso   1.00
Zn334  Zn    0.04340   0.25000   0.28240   0.00000  Uiso   1.00
Zn335  Zn    0.25000   0.45660   0.71760   0.00000  Uiso   1.00
Zn336  Zn    0.25000   0.04340   0.28240   0.00000  Uiso   1.00
Zn337  Zn    0.04340   0.25000   0.71760   0.00000  Uiso   1.00
Zn338  Zn    0.45660   0.25000   0.28240   0.00000  Uiso   1.00
Zn339  Zn    0.25000   0.04340   0.71760   0.00000  Uiso   1.00
Zn340  Zn    0.25000   0.45660   0.28240   0.00000  Uiso   1.00
Zn341  Zn    0.29340   0.00000   0.78240   0.00000  Uiso   1.00
Zn342  Zn    0.00000   0.20660   0.21760   0.00000  Uiso   1.00
Zn343  Zn    0.00000   0.29340   0.78240   0.00000  Uiso   1.00
Zn344  Zn    0.29340   0.00000   0.21760   0.00000  Uiso   1.00
Zn345  Zn    0.20660   0.00000   0.78240   0.00000  Uiso   1.00
Zn346  Zn    0.00000   0.29340   0.21760   0.00000  Uiso   1.00
Zn347  Zn    0.00000   0.20660   0.78240   0.00000  Uiso   1.00
Zn348  Zn    0.45660   0.25000   0.71760   0.00000  Uiso   1.00
C349   C     0.71838   0.48977   0.04169   0.00000  Uiso   1.00
C350   C     0.53117   0.23854   0.45820   0.00000  Uiso   1.00
C351   C     0.84780   0.40169   0.74965   0.00000  Uiso   1.00
C352   C     0.90231   0.15158   0.24951   0.00000  Uiso   1.00
C353   C     0.59776   0.34836   0.75049   0.00000  Uiso   1.00
C354   C     0.84779   0.40168   0.25054   0.00000  Uiso   1.00
C355   C     0.65168   0.09779   0.75054   0.00000  Uiso   1.00
C356   C     0.59831   0.15220   0.74948   0.00000  Uiso   1.00
C357   C     0.90220   0.34831   0.24948   0.00000  Uiso   1.00
C358   C     0.65225   0.40163   0.74949   0.00000  Uiso   1.00
C359   C     0.84770   0.09842   0.25048   0.00000  Uiso   1.00
C360   C     0.90220   0.34833   0.75038   0.00000  Uiso   1.00
C361   C     0.73975   0.46838   0.54169   0.00000  Uiso   1.00
C362   C     0.59833   0.15220   0.25037   0.00000  Uiso   1.00
C363   C     0.84842   0.09770   0.75048   0.00000  Uiso   1.00
C364   C     0.65163   0.40226   0.24949   0.00000  Uiso   1.00
C365   C     0.74993   0.00001   0.10241   0.00000  Uiso   1.00
C366   C     0.75005   0.00004   0.89755   0.00000  Uiso   1.00
C367   C     0.50002   0.24995   0.10241   0.00000  Uiso   1.00
C368   C     0.50005   0.25008   0.89755   0.00000  Uiso   1.00
C369   C     0.99995   0.25002   0.60241   0.00000  Uiso   1.00
C370   C     0.50008   0.25005   0.39755   0.00000  Uiso   1.00
C371   C     0.75001   0.49993   0.60241   0.00000  Uiso   1.00
C372   C     0.73824   0.03101   0.45821   0.00000  Uiso   1.00
C373   C     0.75004   0.00005   0.39755   0.00000  Uiso   1.00
C374   C     0.68512   0.37105   0.19512   0.00000  Uiso   1.00
C375   C     0.80588   0.13713   0.78963   0.00000  Uiso   1.00
C376   C     0.61530   0.17178   0.18271   0.00000  Uiso   1.00
C377   C     0.88181   0.32621   0.81579   0.00000  Uiso   1.00
C378   C     0.80704   0.13705   0.20804   0.00000  Uiso   1.00
C379   C     0.68363   0.37309   0.80696   0.00000  Uiso   1.00
C380   C     0.87641   0.32076   0.18845   0.00000  Uiso   1.00
C381   C     0.62131   0.17824   0.81261   0.00000  Uiso   1.00
C382   C     0.67911   0.12346   0.81170   0.00000  Uiso   1.00
C383   C     0.53150   0.26042   0.54190   0.00000  Uiso   1.00
C384   C     0.82168   0.37860   0.18748   0.00000  Uiso   1.00
C385   C     0.62885   0.31500   0.80502   0.00000  Uiso   1.00
C386   C     0.86291   0.19407   0.21029   0.00000  Uiso   1.00
C387   C     0.82819   0.38470   0.81729   0.00000  Uiso   1.00
C388   C     0.67379   0.11817   0.18423   0.00000  Uiso   1.00
C389   C     0.86293   0.19298   0.79193   0.00000  Uiso   1.00
C390   C     0.62712   0.31618   0.19327   0.00000  Uiso   1.00
C391   C     0.94407   0.11290   0.71030   0.00000  Uiso   1.00
C392   C     0.56478   0.37905   0.30474   0.00000  Uiso   1.00
C393   C     0.86830   0.42391   0.68431   0.00000  Uiso   1.00
C394   C     0.96897   0.26155   0.45811   0.00000  Uiso   1.00
C395   C     0.63480   0.07830   0.31736   0.00000  Uiso   1.00
C396   C     0.56644   0.37684   0.69296   0.00000  Uiso   1.00
C397   C     0.94297   0.11293   0.29193   0.00000  Uiso   1.00
C398   C     0.62860   0.07167   0.68748   0.00000  Uiso   1.00
C399   C     0.87347   0.42911   0.31169   0.00000  Uiso   1.00
C400   C     0.92824   0.37130   0.31261   0.00000  Uiso   1.00
C401   C     0.57076   0.12641   0.68846   0.00000  Uiso   1.00
C402   C     0.88713   0.05589   0.28964   0.00000  Uiso   1.00
C403   C     0.62125   0.43489   0.69483   0.00000  Uiso   1.00
C404   C     0.57632   0.13192   0.31588   0.00000  Uiso   1.00
C405   C     0.76020   0.03150   0.54188   0.00000  Uiso   1.00
C406   C     0.92189   0.36540   0.68278   0.00000  Uiso   1.00
C407   C     0.62282   0.43388   0.30665   0.00000  Uiso   1.00
C408   C     0.88705   0.05704   0.70805   0.00000  Uiso   1.00
C409   C     0.76172   0.46899   0.45810   0.00000  Uiso   1.00
C410   C     0.71830   0.49003   0.08195   0.00000  Uiso   1.00
C411   C     0.78113   0.48852   0.91796   0.00000  Uiso   1.00
C412   C     0.98987   0.21839   0.08194   0.00000  Uiso   1.00
C413   C     0.78101   0.48824   0.95821   0.00000  Uiso   1.00
C414   C     0.98879   0.28126   0.91795   0.00000  Uiso   1.00
C415   C     0.78156   0.00998   0.08212   0.00000  Uiso   1.00
C416   C     0.71894   0.01153   0.91785   0.00000  Uiso   1.00
C417   C     0.51017   0.28154   0.08215   0.00000  Uiso   1.00
C418   C     0.51132   0.21890   0.91787   0.00000  Uiso   1.00
C419   C     0.96839   0.23986   0.58194   0.00000  Uiso   1.00
C420   C     0.53127   0.23881   0.41795   0.00000  Uiso   1.00
C421   C     0.74002   0.46830   0.58195   0.00000  Uiso   1.00
C422   C     0.73853   0.03114   0.41796   0.00000  Uiso   1.00
C423   C     0.53154   0.26018   0.58215   0.00000  Uiso   1.00
C424   C     0.98962   0.21850   0.04168   0.00000  Uiso   1.00
C425   C     0.96890   0.26131   0.41787   0.00000  Uiso   1.00
C426   C     0.75998   0.03156   0.58212   0.00000  Uiso   1.00
C427   C     0.76152   0.46894   0.41785   0.00000  Uiso   1.00
C428   C     0.74995   0.49996   0.02129   0.00000  Uiso   1.00
C429   C     0.74998   0.49996   0.97865   0.00000  Uiso   1.00
C430   C     0.50000   0.25002   0.02129   0.00000  Uiso   1.00
C431   C     0.50002   0.25005   0.97866   0.00000  Uiso   1.00
C432   C     0.50002   0.25001   0.52130   0.00000  Uiso   1.00
C433   C     0.50005   0.25002   0.47866   0.00000  Uiso   1.00
C434   C     0.74996   0.49995   0.52129   0.00000  Uiso   1.00
C435   C     0.98853   0.28116   0.95820   0.00000  Uiso   1.00
C436   C     0.74996   0.49998   0.47865   0.00000  Uiso   1.00
C437   C     0.75002   0.00003   0.35523   0.00000  Uiso   1.00
C438   C     0.75000   0.49997   0.64475   0.00000  Uiso   1.00
C439   C     0.50003   0.25001   0.35523   0.00000  Uiso   1.00
C440   C     0.99997   0.25000   0.64476   0.00000  Uiso   1.00
C441   C     0.50001   0.25003   0.85523   0.00000  Uiso   1.00
C442   C     0.50000   0.24997   0.14476   0.00000  Uiso   1.00
C443   C     0.75003   0.00002   0.85523   0.00000  Uiso   1.00
C444   C     0.74997  -0.00000   0.14475   0.00000  Uiso   1.00
C445   C     0.68021   0.07017   0.24962   0.00000  Uiso   1.00
C446   C     0.78150   0.01020   0.04188   0.00000  Uiso   1.00
C447   C     0.82017   0.43021   0.74961   0.00000  Uiso   1.00
C448   C     0.93025   0.17983   0.25015   0.00000  Uiso   1.00
C449   C     0.57000   0.31992   0.75020   0.00000  Uiso   1.00
C450   C     0.82017   0.43025   0.25043   0.00000  Uiso   1.00
C451   C     0.68025   0.07017   0.75043   0.00000  Uiso   1.00
C452   C     0.56993   0.32000   0.25019   0.00000  Uiso   1.00
C453   C     0.92983   0.18025   0.75016   0.00000  Uiso   1.00
C454   C     0.68000   0.43008   0.74980   0.00000  Uiso   1.00
C455   C     0.81975   0.07017   0.24984   0.00000  Uiso   1.00
C456   C     0.92982   0.31978   0.75040   0.00000  Uiso   1.00
C457   C     0.71899   0.01173   0.95810   0.00000  Uiso   1.00
C458   C     0.56978   0.17982   0.25040   0.00000  Uiso   1.00
C459   C     0.82017   0.06975   0.74984   0.00000  Uiso   1.00
C460   C     0.68007   0.43000   0.24980   0.00000  Uiso   1.00
C461   C     0.56976   0.17984   0.74958   0.00000  Uiso   1.00
C462   C     0.92984   0.31976   0.24958   0.00000  Uiso   1.00
C463   C     0.65365   0.37341   0.22239   0.00000  Uiso   1.00
C464   C     0.84157   0.13102   0.76982   0.00000  Uiso   1.00
C465   C     0.62063   0.14805   0.21734   0.00000  Uiso   1.00
C466   C     0.87924   0.35231   0.78290   0.00000  Uiso   1.00
C467   C     0.84142   0.13153   0.23055   0.00000  Uiso   1.00
C468   C     0.51040   0.28150   0.04190   0.00000  Uiso   1.00
C469   C     0.65395   0.37346   0.77733   0.00000  Uiso   1.00
C470   C     0.87621   0.34934   0.21922   0.00000  Uiso   1.00
C471   C     0.62364   0.15118   0.78035   0.00000  Uiso   1.00
C472   C     0.65061   0.12374   0.78084   0.00000  Uiso   1.00
C473   C     0.84879   0.37633   0.21970   0.00000  Uiso   1.00
C474   C     0.62652   0.34644   0.77770   0.00000  Uiso   1.00
C475   C     0.86899   0.15841   0.23015   0.00000  Uiso   1.00
C476   C     0.85192   0.37936   0.78267   0.00000  Uiso   1.00
C477   C     0.64768   0.12074   0.21711   0.00000  Uiso   1.00
C478   C     0.86846   0.15859   0.76943   0.00000  Uiso   1.00
C479   C     0.51155   0.21897   0.95811   0.00000  Uiso   1.00
C480   C     0.62664   0.34596   0.22278   0.00000  Uiso   1.00
C481   C     0.90841   0.11899   0.73015   0.00000  Uiso   1.00
C482   C     0.59631   0.37663   0.27755   0.00000  Uiso   1.00
C483   C     0.87081   0.39774   0.71715   0.00000  Uiso   1.00
C484   C     0.62941   0.10198   0.28271   0.00000  Uiso   1.00
C485   C     0.59608   0.37651   0.72262   0.00000  Uiso   1.00
C486   C     0.90859   0.11846   0.26944   0.00000  Uiso   1.00
C487   C     0.62632   0.09879   0.71970   0.00000  Uiso   1.00
C488   C     0.87374   0.40061   0.28084   0.00000  Uiso   1.00
C489   C     0.90117   0.37363   0.28036   0.00000  Uiso   1.00
C490   C     0.96850   0.23961   0.54168   0.00000  Uiso   1.00
C491   C     0.59934   0.12621   0.71922   0.00000  Uiso   1.00
C492   C     0.88102   0.09158   0.26983   0.00000  Uiso   1.00
C493   C     0.62352   0.40352   0.72224   0.00000  Uiso   1.00
C494   C     0.60237   0.12929   0.28294   0.00000  Uiso   1.00
C495   C     0.89811   0.37069   0.71737   0.00000  Uiso   1.00
C496   C     0.62333   0.40407   0.27718   0.00000  Uiso   1.00
C497   C     0.88153   0.09142   0.73055   0.00000  Uiso   1.00
C498   C     0.59836   0.34775   0.25049   0.00000  Uiso   1.00
C499   C     0.90158   0.15231   0.74952   0.00000  Uiso   1.00
C500   C     0.65168   0.09780   0.24965   0.00000  Uiso   1.00
H501   H     0.69388   0.48114   0.02657   0.00000  Uiso   1.00
H502   H     0.55528   0.22891   0.47329   0.00000  Uiso   1.00
H503   H     0.73112   0.44388   0.52657   0.00000  Uiso   1.00
H504   H     0.72842   0.05504   0.47330   0.00000  Uiso   1.00
H505   H     0.55596   0.26919   0.52695   0.00000  Uiso   1.00
H506   H     0.94485   0.27118   0.47312   0.00000  Uiso   1.00
H507   H     0.76882   0.05600   0.52690   0.00000  Uiso   1.00
H508   H     0.77152   0.44494   0.47311   0.00000  Uiso   1.00
H509   H     0.69366   0.48194   0.09705   0.00000  Uiso   1.00
H510   H     0.80532   0.47923   0.90281   0.00000  Uiso   1.00
H511   H     0.98165   0.19379   0.09702   0.00000  Uiso   1.00
H512   H     0.80504   0.47841   0.97330   0.00000  Uiso   1.00
H513   H     0.97969   0.30552   0.90280   0.00000  Uiso   1.00
H514   H     0.80620   0.01808   0.09734   0.00000  Uiso   1.00
H515   H     0.69477   0.02085   0.90262   0.00000  Uiso   1.00
H516   H     0.51840   0.30613   0.09739   0.00000  Uiso   1.00
H517   H     0.52044   0.19464   0.90266   0.00000  Uiso   1.00
H518   H     0.94380   0.23163   0.59702   0.00000  Uiso   1.00
H519   H     0.55553   0.22971   0.40280   0.00000  Uiso   1.00
H520   H     0.73192   0.44366   0.59705   0.00000  Uiso   1.00
H521   H     0.72924   0.05533   0.40281   0.00000  Uiso   1.00
H522   H     0.55612   0.26842   0.59739   0.00000  Uiso   1.00
H523   H     0.98085   0.19405   0.02655   0.00000  Uiso   1.00
H524   H     0.94464   0.27043   0.40266   0.00000  Uiso   1.00
H525   H     0.76809   0.05620   0.59734   0.00000  Uiso   1.00
H526   H     0.77083   0.44477   0.40262   0.00000  Uiso   1.00
H527   H     0.71682   0.39640   0.15566   0.00000  Uiso   1.00
H528   H     0.76740   0.11765   0.82592   0.00000  Uiso   1.00
H529   H     0.61085   0.17502   0.12463   0.00000  Uiso   1.00
H530   H     0.91258   0.30448   0.85844   0.00000  Uiso   1.00
H531   H     0.78382   0.15094   0.15717   0.00000  Uiso   1.00
H532   H     0.69739   0.36827   0.86326   0.00000  Uiso   1.00
H533   H     0.90472   0.29447   0.14677   0.00000  Uiso   1.00
H534   H     0.97888   0.30527   0.97329   0.00000  Uiso   1.00
H535   H     0.62116   0.18717   0.87021   0.00000  Uiso   1.00
H536   H     0.70522   0.09506   0.85344   0.00000  Uiso   1.00
H537   H     0.81267   0.37854   0.12989   0.00000  Uiso   1.00
H538   H     0.60345   0.28328   0.84443   0.00000  Uiso   1.00
H539   H     0.88239   0.23247   0.17392   0.00000  Uiso   1.00
H540   H     0.82497   0.38934   0.87535   0.00000  Uiso   1.00
H541   H     0.69550   0.08740   0.14157   0.00000  Uiso   1.00
H542   H     0.84898   0.21622   0.84277   0.00000  Uiso   1.00
H543   H     0.63200   0.30222   0.13703   0.00000  Uiso   1.00
H544   H     0.98247   0.13239   0.67392   0.00000  Uiso   1.00
H545   H     0.80601   0.01881   0.02690   0.00000  Uiso   1.00
H546   H     0.53294   0.35377   0.34412   0.00000  Uiso   1.00
H547   H     0.83758   0.44579   0.64171   0.00000  Uiso   1.00
H548   H     0.63952   0.07516   0.37542   0.00000  Uiso   1.00
H549   H     0.55273   0.38150   0.63663   0.00000  Uiso   1.00
H550   H     0.96621   0.09899   0.34278   0.00000  Uiso   1.00
H551   H     0.62852   0.06266   0.62989   0.00000  Uiso   1.00
H552   H     0.84507   0.45526   0.35342   0.00000  Uiso   1.00
H553   H     0.93716   0.37114   0.37022   0.00000  Uiso   1.00
H554   H     0.54447   0.15471   0.64677   0.00000  Uiso   1.00
H555   H     0.86765   0.01741   0.32593   0.00000  Uiso   1.00
H556   H     0.69494   0.02154   0.97311   0.00000  Uiso   1.00
H557   H     0.64673   0.46646   0.65534   0.00000  Uiso   1.00
H558   H     0.55474   0.16274   0.35857   0.00000  Uiso   1.00
H559   H     0.92521   0.36103   0.62470   0.00000  Uiso   1.00
H560   H     0.61778   0.44790   0.36286   0.00000  Uiso   1.00
H561   H     0.90095   0.03381   0.65719   0.00000  Uiso   1.00
H562   H     0.51917   0.30597   0.02695   0.00000  Uiso   1.00
H563   H     0.52119   0.19485   0.97312   0.00000  Uiso   1.00
H564   H     0.94406   0.23083   0.52655   0.00000  Uiso   1.00
O565   O     0.75000   0.00000   0.25000   0.00000  Uiso   1.00
O566   O     0.75000   0.46964   0.66317   0.00000  Uiso   1.00
O567   O     0.84176   0.43537   0.33324   0.00000  Uiso   1.00
O568   O     0.96083   0.36783   0.30562   0.00000  Uiso   1.00
O569   O     0.91629   0.37307   0.35097   0.00000  Uiso   1.00
O570   O     0.55301   0.09870   0.68189   0.00000  Uiso   1.00
O571   O     0.56441   0.15808   0.66689   0.00000  Uiso   1.00
O572   O     0.91550   0.03892   0.28430   0.00000  Uiso   1.00
O573   O     0.86033   0.04172   0.31423   0.00000  Uiso   1.00
O574   O     0.59275   0.45214   0.69176   0.00000  Uiso   1.00
O575   O     0.65167   0.44467   0.67267   0.00000  Uiso   1.00
O576   O     0.55777   0.10538   0.32469   0.00000  Uiso   1.00
O577   O     0.96964   0.25000   0.33683   0.00000  Uiso   1.00
O578   O     0.57344   0.16441   0.33702   0.00000  Uiso   1.00
O579   O     0.95492   0.36159   0.68663   0.00000  Uiso   1.00
O580   O     0.90634   0.36480   0.64579   0.00000  Uiso   1.00
O581   O     0.62692   0.46572   0.29681   0.00000  Uiso   1.00
O582   O     0.61761   0.42539   0.34568   0.00000  Uiso   1.00
O583   O     0.88216   0.02728   0.72329   0.00000  Uiso   1.00
O584   O     0.89804   0.05888   0.66939   0.00000  Uiso   1.00
O585   O     0.53036   0.25000   0.66317   0.00000  Uiso   1.00
O586   O     0.50000   0.21964   0.83683   0.00000  Uiso   1.00
O587   O     0.50000   0.28036   0.16317   0.00000  Uiso   1.00
O588   O     0.78036   0.00000   0.83683   0.00000  Uiso   1.00
O589   O     0.71964   0.00000   0.16317   0.00000  Uiso   1.00
O590   O     0.50000   0.28036   0.83683   0.00000  Uiso   1.00
O591   O     0.50000   0.21964   0.16317   0.00000  Uiso   1.00
O592   O     0.71964   0.00000   0.83683   0.00000  Uiso   1.00
O593   O     0.75000   0.00000   0.75000   0.00000  Uiso   1.00
O594   O     0.78036   0.00000   0.16317   0.00000  Uiso   1.00
O595   O     0.70726   0.07307   0.27282   0.00000  Uiso   1.00
O596   O     0.79275   0.42693   0.72718   0.00000  Uiso   1.00
O597   O     0.92693   0.20726   0.27282   0.00000  Uiso   1.00
O598   O     0.57307   0.29274   0.72718   0.00000  Uiso   1.00
O599   O     0.79275   0.42693   0.27282   0.00000  Uiso   1.00
O600   O     0.70726   0.07307   0.72718   0.00000  Uiso   1.00
O601   O     0.57307   0.29274   0.27282   0.00000  Uiso   1.00
O602   O     0.92693   0.20726   0.72718   0.00000  Uiso   1.00
O603   O     0.70726   0.42693   0.72718   0.00000  Uiso   1.00
O604   O     0.50000   0.25000   0.25000   0.00000  Uiso   1.00
O605   O     0.79275   0.07307   0.27282   0.00000  Uiso   1.00
O606   O     0.92693   0.29275   0.72718   0.00000  Uiso   1.00
O607   O     0.57307   0.20725   0.27282   0.00000  Uiso   1.00
O608   O     0.79275   0.07307   0.72718   0.00000  Uiso   1.00
O609   O     0.70726   0.42693   0.27282   0.00000  Uiso   1.00
O610   O     0.57307   0.20725   0.72718   0.00000  Uiso   1.00
O611   O     0.92693   0.29275   0.27282   0.00000  Uiso   1.00
O612   O     0.95726   0.32307   0.77282   0.00000  Uiso   1.00
O613   O     0.54275   0.17693   0.22718   0.00000  Uiso   1.00
O614   O     0.67693   0.45725   0.77282   0.00000  Uiso   1.00
O615   O     0.50000   0.25000   0.75000   0.00000  Uiso   1.00
O616   O     0.82307   0.04275   0.22718   0.00000  Uiso   1.00
O617   O     0.54275   0.17693   0.77282   0.00000  Uiso   1.00
O618   O     0.95726   0.32307   0.22718   0.00000  Uiso   1.00
O619   O     0.82307   0.04275   0.77282   0.00000  Uiso   1.00
O620   O     0.67693   0.45725   0.22718   0.00000  Uiso   1.00
O621   O     0.95726   0.17693   0.22718   0.00000  Uiso   1.00
O622   O     0.54275   0.32307   0.77282   0.00000  Uiso   1.00
O623   O     0.67693   0.04275   0.22718   0.00000  Uiso   1.00
O624   O     0.82307   0.45725   0.77282   0.00000  Uiso   1.00
O625   O     0.54275   0.32307   0.22718   0.00000  Uiso   1.00
O626   O     0.75000   0.46964   0.33683   0.00000  Uiso   1.00
O627   O     0.95726   0.17693   0.77282   0.00000  Uiso   1.00
O628   O     0.82307   0.45725   0.22718   0.00000  Uiso   1.00
O629   O     0.67693   0.04275   0.77282   0.00000  Uiso   1.00
O630   O     0.70239   0.34254   0.19223   0.00000  Uiso   1.00
O631   O     0.69497   0.40139   0.17289   0.00000  Uiso   1.00
O632   O     0.78892   0.16550   0.78430   0.00000  Uiso   1.00
O633   O     0.79172   0.11033   0.81423   0.00000  Uiso   1.00
O634   O     0.61151   0.20482   0.18652   0.00000  Uiso   1.00
O635   O     0.61465   0.15618   0.14574   0.00000  Uiso   1.00
O636   O     0.85522   0.30770   0.82458   0.00000  Uiso   1.00
O637   O     0.75000   0.03036   0.66317   0.00000  Uiso   1.00
O638   O     0.91429   0.32320   0.83692   0.00000  Uiso   1.00
O639   O     0.77729   0.13216   0.22327   0.00000  Uiso   1.00
O640   O     0.80889   0.14804   0.16938   0.00000  Uiso   1.00
O641   O     0.71550   0.37719   0.79726   0.00000  Uiso   1.00
O642   O     0.67496   0.36801   0.84596   0.00000  Uiso   1.00
O643   O     0.84870   0.30302   0.18188   0.00000  Uiso   1.00
O644   O     0.90808   0.31441   0.16689   0.00000  Uiso   1.00
O645   O     0.61783   0.21084   0.80561   0.00000  Uiso   1.00
O646   O     0.62309   0.16630   0.85096   0.00000  Uiso   1.00
O647   O     0.69688   0.15113   0.81835   0.00000  Uiso   1.00
O648   O     0.53036   0.25000   0.33683   0.00000  Uiso   1.00
O649   O     0.68533   0.09175   0.83326   0.00000  Uiso   1.00
O650   O     0.78910   0.38215   0.19451   0.00000  Uiso   1.00
O651   O     0.83356   0.37668   0.14911   0.00000  Uiso   1.00
O652   O     0.65738   0.29778   0.80802   0.00000  Uiso   1.00
O653   O     0.59847   0.30512   0.82717   0.00000  Uiso   1.00
O654   O     0.83455   0.21107   0.21561   0.00000  Uiso   1.00
O655   O     0.88970   0.20818   0.18567   0.00000  Uiso   1.00
O656   O     0.79515   0.38843   0.81348   0.00000  Uiso   1.00
O657   O     0.84380   0.38547   0.85425   0.00000  Uiso   1.00
O658   O     0.69234   0.14473   0.17549   0.00000  Uiso   1.00
O659   O     0.96964   0.25000   0.66317   0.00000  Uiso   1.00
O660   O     0.67675   0.08570   0.16306   0.00000  Uiso   1.00
O661   O     0.86785   0.22273   0.77669   0.00000  Uiso   1.00
O662   O     0.85189   0.19114   0.83058   0.00000  Uiso   1.00
O663   O     0.62307   0.28432   0.20310   0.00000  Uiso   1.00
O664   O     0.63221   0.32471   0.15424   0.00000  Uiso   1.00
O665   O     0.96107   0.08455   0.71562   0.00000  Uiso   1.00
O666   O     0.95818   0.13970   0.68567   0.00000  Uiso   1.00
O667   O     0.54754   0.40759   0.30756   0.00000  Uiso   1.00
O668   O     0.55483   0.34874   0.32696   0.00000  Uiso   1.00
O669   O     0.89491   0.44241   0.67560   0.00000  Uiso   1.00
O670   O     0.75000   0.03036   0.33683   0.00000  Uiso   1.00
O671   O     0.83583   0.42701   0.66317   0.00000  Uiso   1.00
O672   O     0.63852   0.04525   0.31360   0.00000  Uiso   1.00
O673   O     0.63562   0.09396   0.35429   0.00000  Uiso   1.00
O674   O     0.53454   0.37280   0.70264   0.00000  Uiso   1.00
O675   O     0.57514   0.38180   0.65396   0.00000  Uiso   1.00
O676   O     0.97273   0.11785   0.27670   0.00000  Uiso   1.00
O677   O     0.94114   0.10190   0.33058   0.00000  Uiso   1.00
O678   O     0.63216   0.03909   0.69451   0.00000  Uiso   1.00
O679   O     0.62666   0.08356   0.64911   0.00000  Uiso   1.00
O680   O     0.90115   0.44687   0.31836   0.00000  Uiso   1.00
Zn681  Zn    0.70660   0.00000   0.21760   0.00000  Uiso   1.00
Zn682  Zn    0.54340   0.25000   0.28240   0.00000  Uiso   1.00
Zn683  Zn    0.75000   0.45660   0.71760   0.00000  Uiso   1.00
Zn684  Zn    0.75000   0.04340   0.28240   0.00000  Uiso   1.00
Zn685  Zn    0.54340   0.25000   0.71760   0.00000  Uiso   1.00
Zn686  Zn    0.95660   0.25000   0.28240   0.00000  Uiso   1.00
Zn687  Zn    0.75000   0.04340   0.71760   0.00000  Uiso   1.00
Zn688  Zn    0.75000   0.45660   0.28240   0.00000  Uiso   1.00
Zn689  Zn    0.79340   0.00000   0.78240   0.00000  Uiso   1.00
Zn690  Zn    0.50000   0.20660   0.21760   0.00000  Uiso   1.00
Zn691  Zn    0.50000   0.29340   0.78240   0.00000  Uiso   1.00
Zn692  Zn    0.79340   0.00000   0.21760   0.00000  Uiso   1.00
Zn693  Zn    0.70660   0.00000   0.78240   0.00000  Uiso   1.00
Zn694  Zn    0.50000   0.29340   0.21760   0.00000  Uiso   1.00
Zn695  Zn    0.50000   0.20660   0.78240   0.00000  Uiso   1.00
Zn696  Zn    0.95660   0.25000   0.71760   0.00000  Uiso   1.00
C697   C     0.21838   0.98977   0.04169   0.00000  Uiso   1.00
C698   C     0.03117   0.73854   0.45820   0.00000  Uiso   1.00
C699   C     0.34780   0.90169   0.74965   0.00000  Uiso   1.00
C700   C     0.40231   0.65158   0.24951   0.00000  Uiso   1.00
C701   C     0.09776   0.84836   0.75049   0.00000  Uiso   1.00
C702   C     0.34779   0.90168   0.25054   0.00000  Uiso   1.00
C703   C     0.15168   0.59779   0.75054   0.00000  Uiso   1.00
C704   C     0.09831   0.65220   0.74948   0.00000  Uiso   1.00
C705   C     0.40220   0.84831   0.24948   0.00000  Uiso   1.00
C706   C     0.15225   0.90163   0.74949   0.00000  Uiso   1.00
C707   C     0.34770   0.59842   0.25048   0.00000  Uiso   1.00
C708   C     0.40220   0.84833   0.75038   0.00000  Uiso   1.00
C709   C     0.23975   0.96838   0.54169   0.00000  Uiso   1.00
C710   C     0.09833   0.65220   0.25037   0.00000  Uiso   1.00
C711   C     0.34842   0.59770   0.75048   0.00000  Uiso   1.00
C712   C     0.15163   0.90226   0.24949   0.00000  Uiso   1.00
C713   C     0.24993   0.50001   0.10241   0.00000  Uiso   1.00
C714   C     0.25005   0.50004   0.89755   0.00000  Uiso   1.00
C715   C     0.00002   0.74995   0.10241   0.00000  Uiso   1.00
C716   C     0.00005   0.75008   0.89755   0.00000  Uiso   1.00
C717   C     0.49995   0.75002   0.60241   0.00000  Uiso   1.00
C718   C     0.00008   0.75005   0.39755   0.00000  Uiso   1.00
C719   C     0.25001   0.99993   0.60241   0.00000  Uiso   1.00
C720   C     0.23824   0.53101   0.45821   0.00000  Uiso   1.00
C721   C     0.25004   0.50005   0.39755   0.00000  Uiso   1.00
C722   C     0.18512   0.87105   0.19512   0.00000  Uiso   1.00
C723   C     0.30588   0.63713   0.78963   0.00000  Uiso   1.00
C724   C     0.11530   0.67178   0.18271   0.00000  Uiso   1.00
C725   C     0.38181   0.82621   0.81579   0.00000  Uiso   1.00
C726   C     0.30704   0.63705   0.20804   0.00000  Uiso   1.00
C727   C     0.18363   0.87309   0.80696   0.00000  Uiso   1.00
C728   C     0.37641   0.82076   0.18845   0.00000  Uiso   1.00
C729   C     0.12131   0.67824   0.81261   0.00000  Uiso   1.00
C730   C     0.17911   0.62346   0.81170   0.00000  Uiso   1.00
C731   C     0.03150   0.76042   0.54190   0.00000  Uiso   1.00
C732   C     0.32168   0.87860   0.18748   0.00000  Uiso   1.00
C733   C     0.12885   0.81500   0.80502   0.00000  Uiso   1.00
C734   C     0.36291   0.69407   0.21029   0.00000  Uiso   1.00
C735   C     0.32819   0.88470   0.81729   0.00000  Uiso   1.00
C736   C     0.17379   0.61817   0.18423   0.00000  Uiso   1.00
C737   C     0.36293   0.69298   0.79193   0.00000  Uiso   1.00
C738   C     0.12712   0.81618   0.19327   0.00000  Uiso   1.00
C739   C     0.44407   0.61290   0.71030   0.00000  Uiso   1.00
C740   C     0.06478   0.87905   0.30474   0.00000  Uiso   1.00
C741   C     0.36830   0.92391   0.68431   0.00000  Uiso   1.00
C742   C     0.46897   0.76155   0.45811   0.00000  Uiso   1.00
C743   C     0.13480   0.57830   0.31736   0.00000  Uiso   1.00
C744   C     0.06644   0.87684   0.69296   0.00000  Uiso   1.00
C745   C     0.44297   0.61293   0.29193   0.00000  Uiso   1.00
C746   C     0.12860   0.57167   0.68748   0.00000  Uiso   1.00
C747   C     0.37347   0.92911   0.31169   0.00000  Uiso   1.00
C748   C     0.42824   0.87130   0.31261   0.00000  Uiso   1.00
C749   C     0.07076   0.62641   0.68846   0.00000  Uiso   1.00
C750   C     0.38713   0.55589   0.28964   0.00000  Uiso   1.00
C751   C     0.12125   0.93489   0.69483   0.00000  Uiso   1.00
C752   C     0.07632   0.63192   0.31588   0.00000  Uiso   1.00
C753   C     0.26020   0.53150   0.54188   0.00000  Uiso   1.00
C754   C     0.42189   0.86540   0.68278   0.00000  Uiso   1.00
C755   C     0.12282   0.93388   0.30665   0.00000  Uiso   1.00
C756   C     0.38705   0.55704   0.70805   0.00000  Uiso   1.00
C757   C     0.26172   0.96899   0.45810   0.00000  Uiso   1.00
C758   C     0.21830   0.99003   0.08195   0.00000  Uiso   1.00
C759   C     0.28113   0.98852   0.91796   0.00000  Uiso   1.00
C760   C     0.48987   0.71839   0.08194   0.00000  Uiso   1.00
C761   C     0.28101   0.98824   0.95821   0.00000  Uiso   1.00
C762   C     0.48879   0.78126   0.91795   0.00000  Uiso   1.00
C763   C     0.28156   0.50998   0.08212   0.00000  Uiso   1.00
C764   C     0.21894   0.51153   0.91785   0.00000  Uiso   1.00
C765   C     0.01017   0.78154   0.08215   0.00000  Uiso   1.00
C766   C     0.01132   0.71890   0.91787   0.00000  Uiso   1.00
C767   C     0.46839   0.73986   0.58194   0.00000  Uiso   1.00
C768   C     0.03127   0.73881   0.41795   0.00000  Uiso   1.00
C769   C     0.24002   0.96830   0.58195   0.00000  Uiso   1.00
C770   C     0.23853   0.53114   0.41796   0.00000  Uiso   1.00
C771   C     0.03154   0.76018   0.58215   0.00000  Uiso   1.00
C772   C     0.48962   0.71850   0.04168   0.00000  Uiso   1.00
C773   C     0.46890   0.76131   0.41787   0.00000  Uiso   1.00
C774   C     0.25998   0.53156   0.58212   0.00000  Uiso   1.00
C775   C     0.26152   0.96894   0.41785   0.00000  Uiso   1.00
C776   C     0.24995   0.99996   0.02129   0.00000  Uiso   1.00
C777   C     0.24998   0.99996   0.97865   0.00000  Uiso   1.00
C778   C     0.00000   0.75002   0.02129   0.00000  Uiso   1.00
C779   C     0.00002   0.75005   0.97866   0.00000  Uiso   1.00
C780   C     0.00002   0.75001   0.52130   0.00000  Uiso   1.00
C781   C     0.00005   0.75002   0.47866   0.00000  Uiso   1.00
C782   C     0.24996   0.99995   0.52129   0.00000  Uiso   1.00
C783   C     0.48853   0.78116   0.95820   0.00000  Uiso   1.00
C784   C     0.24996   0.99998   0.47865   0.00000  Uiso   1.00
C785   C     0.25002   0.50003   0.35523   0.00000  Uiso   1.00
C786   C     0.25000   0.99997   0.64475   0.00000  Uiso   1.00
C787   C     0.00003   0.75001   0.35523   0.00000  Uiso   1.00
C788   C     0.49997   0.75000   0.64476   0.00000  Uiso   1.00
C789   C     0.00001   0.75003   0.85523   0.00000  Uiso   1.00
C790   C    -0.00000   0.74997   0.14476   0.00000  Uiso   1.00
C791   C     0.25003   0.50002   0.85523   0.00000  Uiso   1.00
C792   C     0.24997   0.50000   0.14475   0.00000  Uiso   1.00
C793   C     0.18021   0.57017   0.24962   0.00000  Uiso   1.00
C794   C     0.28150   0.51020   0.04188   0.00000  Uiso   1.00
C795   C     0.32017   0.93021   0.74961   0.00000  Uiso   1.00
C796   C     0.43025   0.67983   0.25015   0.00000  Uiso   1.00
C797   C     0.07000   0.81992   0.75020   0.00000  Uiso   1.00
C798   C     0.32017   0.93025   0.25043   0.00000  Uiso   1.00
C799   C     0.18025   0.57017   0.75043   0.00000  Uiso   1.00
C800   C     0.06993   0.82000   0.25019   0.00000  Uiso   1.00
C801   C     0.42983   0.68025   0.75016   0.00000  Uiso   1.00
C802   C     0.18000   0.93008   0.74980   0.00000  Uiso   1.00
C803   C     0.31975   0.57017   0.24984   0.00000  Uiso   1.00
C804   C     0.42982   0.81978   0.75040   0.00000  Uiso   1.00
C805   C     0.21899   0.51173   0.95810   0.00000  Uiso   1.00
C806   C     0.06978   0.67982   0.25040   0.00000  Uiso   1.00
C807   C     0.32017   0.56975   0.74984   0.00000  Uiso   1.00
C808   C     0.18007   0.93000   0.24980   0.00000  Uiso   1.00
C809   C     0.06976   0.67984   0.74958   0.00000  Uiso   1.00
C810   C     0.42984   0.81976   0.24958   0.00000  Uiso   1.00
C811   C     0.15365   0.87341   0.22239   0.00000  Uiso   1.00
C812   C     0.34157   0.63102   0.76982   0.00000  Uiso   1.00
C813   C     0.12063   0.64805   0.21734   0.00000  Uiso   1.00
C814   C     0.37924   0.85231   0.78290   0.00000  Uiso   1.00
C815   C     0.34142   0.63153   0.23055   0.00000  Uiso   1.00
C816   C     0.01040   0.78150   0.04190   0.00000  Uiso   1.00
C817   C     0.15395   0.87346   0.77733   0.00000  Uiso   1.00
C818   C     0.37621   0.84934   0.21922   0.00000  Uiso   1.00
C819   C     0.12364   0.65118   0.78035   0.00000  Uiso   1.00
C820   C     0.15061   0.62374   0.78084   0.00000  Uiso   1.00
C821   C     0.34879   0.87633   0.21970   0.00000  Uiso   1.00
C822   C     0.12652   0.84644   0.77770   0.00000  Uiso   1.00
C823   C     0.36899   0.65841   0.23015   0.00000  Uiso   1.00
C824   C     0.35192   0.87936   0.78267   0.00000  Uiso   1.00
C825   C     0.14768   0.62074   0.21711   0.00000  Uiso   1.00
C826   C     0.36846   0.65859   0.76943   0.00000  Uiso   1.00
C827   C     0.01155   0.71897   0.95811   0.00000  Uiso   1.00
C828   C     0.12664   0.84596   0.22278   0.00000  Uiso   1.00
C829   C     0.40841   0.61899   0.73015   0.00000  Uiso   1.00
C830   C     0.09631   0.87663   0.27755   0.00000  Uiso   1.00
C831   C     0.37081   0.89774   0.71715   0.00000  Uiso   1.00
C832   C     0.12941   0.60198   0.28271   0.00000  Uiso   1.00
C833   C     0.09608   0.87651   0.72262   0.00000  Uiso   1.00
C834   C     0.40859   0.61846   0.26944   0.00000  Uiso   1.00
C835   C     0.12632   0.59879   0.71970   0.00000  Uiso   1.00
C836   C     0.37374   0.90061   0.28084   0.00000  Uiso   1.00
C837   C     0.40117   0.87363   0.28036   0.00000  Uiso   1.00
C838   C     0.46850   0.73961   0.54168   0.00000  Uiso   1.00
C839   C     0.09934   0.62621   0.71922   0.00000  Uiso   1.00
C840   C     0.38102   0.59158   0.26983   0.00000  Uiso   1.00
C841   C     0.12352   0.90352   0.72224   0.00000  Uiso   1.00
C842   C     0.10237   0.62929   0.28294   0.00000  Uiso   1.00
C843   C     0.39811   0.87069   0.71737   0.00000  Uiso   1.00
C844   C     0.12333   0.90407   0.27718   0.00000  Uiso   1.00
C845   C     0.38153   0.59142   0.73055   0.00000  Uiso   1.00
C846   C     0.09836   0.84775   0.25049   0.00000  Uiso   1.00
C847   C     0.40158   0.65231   0.74952   0.00000  Uiso   1.00
C848   C     0.15168   0.59780   0.24965   0.00000  Uiso   1.00
H849   H     0.19388   0.98114   0.02657   0.00000  Uiso   1.00
H850   H     0.05528   0.72891   0.47329   0.00000  Uiso   1.00
H851   H     0.23112   0.94388   0.52657   0.00000  Uiso   1.00
H852   H     0.22842   0.55504   0.47330   0.00000  Uiso   1.00
H853   H     0.05596   0.76919   0.52695   0.00000  Uiso   1.00
H854   H     0.44485   0.77118   0.47312   0.00000  Uiso   1.00
H855   H     0.26882   0.55600   0.52690   0.00000  Uiso   1.00
H856   H     0.27152   0.94494   0.47311   0.00000  Uiso   1.00
H857   H     0.19366   0.98194   0.09705   0.00000  Uiso   1.00
H858   H     0.30532   0.97923   0.90281   0.00000  Uiso   1.00
H859   H     0.48165   0.69379   0.09702   0.00000  Uiso   1.00
H860   H     0.30504   0.97841   0.97330   0.00000  Uiso   1.00
H861   H     0.47969   0.80552   0.90280   0.00000  Uiso   1.00
H862   H     0.30620   0.51808   0.09734   0.00000  Uiso   1.00
H863   H     0.19477   0.52085   0.90262   0.00000  Uiso   1.00
H864   H     0.01840   0.80613   0.09739   0.00000  Uiso   1.00
H865   H     0.02044   0.69464   0.90266   0.00000  Uiso   1.00
H866   H     0.44380   0.73163   0.59702   0.00000  Uiso   1.00
H867   H     0.05553   0.72971   0.40280   0.00000  Uiso   1.00
H868   H     0.23192   0.94366   0.59705   0.00000  Uiso   1.00
H869   H     0.22924   0.55533   0.40281   0.00000  Uiso   1.00
H870   H     0.05612   0.76842   0.59739   0.00000  Uiso   1.00
H871   H     0.48085   0.69405   0.02655   0.00000  Uiso   1.00
H872   H     0.44464   0.77043   0.40266   0.00000  Uiso   1.00
H873   H     0.26809   0.55620   0.59734   0.00000  Uiso   1.00
H874   H     0.27083   0.94477   0.40262   0.00000  Uiso   1.00
H875   H     0.21682   0.89640   0.15566   0.00000  Uiso   1.00
H876   H     0.26740   0.61765   0.82592   0.00000  Uiso   1.00
H877   H     0.11085   0.67502   0.12463   0.00000  Uiso   1.00
H878   H     0.41258   0.80448   0.85844   0.00000  Uiso   1.00
H879   H     0.28382   0.65094   0.15717   0.00000  Uiso   1.00
H880   H     0.19739   0.86827   0.86326   0.00000  Uiso   1.00
H881   H     0.40472   0.79447   0.14677   0.00000  Uiso   1.00
H882   H     0.47888   0.80527   0.97329   0.00000  Uiso   1.00
H883   H     0.12116   0.68717   0.87021   0.00000  Uiso   1.00
H884   H     0.20522   0.59506   0.85344   0.00000  Uiso   1.00
H885   H     0.31267   0.87854   0.12989   0.00000  Uiso   1.00
H886   H     0.10345   0.78328   0.84443   0.00000  Uiso   1.00
H887   H     0.38239   0.73247   0.17392   0.00000  Uiso   1.00
H888   H     0.32497   0.88934   0.87535   0.00000  Uiso   1.00
H889   H     0.19550   0.58740   0.14157   0.00000  Uiso   1.00
H890   H     0.34898   0.71622   0.84277   0.00000  Uiso   1.00
H891   H     0.13200   0.80222   0.13703   0.00000  Uiso   1.00
H892   H     0.48247   0.63239   0.67392   0.00000  Uiso   1.00
H893   H     0.30601   0.51881   0.02690   0.00000  Uiso   1.00
H894   H     0.03294   0.85377   0.34412   0.00000  Uiso   1.00
H895   H     0.33758   0.94579   0.64171   0.00000  Uiso   1.00
H896   H     0.13952   0.57516   0.37542   0.00000  Uiso   1.00
H897   H     0.05273   0.88150   0.63663   0.00000  Uiso   1.00
H898   H     0.46621   0.59899   0.34278   0.00000  Uiso   1.00
H899   H     0.12852   0.56266   0.62989   0.00000  Uiso   1.00
H900   H     0.34507   0.95526   0.35342   0.00000  Uiso   1.00
H901   H     0.43716   0.87114   0.37022   0.00000  Uiso   1.00
H902   H     0.04447   0.65471   0.64677   0.00000  Uiso   1.00
H903   H     0.36765   0.51741   0.32593   0.00000  Uiso   1.00
H904   H     0.19494   0.52154   0.97311   0.00000  Uiso   1.00
H905   H     0.14673   0.96646   0.65534   0.00000  Uiso   1.00
H906   H     0.05474   0.66274   0.35857   0.00000  Uiso   1.00
H907   H     0.42521   0.86103   0.62470   0.00000  Uiso   1.00
H908   H     0.11778   0.94790   0.36286   0.00000  Uiso   1.00
H909   H     0.40095   0.53381   0.65719   0.00000  Uiso   1.00
H910   H     0.01917   0.80597   0.02695   0.00000  Uiso   1.00
H911   H     0.02119   0.69485   0.97312   0.00000  Uiso   1.00
H912   H     0.44406   0.73083   0.52655   0.00000  Uiso   1.00
O913   O     0.25000   0.50000   0.25000   0.00000  Uiso   1.00
O914   O     0.25000   0.96964   0.66317   0.00000  Uiso   1.00
O915   O     0.34176   0.93537   0.33324   0.00000  Uiso   1.00
O916   O     0.46083   0.86783   0.30562   0.00000  Uiso   1.00
O917   O     0.41629   0.87307   0.35097   0.00000  Uiso   1.00
O918   O     0.05301   0.59870   0.68189   0.00000  Uiso   1.00
O919   O     0.06441   0.65808   0.66689   0.00000  Uiso   1.00
O920   O     0.41550   0.53892   0.28430   0.00000  Uiso   1.00
O921   O     0.36033   0.54172   0.31423   0.00000  Uiso   1.00
O922   O     0.09275   0.95214   0.69176   0.00000  Uiso   1.00
O923   O     0.15167   0.94467   0.67267   0.00000  Uiso   1.00
O924   O     0.05777   0.60538   0.32469   0.00000  Uiso   1.00
O925   O     0.46964   0.75000   0.33683   0.00000  Uiso   1.00
O926   O     0.07344   0.66441   0.33702   0.00000  Uiso   1.00
O927   O     0.45492   0.86159   0.68663   0.00000  Uiso   1.00
O928   O     0.40634   0.86480   0.64579   0.00000  Uiso   1.00
O929   O     0.12692   0.96572   0.29681   0.00000  Uiso   1.00
O930   O     0.11761   0.92539   0.34568   0.00000  Uiso   1.00
O931   O     0.38216   0.52728   0.72329   0.00000  Uiso   1.00
O932   O     0.39804   0.55888   0.66939   0.00000  Uiso   1.00
O933   O     0.03036   0.75000   0.66317   0.00000  Uiso   1.00
O934   O     0.00000   0.71964   0.83683   0.00000  Uiso   1.00
O935   O     0.00000   0.78036   0.16317   0.00000  Uiso   1.00
O936   O     0.28036   0.50000   0.83683   0.00000  Uiso   1.00
O937   O     0.21964   0.50000   0.16317   0.00000  Uiso   1.00
O938   O     0.00000   0.78036   0.83683   0.00000  Uiso   1.00
O939   O     0.00000   0.71964   0.16317   0.00000  Uiso   1.00
O940   O     0.21964   0.50000   0.83683   0.00000  Uiso   1.00
O941   O     0.25000   0.50000   0.75000   0.00000  Uiso   1.00
O942   O     0.28036   0.50000   0.16317   0.00000  Uiso   1.00
O943   O     0.20726   0.57307   0.27282   0.00000  Uiso   1.00
O944   O     0.29275   0.92693   0.72718   0.00000  Uiso   1.00
O945   O     0.42693   0.70726   0.27282   0.00000  Uiso   1.00
O946   O     0.07307   0.79274   0.72718   0.00000  Uiso   1.00
O947   O     0.29275   0.92693   0.27282   0.00000  Uiso   1.00
O948   O     0.20726   0.57307   0.72718   0.00000  Uiso   1.00
O949   O     0.07307   0.79274   0.27282   0.00000  Uiso   1.00
O950   O     0.42693   0.70726   0.72718   0.00000  Uiso   1.00
O951   O     0.20726   0.92693   0.72718   0.00000  Uiso   1.00
O952   O     0.00000   0.75000   0.25000   0.00000  Uiso   1.00
O953   O     0.29275   0.57307   0.27282   0.00000  Uiso   1.00
O954   O     0.42693   0.79275   0.72718   0.00000  Uiso   1.00
O955   O     0.07307   0.70725   0.27282   0.00000  Uiso   1.00
O956   O     0.29275   0.57307   0.72718   0.00000  Uiso   1.00
O957   O     0.20726   0.92693   0.27282   0.00000  Uiso   1.00
O958   O     0.07307   0.70725   0.72718   0.00000  Uiso   1.00
O959   O     0.42693   0.79275   0.27282   0.00000  Uiso   1.00
O960   O     0.45726   0.82307   0.77282   0.00000  Uiso   1.00
O961   O     0.04275   0.67693   0.22718   0.00000  Uiso   1.00
O962   O     0.17693   0.95725   0.77282   0.00000  Uiso   1.00
O963   O     0.00000   0.75000   0.75000   0.00000  Uiso   1.00
O964   O     0.32307   0.54275   0.22718   0.00000  Uiso   1.00
O965   O     0.04275   0.67693   0.77282   0.00000  Uiso   1.00
O966   O     0.45726   0.82307   0.22718   0.00000  Uiso   1.00
O967   O     0.32307   0.54275   0.77282   0.00000  Uiso   1.00
O968   O     0.17693   0.95725   0.22718   0.00000  Uiso   1.00
O969   O     0.45726   0.67693   0.22718   0.00000  Uiso   1.00
O970   O     0.04275   0.82307   0.77282   0.00000  Uiso   1.00
O971   O     0.17693   0.54275   0.22718   0.00000  Uiso   1.00
O972   O     0.32307   0.95725   0.77282   0.00000  Uiso   1.00
O973   O     0.04275   0.82307   0.22718   0.00000  Uiso   1.00
O974   O     0.25000   0.96964   0.33683   0.00000  Uiso   1.00
O975   O     0.45726   0.67693   0.77282   0.00000  Uiso   1.00
O976   O     0.32307   0.95725   0.22718   0.00000  Uiso   1.00
O977   O     0.17693   0.54275   0.77282   0.00000  Uiso   1.00
O978   O     0.20239   0.84254   0.19223   0.00000  Uiso   1.00
O979   O     0.19497   0.90139   0.17289   0.00000  Uiso   1.00
O980   O     0.28892   0.66550   0.78430   0.00000  Uiso   1.00
O981   O     0.29172   0.61033   0.81423   0.00000  Uiso   1.00
O982   O     0.11151   0.70482   0.18652   0.00000  Uiso   1.00
O983   O     0.11465   0.65618   0.14574   0.00000  Uiso   1.00
O984   O     0.35522   0.80770   0.82458   0.00000  Uiso   1.00
O985   O     0.25000   0.53036   0.66317   0.00000  Uiso   1.00
O986   O     0.41429   0.82320   0.83692   0.00000  Uiso   1.00
O987   O     0.27729   0.63216   0.22327   0.00000  Uiso   1.00
O988   O     0.30889   0.64804   0.16938   0.00000  Uiso   1.00
O989   O     0.21550   0.87719   0.79726   0.00000  Uiso   1.00
O990   O     0.17496   0.86801   0.84596   0.00000  Uiso   1.00
O991   O     0.34870   0.80302   0.18188   0.00000  Uiso   1.00
O992   O     0.40808   0.81441   0.16689   0.00000  Uiso   1.00
O993   O     0.11783   0.71084   0.80561   0.00000  Uiso   1.00
O994   O     0.12309   0.66630   0.85096   0.00000  Uiso   1.00
O995   O     0.19688   0.65113   0.81835   0.00000  Uiso   1.00
O996   O     0.03036   0.75000   0.33683   0.00000  Uiso   1.00
O997   O     0.18533   0.59175   0.83326   0.00000  Uiso   1.00
O998   O     0.28910   0.88215   0.19451   0.00000  Uiso   1.00
O999   O     0.33356   0.87668   0.14911   0.00000  Uiso   1.00
O1000  O     0.15738   0.79778   0.80802   0.00000  Uiso   1.00
O1001  O     0.09847   0.80512   0.82717   0.00000  Uiso   1.00
O1002  O     0.33455   0.71107   0.21561   0.00000  Uiso   1.00
O1003  O     0.38970   0.70818   0.18567   0.00000  Uiso   1.00
O1004  O     0.29515   0.88843   0.81348   0.00000  Uiso   1.00
O1005  O     0.34380   0.88547   0.85425   0.00000  Uiso   1.00
O1006  O     0.19234   0.64473   0.17549   0.00000  Uiso   1.00
O1007  O     0.46964   0.75000   0.66317   0.00000  Uiso   1.00
O1008  O     0.17675   0.58570   0.16306   0.00000  Uiso   1.00
O1009  O     0.36785   0.72273   0.77669   0.00000  Uiso   1.00
O1010  O     0.35189   0.69114   0.83058   0.00000  Uiso   1.00
O1011  O     0.12307   0.78432   0.20310   0.00000  Uiso   1.00
O1012  O     0.13221   0.82471   0.15424   0.00000  Uiso   1.00
O1013  O     0.46107   0.58455   0.71562   0.00000  Uiso   1.00
O1014  O     0.45818   0.63970   0.68567   0.00000  Uiso   1.00
O1015  O     0.04754   0.90759   0.30756   0.00000  Uiso   1.00
O1016  O     0.05483   0.84874   0.32696   0.00000  Uiso   1.00
O1017  O     0.39491   0.94241   0.67560   0.00000  Uiso   1.00
O1018  O     0.25000   0.53036   0.33683   0.00000  Uiso   1.00
O1019  O     0.33583   0.92701   0.66317   0.00000  Uiso   1.00
O1020  O     0.13852   0.54525   0.31360   0.00000  Uiso   1.00
O1021  O     0.13562   0.59396   0.35429   0.00000  Uiso   1.00
O1022  O     0.03454   0.87280   0.70264   0.00000  Uiso   1.00
O1023  O     0.07514   0.88180   0.65396   0.00000  Uiso   1.00
O1024  O     0.47273   0.61785   0.27670   0.00000  Uiso   1.00
O1025  O     0.44114   0.60190   0.33058   0.00000  Uiso   1.00
O1026  O     0.13216   0.53909   0.69451   0.00000  Uiso   1.00
O1027  O     0.12666   0.58356   0.64911   0.00000  Uiso   1.00
O1028  O     0.40115   0.94687   0.31836   0.00000  Uiso   1.00
Zn1029 Zn    0.20660   0.50000   0.21760   0.00000  Uiso   1.00
Zn1030 Zn    0.04340   0.75000   0.28240   0.00000  Uiso   1.00
Zn1031 Zn    0.25000   0.95660   0.71760   0.00000  Uiso   1.00
Zn1032 Zn    0.25000   0.54340   0.28240   0.00000  Uiso   1.00
Zn1033 Zn    0.04340   0.75000   0.71760   0.00000  Uiso   1.00
Zn1034 Zn    0.45660   0.75000   0.28240   0.00000  Uiso   1.00
Zn1035 Zn    0.25000   0.54340   0.71760   0.00000  Uiso   1.00
Zn1036 Zn    0.25000   0.95660   0.28240   0.00000  Uiso   1.00
Zn1037 Zn    0.29340   0.50000   0.78240   0.00000  Uiso   1.00
Zn1038 Zn    0.00000   0.70660   0.21760   0.00000  Uiso   1.00
Zn1039 Zn    0.00000   0.79340   0.78240   0.00000  Uiso   1.00
Zn1040 Zn    0.29340   0.50000   0.21760   0.00000  Uiso   1.00
Zn1041 Zn    0.20660   0.50000   0.78240   0.00000  Uiso   1.00
Zn1042 Zn    0.00000   0.79340   0.21760   0.00000  Uiso   1.00
Zn1043 Zn    0.00000   0.70660   0.78240   0.00000  Uiso   1.00
Zn1044 Zn    0.45660   0.75000   0.71760   0.00000  Uiso   1.00
C1045  C     0.71838   0.98977   0.04169   0.00000  Uiso   1.00
C1046  C     0.53117   0.73854   0.45820   0.00000  Uiso   1.00
C1047  C     0.84780   0.90169   0.74965   0.00000  Uiso   1.00
C1048  C     0.90231   0.65158   0.24951   0.00000  Uiso   1.00
C1049  C     0.59776   0.84836   0.75049   0.00000  Uiso   1.00
C1050  C     0.84779   0.90168   0.25054   0.00000  Uiso   1.00
C1051  C     0.65168   0.59779   0.75054   0.00000  Uiso   1.00
C1052  C     0.59831   0.65220   0.74948   0.00000  Uiso   1.00
C1053  C     0.90220   0.84831   0.24948   0.00000  Uiso   1.00
C1054  C     0.65225   0.90163   0.74949   0.00000  Uiso   1.00
C1055  C     0.84770   0.59842   0.25048   0.00000  Uiso   1.00
C1056  C     0.90220   0.84833   0.75038   0.00000  Uiso   1.00
C1057  C     0.73975   0.96838   0.54169   0.00000  Uiso   1.00
C1058  C     0.59833   0.65220   0.25037   0.00000  Uiso   1.00
C1059  C     0.84842   0.59770   0.75048   0.00000  Uiso   1.00
C1060  C     0.65163   0.90226   0.24949   0.00000  Uiso   1.00
C1061  C     0.74993   0.50001   0.10241   0.00000  Uiso   1.00
C1062  C     0.75005   0.50004   0.89755   0.00000  Uiso   1.00
C1063  C     0.50002   0.74995   0.10241   0.00000  Uiso   1.00
C1064  C     0.50005   0.75008   0.89755   0.00000  Uiso   1.00
C1065  C     0.99995   0.75002   0.60241   0.00000  Uiso   1.00
C1066  C     0.50008   0.75005   0.39755   0.00000  Uiso   1.00
C1067  C     0.75001   0.99993   0.60241   0.00000  Uiso   1.00
C1068  C     0.73824   0.53101   0.45821   0.00000  Uiso   1.00
C1069  C     0.75004   0.50005   0.39755   0.00000  Uiso   1.00
C1070  C     0.68512   0.87105   0.19512   0.00000  Uiso   1.00
C1071  C     0.80588   0.63713   0.78963   0.00000  Uiso   1.00
C1072  C     0.61530   0.67178   0.18271   0.00000  Uiso   1.00
C1073  C     0.88181   0.82621   0.81579   0.00000  Uiso   1.00
C1074  C     0.80704   0.63705   0.20804   0.00000  Uiso   1.00
C1075  C     0.68363   0.87309   0.80696   0.00000  Uiso   1.00
C1076  C     0.87641   0.82076   0.18845   0.00000  Uiso   1.00
C1077  C     0.62131   0.67824   0.81261   0.00000  Uiso   1.00
C1078  C     0.67911   0.62346   0.81170   0.00000  Uiso   1.00
C1079  C     0.53150   0.76042   0.54190   0.00000  Uiso   1.00
C1080  C     0.82168   0.87860   0.18748   0.00000  Uiso   1.00
C1081  C     0.62885   0.81500   0.80502   0.00000  Uiso   1.00
C1082  C     0.86291   0.69407   0.21029   0.00000  Uiso   1.00
C1083  C     0.82819   0.88470   0.81729   0.00000  Uiso   1.00
C1084  C     0.67379   0.61817   0.18423   0.00000  Uiso   1.00
C1085  C     0.86293   0.69298   0.79193   0.00000  Uiso   1.00
C1086  C     0.62712   0.81618   0.19327   0.00000  Uiso   1.00
C1087  C     0.94407   0.61290   0.71030   0.00000  Uiso   1.00
C1088  C     0.56478   0.87905   0.30474   0.00000  Uiso   1.00
C1089  C     0.86830   0.92391   0.68431   0.00000  Uiso   1.00
C1090  C     0.96897   0.76155   0.45811   0.00000  Uiso   1.00
C1091  C     0.63480   0.57830   0.31736   0.00000  Uiso   1.00
C1092  C     0.56644   0.87684   0.69296   0.00000  Uiso   1.00
C1093  C     0.94297   0.61293   0.29193   0.00000  Uiso   1.00
C1094  C     0.62860   0.57167   0.68748   0.00000  Uiso   1.00
C1095  C     0.87347   0.92911   0.31169   0.00000  Uiso   1.00
C1096  C     0.92824   0.87130   0.31261   0.00000  Uiso   1.00
C1097  C     0.57076   0.62641   0.68846   0.00000  Uiso   1.00
C1098  C     0.88713   0.55589   0.28964   0.00000  Uiso   1.00
C1099  C     0.62125   0.93489   0.69483   0.00000  Uiso   1.00
C1100  C     0.57632   0.63192   0.31588   0.00000  Uiso   1.00
C1101  C     0.76020   0.53150   0.54188   0.00000  Uiso   1.00
C1102  C     0.92189   0.86540   0.68278   0.00000  Uiso   1.00
C1103  C     0.62282   0.93388   0.30665   0.00000  Uiso   1.00
C1104  C     0.88705   0.55704   0.70805   0.00000  Uiso   1.00
C1105  C     0.76172   0.96899   0.45810   0.00000  Uiso   1.00
C1106  C     0.71830   0.99003   0.08195   0.00000  Uiso   1.00
C1107  C     0.78113   0.98852   0.91796   0.00000  Uiso   1.00
C1108  C     0.98987   0.71839   0.08194   0.00000  Uiso   1.00
C1109  C     0.78101   0.98824   0.95821   0.00000  Uiso   1.00
C1110  C     0.98879   0.78126   0.91795   0.00000  Uiso   1.00
C1111  C     0.78156   0.50998   0.08212   0.00000  Uiso   1.00
C1112  C     0.71894   0.51153   0.91785   0.00000  Uiso   1.00
C1113  C     0.51017   0.78154   0.08215   0.00000  Uiso   1.00
C1114  C     0.51132   0.71890   0.91787   0.00000  Uiso   1.00
C1115  C     0.96839   0.73986   0.58194   0.00000  Uiso   1.00
C1116  C     0.53127   0.73881   0.41795   0.00000  Uiso   1.00
C1117  C     0.74002   0.96830   0.58195   0.00000  Uiso   1.00
C1118  C     0.73853   0.53114   0.41796   0.00000  Uiso   1.00
C1119  C     0.53154   0.76018   0.58215   0.00000  Uiso   1.00
C1120  C     0.98962   0.71850   0.04168   0.00000  Uiso   1.00
C1121  C     0.96890   0.76131   0.41787   0.00000  Uiso   1.00
C1122  C     0.75998   0.53156   0.58212   0.00000  Uiso   1.00
C1123  C     0.76152   0.96894   0.41785   0.00000  Uiso   1.00
C1124  C     0.74995   0.99996   0.02129   0.00000  Uiso   1.00
C1125  C     0.74998   0.99996   0.97865   0.00000  Uiso   1.00
C1126  C     0.50000   0.75002   0.02129   0.00000  Uiso   1.00
C1127  C     0.50002   0.75005   0.97866   0.00000  Uiso   1.00
C1128  C     0.50002   0.75001   0.52130   0.00000  Uiso   1.00
C1129  C     0.50005   0.75002   0.47866   0.00000  Uiso   1.00
C1130  C     0.74996   0.99995   0.52129   0.00000  Uiso   1.00
C1131  C     0.98853   0.78116   0.95820   0.00000  Uiso   1.00
C1132  C     0.74996   0.99998   0.47865   0.00000  Uiso   1.00
C1133  C     0.75002   0.50003   0.35523   0.00000  Uiso   1.00
C1134  C     0.75000   0.99997   0.64475   0.00000  Uiso   1.00
C1135  C     0.50003   0.75001   0.35523   0.00000  Uiso   1.00
C1136  C     0.99997   0.75000   0.64476   0.00000  Uiso   1.00
C1137  C     0.50001   0.75003   0.85523   0.00000  Uiso   1.00
C1138  C     0.50000   0.74997   0.14476   0.00000  Uiso   1.00
C1139  C     0.75003   0.50002   0.85523   0.00000  Uiso   1.00
C1140  C     0.74997   0.50000   0.14475   0.00000  Uiso   1.00
C1141  C     0.68021   0.57017   0.24962   0.00000  Uiso   1.00
C1142  C     0.78150   0.51020   0.04188   0.00000  Uiso   1.00
C1143  C     0.82017   0.93021   0.74961   0.00000  Uiso   1.00
C1144  C     0.93025   0.67983   0.25015   0.00000  Uiso   1.00
C1145  C     0.57000   0.81992   0.75020   0.00000  Uiso   1.00
C1146  C     0.82017   0.93025   0.25043   0.00000  Uiso   1.00
C1147  C     0.68025   0.57017   0.75043   0.00000  Uiso   1.00
C1148  C     0.56993   0.82000   0.25019   0.00000  Uiso   1.00
C1149  C     0.92983   0.68025   0.75016   0.00000  Uiso   1.00
C1150  C     0.68000   0.93008   0.74980   0.00000  Uiso   1.00
C1151  C     0.81975   0.57017   0.24984   0.00000  Uiso   1.00
C1152  C     0.92982   0.81978   0.75040   0.00000  Uiso   1.00
C1153  C     0.71899   0.51173   0.95810   0.00000  Uiso   1.00
C1154  C     0.56978   0.67982   0.25040   0.00000  Uiso   1.00
C1155  C     0.82017   0.56975   0.74984   0.00000  Uiso   1.00
C1156  C     0.68007   0.93000   0.24980   0.00000  Uiso   1.00
C1157  C     0.56976   0.67984   0.74958   0.00000  Uiso   1.00
C1158  C     0.92984   0.81976   0.24958   0.00000  Uiso   1.00
C1159  C     0.65365   0.87341   0.22239   0.00000  Uiso   1.00
C1160  C     0.84157   0.63102   0.76982   0.00000  Uiso   1.00
C1161  C     0.62063   0.64805   0.21734   0.00000  Uiso   1.00
C1162  C     0.87924   0.85231   0.78290   0.00000  Uiso   1.00
C1163  C     0.84142   0.63153   0.23055   0.00000  Uiso   1.00
C1164  C     0.51040   0.78150   0.04190   0.00000  Uiso   1.00
C1165  C     0.65395   0.87346   0.77733   0.00000  Uiso   1.00
C1166  C     0.87621   0.84934   0.21922   0.00000  Uiso   1.00
C1167  C     0.62364   0.65118   0.78035   0.00000  Uiso   1.00
C1168  C     0.65061   0.62374   0.78084   0.00000  Uiso   1.00
C1169  C     0.84879   0.87633   0.21970   0.00000  Uiso   1.00
C1170  C     0.62652   0.84644   0.77770   0.00000  Uiso   1.00
C1171  C     0.86899   0.65841   0.23015   0.00000  Uiso   1.00
C1172  C     0.85192   0.87936   0.78267   0.00000  Uiso   1.00
C1173  C     0.64768   0.62074   0.21711   0.00000  Uiso   1.00
C1174  C     0.86846   0.65859   0.76943   0.00000  Uiso   1.00
C1175  C     0.51155   0.71897   0.95811   0.00000  Uiso   1.00
C1176  C     0.62664   0.84596   0.22278   0.00000  Uiso   1.00
C1177  C     0.90841   0.61899   0.73015   0.00000  Uiso   1.00
C1178  C     0.59631   0.87663   0.27755   0.00000  Uiso   1.00
C1179  C     0.87081   0.89774   0.71715   0.00000  Uiso   1.00
C1180  C     0.62941   0.60198   0.28271   0.00000  Uiso   1.00
C1181  C     0.59608   0.87651   0.72262   0.00000  Uiso   1.00
C1182  C     0.90859   0.61846   0.26944   0.00000  Uiso   1.00
C1183  C     0.62632   0.59879   0.71970   0.00000  Uiso   1.00
C1184  C     0.87374   0.90061   0.28084   0.00000  Uiso   1.00
C1185  C     0.90117   0.87363   0.28036   0.00000  Uiso   1.00
C1186  C     0.96850   0.73961   0.54168   0.00000  Uiso   1.00
C1187  C     0.59934   0.62621   0.71922   0.00000  Uiso   1.00
C1188  C     0.88102   0.59158   0.26983   0.00000  Uiso   1.00
C1189  C     0.62352   0.90352   0.72224   0.00000  Uiso   1.00
C1190  C     0.60237   0.62929   0.28294   0.00000  Uiso   1.00
C1191  C     0.89811   0.87069   0.71737   0.00000  Uiso   1.00
C1192  C     0.62333   0.90407   0.27718   0.00000  Uiso   1.00
C1193  C     0.88153   0.59142   0.73055   0.00000  Uiso   1.00
C1194  C     0.59836   0.84775   0.25049   0.00000  Uiso   1.00
C1195  C     0.90158   0.65231   0.74952   0.00000  Uiso   1.00
C1196  C     0.65168   0.59780   0.24965   0.00000  Uiso   1.00
H1197  H     0.69388   0.98114   0.02657   0.00000  Uiso   1.00
H1198  H     0.55528   0.72891   0.47329   0.00000  Uiso   1.00
H1199  H     0.73112   0.94388   0.52657   0.00000  Uiso   1.00
H1200  H     0.72842   0.55504   0.47330   0.00000  Uiso   1.00
H1201  H     0.55596   0.76919   0.52695   0.00000  Uiso   1.00
H1202  H     0.94485   0.77118   0.47312   0.00000  Uiso   1.00
H1203  H     0.76882   0.55600   0.52690   0.00000  Uiso   1.00
H1204  H     0.77152   0.94494   0.47311   0.00000  Uiso   1.00
H1205  H     0.69366   0.98194   0.09705   0.00000  Uiso   1.00
H1206  H     0.80532   0.97923   0.90281   0.00000  Uiso   1.00
H1207  H     0.98165   0.69379   0.09702   0.00000  Uiso   1.00
H1208  H     0.80504   0.97841   0.97330   0.00000  Uiso   1.00
H1209  H     0.97969   0.80552   0.90280   0.00000  Uiso   1.00
H1210  H     0.80620   0.51808   0.09734   0.00000  Uiso   1.00
H1211  H     0.69477   0.52085   0.90262   0.00000  Uiso   1.00
H1212  H     0.51840   0.80613   0.09739   0.00000  Uiso   1.00
H1213  H     0.52044   0.69464   0.90266   0.00000  Uiso   1.00
H1214  H     0.94380   0.73163   0.59702   0.00000  Uiso   1.00
H1215  H     0.55553   0.72971   0.40280   0.00000  Uiso   1.00
H1216  H     0.73192   0.94366   0.59705   0.00000  Uiso   1.00
H1217  H     0.72924   0.55533   0.40281   0.00000  Uiso   1.00
H1218  H     0.55612   0.76842   0.59739   0.00000  Uiso   1.00
H1219  H     0.98085   0.69405   0.02655   0.00000  Uiso   1.00
H1220  H     0.94464   0.77043   0.40266   0.00000  Uiso   1.00
H1221  H     0.76809   0.55620   0.59734   0.00000  Uiso   1.00
H1222  H     0.77083   0.94477   0.40262   0.00000  Uiso   1.00
H1223  H     0.71682   0.89640   0.15566   0.00000  Uiso   1.00
H1224  H     0.76740   0.61765   0.82592   0.00000  Uiso   1.00
H1225  H     0.61085   0.67502   0.12463   0.00000  Uiso   1.00
H1226  H     0.91258   0.80448   0.85844   0.00000  Uiso   1.00
H1227  H     0.78382   0.65094   0.15717   0.00000  Uiso   1.00
H1228  H     0.69739   0.86827   0.86326   0.00000  Uiso   1.00
H1229  H     0.90472   0.79447   0.14677   0.00000  Uiso   1.00
H1230  H     0.97888   0.80527   0.97329   0.00000  Uiso   1.00
H1231  H     0.62116   0.68717   0.87021   0.00000  Uiso   1.00
H1232  H     0.70522   0.59506   0.85344   0.00000  Uiso   1.00
H1233  H     0.81267   0.87854   0.12989   0.00000  Uiso   1.00
H1234  H     0.60345   0.78328   0.84443   0.00000  Uiso   1.00
H1235  H     0.88239   0.73247   0.17392   0.00000  Uiso   1.00
H1236  H     0.82497   0.88934   0.87535   0.00000  Uiso   1.00
H1237  H     0.69550   0.58740   0.14157   0.00000  Uiso   1.00
H1238  H     0.84898   0.71622   0.84277   0.00000  Uiso   1.00
H1239  H     0.63200   0.80222   0.13703   0.00000  Uiso   1.00
H1240  H     0.98247   0.63239   0.67392   0.00000  Uiso   1.00
H1241  H     0.80601   0.51881   0.02690   0.00000  Uiso   1.00
H1242  H     0.53294   0.85377   0.34412   0.00000  Uiso   1.00
H1243  H     0.83758   0.94579   0.64171   0.00000  Uiso   1.00
H1244  H     0.63952   0.57516   0.37542   0.00000  Uiso   1.00
H1245  H     0.55273   0.88150   0.63663   0.00000  Uiso   1.00
H1246  H     0.96621   0.59899   0.34278   0.00000  Uiso   1.00
H1247  H     0.62852   0.56266   0.62989   0.00000  Uiso   1.00
H1248  H     0.84507   0.95526   0.35342   0.00000  Uiso   1.00
H1249  H     0.93716   0.87114   0.37022   0.00000  Uiso   1.00
H1250  H     0.54447   0.65471   0.64677   0.00000  Uiso   1.00
H1251  H     0.86765   0.51741   0.32593   0.00000  Uiso   1.00
H1252  H     0.69494   0.52154   0.97311   0.00000  Uiso   1.00
H1253  H     0.64673   0.96646   0.65534   0.00000  Uiso   1.00
H1254  H     0.55474   0.66274   0.35857   0.00000  Uiso   1.00
H1255  H     0.92521   0.86103   0.62470   0.00000  Uiso   1.00
H1256  H     0.61778   0.94790   0.36286   0.00000  Uiso   1.00
H1257  H     0.90095   0.53381   0.65719   0.00000  Uiso   1.00
H1258  H     0.51917   0.80597   0.02695   0.00000  Uiso   1.00
H1259  H     0.52119   0.69485   0.97312   0.00000  Uiso   1.00
H1260  H     0.94406   0.73083   0.52655   0.00000  Uiso   1.00
O1261  O     0.75000   0.50000   0.25000   0.00000  Uiso   1.00
O1262  O     0.75000   0.96964   0.66317   0.00000  Uiso   1.00
O1263  O     0.84176   0.93537   0.33324   0.00000  Uiso   1.00
O1264  O     0.96083   0.86783   0.30562   0.00000  Uiso   1.00
O1265  O     0.91629   0.87307   0.35097   0.00000  Uiso   1.00
O1266  O     0.55301   0.59870   0.68189   0.00000  Uiso   1.00
O1267  O     0.56441   0.65808   0.66689   0.00000  Uiso   1.00
O1268  O     0.91550   0.53892   0.28430   0.00000  Uiso   1.00
O1269  O     0.86033   0.54172   0.31423   0.00000  Uiso   1.00
O1270  O     0.59275   0.95214   0.69176   0.00000  Uiso   1.00
O1271  O     0.65167   0.94467   0.67267   0.00000  Uiso   1.00
O1272  O     0.55777   0.60538   0.32469   0.00000  Uiso   1.00
O1273  O     0.96964   0.75000   0.33683   0.00000  Uiso   1.00
O1274  O     0.57344   0.66441   0.33702   0.00000  Uiso   1.00
O1275  O     0.95492   0.86159   0.68663   0.00000  Uiso   1.00
O1276  O     0.90634   0.86480   0.64579   0.00000  Uiso   1.00
O1277  O     0.62692   0.96572   0.29681   0.00000  Uiso   1.00
O1278  O     0.61761   0.92539   0.34568   0.00000  Uiso   1.00
O1279  O     0.88216   0.52728   0.72329   0.00000  Uiso   1.00
O1280  O     0.89804   0.55888   0.66939   0.00000  Uiso   1.00
O1281  O     0.53036   0.75000   0.66317   0.00000  Uiso   1.00
O1282  O     0.50000   0.71964   0.83683   0.00000  Uiso   1.00
O1283  O     0.50000   0.78036   0.16317   0.00000  Uiso   1.00
O1284  O     0.78036   0.50000   0.83683   0.00000  Uiso   1.00
O1285  O     0.71964   0.50000   0.16317   0.00000  Uiso   1.00
O1286  O     0.50000   0.78036   0.83683   0.00000  Uiso   1.00
O1287  O     0.50000   0.71964   0.16317   0.00000  Uiso   1.00
O1288  O     0.71964   0.50000   0.83683   0.00000  Uiso   1.00
O1289  O     0.75000   0.50000   0.75000   0.00000  Uiso   1.00
O1290  O     0.78036   0.50000   0.16317   0.00000  Uiso   1.00
O1291  O     0.70726   0.57307   0.27282   0.00000  Uiso   1.00
O1292  O     0.79275   0.92693   0.72718   0.00000  Uiso   1.00
O1293  O     0.92693   0.70726   0.27282   0.00000  Uiso   1.00
O1294  O     0.57307   0.79274   0.72718   0.00000  Uiso   1.00
O1295  O     0.79275   0.92693   0.27282   0.00000  Uiso   1.00
O1296  O     0.70726   0.57307   0.72718   0.00000  Uiso   1.00
O1297  O     0.57307   0.79274   0.27282   0.00000  Uiso   1.00
O1298  O     0.92693   0.70726   0.72718   0.00000  Uiso   1.00
O1299  O     0.70726   0.92693   0.72718   0.00000  Uiso   1.00
O1300  O     0.50000   0.75000   0.25000   0.00000  Uiso   1.00
O1301  O     0.79275   0.57307   0.27282   0.00000  Uiso   1.00
O1302  O     0.92693   0.79275   0.72718   0.00000  Uiso   1.00
O1303  O     0.57307   0.70725   0.27282   0.00000  Uiso   1.00
O1304  O     0.79275   0.57307   0.72718   0.00000  Uiso   1.00
O1305  O     0.70726   0.92693   0.27282   0.00000  Uiso   1.00
O1306  O     0.57307   0.70725   0.72718   0.00000  Uiso   1.00
O1307  O     0.92693   0.79275   0.27282   0.00000  Uiso   1.00
O1308  O     0.95726   0.82307   0.77282   0.00000  Uiso   1.00
O1309  O     0.54275   0.67693   0.22718   0.00000  Uiso   1.00
O1310  O     0.67693   0.95725   0.77282   0.00000  Uiso   1.00
O1311  O     0.50000   0.75000   0.75000   0.00000  Uiso   1.00
O1312  O     0.82307   0.54275   0.22718   0.00000  Uiso   1.00
O1313  O     0.54275   0.67693   0.77282   0.00000  Uiso   1.00
O1314  O     0.95726   0.82307   0.22718   0.00000  Uiso   1.00
O1315  O     0.82307   0.54275   0.77282   0.00000  Uiso   1.00
O1316  O     0.67693   0.95725   0.22718   0.00000  Uiso   1.00
O1317  O     0.95726   0.67693   0.22718   0.00000  Uiso   1.00
O1318  O     0.54275   0.82307   0.77282   0.00000  Uiso   1.00
O1319  O     0.67693   0.54275   0.22718   0.00000  Uiso   1.00
O1320  O     0.82307   0.95725   0.77282   0.00000  Uiso   1.00
O1321  O     0.54275   0.82307   0.22718   0.00000  Uiso   1.00
O1322  O     0.75000   0.96964   0.33683   0.00000  Uiso   1.00
O1323  O     0.95726   0.67693   0.77282   0.00000  Uiso   1.00
O1324  O     0.82307   0.95725   0.22718   0.00000  Uiso   1.00
O1325  O     0.67693   0.54275   0.77282   0.00000  Uiso   1.00
O1326  O     0.70239   0.84254   0.19223   0.00000  Uiso   1.00
O1327  O     0.69497   0.90139   0.17289   0.00000  Uiso   1.00
O1328  O     0.78892   0.66550   0.78430   0.00000  Uiso   1.00
O1329  O     0.79172   0.61033   0.81423   0.00000  Uiso   1.00
O1330  O     0.61151   0.70482   0.18652   0.00000  Uiso   1.00
O1331  O     0.61465   0.65618   0.14574   0.00000  Uiso   1.00
O1332  O     0.85522   0.80770   0.82458   0.00000  Uiso   1.00
O1333  O     0.75000   0.53036   0.66317   0.00000  Uiso   1.00
O1334  O     0.91429   0.82320   0.83692   0.00000  Uiso   1.00
O1335  O     0.77729   0.63216   0.22327   0.00000  Uiso   1.00
O1336  O     0.80889   0.64804   0.16938   0.00000  Uiso   1.00
O1337  O     0.71550   0.87719   0.79726   0.00000  Uiso   1.00
O1338  O     0.67496   0.86801   0.84596   0.00000  Uiso   1.00
O1339  O     0.84870   0.80302   0.18188   0.00000  Uiso   1.00
O1340  O     0.90808   0.81441   0.16689   0.00000  Uiso   1.00
O1341  O     0.61783   0.71084   0.80561   0.00000  Uiso   1.00
O1342  O     0.62309   0.66630   0.85096   0.00000  Uiso   1.00
O1343  O     0.69688   0.65113   0.81835   0.00000  Uiso   1.00
O1344  O     0.53036   0.75000   0.33683   0.00000  Uiso   1.00
O1345  O     0.68533   0.59175   0.83326   0.00000  Uiso   1.00
O1346  O     0.78910   0.88215   0.19451   0.00000  Uiso   1.00
O1347  O     0.83356   0.87668   0.14911   0.00000  Uiso   1.00
O1348  O     0.65738   0.79778   0.80802   0.00000  Uiso   1.00
O1349  O     0.59847   0.80512   0.82717   0.00000  Uiso   1.00
O1350  O     0.83455   0.71107   0.21561   0.00000  Uiso   1.00
O1351  O     0.88970   0.70818   0.18567   0.00000  Uiso   1.00
O1352  O     0.79515   0.88843   0.81348   0.00000  Uiso   1.00
O1353  O     0.84380   0.88547   0.85425   0.00000  Uiso   1.00
O1354  O     0.69234   0.64473   0.17549   0.00000  Uiso   1.00
O1355  O     0.96964   0.75000   0.66317   0.00000  Uiso   1.00
O1356  O     0.67675   0.58570   0.16306   0.00000  Uiso   1.00
O1357  O     0.86785   0.72273   0.77669   0.00000  Uiso   1.00
O1358  O     0.85189   0.69114   0.83058   0.00000  Uiso   1.00
O1359  O     0.62307   0.78432   0.20310   0.00000  Uiso   1.00
O1360  O     0.63221   0.82471   0.15424   0.00000  Uiso   1.00
O1361  O     0.96107   0.58455   0.71562   0.00000  Uiso   1.00
O1362  O     0.95818   0.63970   0.68567   0.00000  Uiso   1.00
O1363  O     0.54754   0.90759   0.30756   0.00000  Uiso   1.00
O1364  O     0.55483   0.84874   0.32696   0.00000  Uiso   1.00
O1365  O     0.89491   0.94241   0.67560   0.00000  Uiso   1.00
O1366  O     0.75000   0.53036   0.33683   0.00000  Uiso   1.00
O1367  O     0.83583   0.92701   0.66317   0.00000  Uiso   1.00
O1368  O     0.63852   0.54525   0.31360   0.00000  Uiso   1.00
O1369  O     0.63562   0.59396   0.35429   0.00000  Uiso   1.00
O1370  O     0.53454   0.87280   0.70264   0.00000  Uiso   1.00
O1371  O     0.57514   0.88180   0.65396   0.00000  Uiso   1.00
O1372  O     0.97273   0.61785   0.27670   0.00000  Uiso   1.00
O1373  O     0.94114   0.60190   0.33058   0.00000  Uiso   1.00
O1374  O     0.63216   0.53909   0.69451   0.00000  Uiso   1.00
O1375  O     0.62666   0.58356   0.64911   0.00000  Uiso   1.00
O1376  O     0.90115   0.94687   0.31836   0.00000  Uiso   1.00
Zn1377 Zn    0.70660   0.50000   0.21760   0.00000  Uiso   1.00
Zn1378 Zn    0.54340   0.75000   0.28240   0.00000  Uiso   1.00
Zn1379 Zn    0.75000   0.95660   0.71760   0.00000  Uiso   1.00
Zn1380 Zn    0.75000   0.54340   0.28240   0.00000  Uiso   1.00
Zn1381 Zn    0.54340   0.75000   0.71760   0.00000  Uiso   1.00
Zn1382 Zn    0.95660   0.75000   0.28240   0.00000  Uiso   1.00
Zn1383 Zn    0.75000   0.54340   0.71760   0.00000  Uiso   1.00
Zn1384 Zn    0.75000   0.95660   0.28240   0.00000  Uiso   1.00
Zn1385 Zn    0.79340   0.50000   0.78240   0.00000  Uiso   1.00
Zn1386 Zn    0.50000   0.70660   0.21760   0.00000  Uiso   1.00
Zn1387 Zn    0.50000   0.79340   0.78240   0.00000  Uiso   1.00
Zn1388 Zn    0.79340   0.50000   0.21760   0.00000  Uiso   1.00
Zn1389 Zn    0.70660   0.50000   0.78240   0.00000  Uiso   1.00
Zn1390 Zn    0.50000   0.79340   0.21760   0.00000  Uiso   1.00
Zn1391 Zn    0.50000   0.70660   0.78240   0.00000  Uiso   1.00
Zn1392 Zn    0.95660   0.75000   0.71760   0.00000  Uiso   1.00
loop_
_geom_bond_atom_site_label_1
_geom_bond_atom_site_label_2
_geom_bond_distance
_geom_bond_site_symmetry_2
_ccdc_geom_bond_type
C1     C62     1.392   .     A
C1     H153    1.083   .     S
C1     C80     1.405   .     A
C2     H154    1.083   .     S
C2     C85     1.405   .     A
C2     C72     1.392   .     A
C3     C128    1.413   .     A
C3     C99     1.453   .     S
C3     C135    1.412   .     A
C4     C127    1.411   .     A
C4     C138    1.413   .     A
C4     C100    1.452   .     S
C5     C126    1.411   .     A
C5     C101    1.452   .     S
C5     C137    1.412   .     A
C6     C125    1.412   .     A
C6     C102    1.453   .     S
C6     C140    1.412   .     A
C7     C103    1.453   .     S
C7     C124    1.412   .     A
C7     C139    1.412   .     A
C8     C123    1.412   .     A
C8     C143    1.412   .     A
C8     C113    1.453   .     S
C9     C114    1.453   .     S
C9     C122    1.412   .     A
C9     C141    1.412   .     A
C10    C106    1.452   .     S
C10    C121    1.412   .     A
C10    C145    1.411   .     A
C11    C119    1.413   .     A
C11    C144    1.411   .     A
C11    C107    1.452   .     S
C12    C108    1.453   .     S
C12    C147    1.413   .     A
C12    C118    1.412   .     A
C13    H155    1.083   .     S
C13    C86     1.405   .     A
C13    C73     1.392   .     A
C14    C117    1.413   .     A
C14    C110    1.453   .     S
C14    C146    1.412   .     A
C15    C149    1.413   .     A
C15    C116    1.411   .     A
C15    C111    1.452   .     S
C16    C115    1.411   .     A
C16    C112    1.452   .     S
C16    C148    1.413   .     A
C17    C67     1.402   .     A
C17    C758    1.402   1_545 S
C17    C96     1.464   .     S
C18    C68     1.402   .     A
C18    C95     1.463   .     S
C18    C759    1.402   1_545 S
C19    C69     1.402   .     A
C19    C412    1.402   1_455 S
C19    C94     1.464   .     S
C20    C70     1.402   .     A
C20    C93     1.463   .     S
C20    C414    1.402   1_455 S
C21    C92     1.464   .     S
C21    C71     1.402   .     A
C21    C423    1.402   .     S
C22    C91     1.463   .     S
C22    C72     1.402   .     A
C22    C425    1.402   1_455 S
C23    C90     1.464   .     S
C23    C73     1.402   .     A
C23    C774    1.402   .     S
C24    H156    1.083   .     S
C24    C74     1.392   .     A
C24    C784    1.405   1_545 S
C25    C74     1.402   .     A
C25    C89     1.463   .     S
C25    C775    1.402   1_545 S
C26    O282    1.223   .     D
C26    C115    1.491   .     S
C26    O283    1.398   .     S
C27    O284    1.223   .     D
C27    O285    1.398   .     S
C27    C116    1.492   .     S
C28    O287    1.398   .     S
C28    O286    1.223   .     D
C28    C117    1.492   .     S
C29    O288    1.223   .     D
C29    O290    1.398   .     S
C29    C118    1.489   .     S
C30    O291    1.223   .     D
C30    C119    1.491   .     S
C30    O292    1.398   .     S
C31    C121    1.491   .     S
C31    O294    1.398   .     S
C31    O293    1.223   .     D
C32    O295    1.223   .     D
C32    O296    1.398   .     S
C32    C122    1.490   .     S
C33    O297    1.223   .     D
C33    O298    1.398   .     S
C33    C123    1.492   .     S
C34    C124    1.490   .     S
C34    O301    1.398   .     S
C34    O299    1.223   .     D
C35    H157    1.083   .     S
C35    C84     1.404   .     A
C35    C75     1.391   .     A
C36    O303    1.398   .     S
C36    O302    1.223   .     D
C36    C125    1.492   .     S
C37    O305    1.398   .     S
C37    C126    1.491   .     S
C37    O304    1.223   .     D
C38    O306    1.223   .     D
C38    C127    1.492   .     S
C38    O307    1.398   .     S
C39    O309    1.398   .     S
C39    C128    1.492   .     S
C39    O308    1.223   .     D
C40    O310    1.223   .     D
C40    O312    1.398   .     S
C40    C129    1.489   .     S
C41    O313    1.223   .     D
C41    C130    1.491   .     S
C41    O314    1.398   .     S
C42    O316    1.398   .     S
C42    C132    1.491   .     S
C42    O315    1.223   .     D
C43    C133    1.492   .     S
C43    O318    1.398   .     S
C43    O317    1.223   .     D
C44    C134    1.491   .     S
C44    O320    1.398   .     S
C44    O319    1.223   .     D
C45    C135    1.489   .     S
C45    O321    1.223   .     D
C45    O323    1.398   .     S
C46    C77     1.391   .     A
C46    H158    1.083   .     S
C46    C433    1.404   .     S
C47    C136    1.492   .     S
C47    O324    1.223   .     D
C47    O325    1.398   .     S
C48    O327    1.398   .     S
C48    C137    1.491   .     S
C48    O326    1.223   .     D
C49    O328    1.223   .     D
C49    O329    1.398   .     S
C49    C138    1.491   .     S
C50    O331    1.398   .     S
C50    C139    1.492   .     S
C50    O330    1.223   .     D
C51    C140    1.490   .     S
C51    O219    1.398   .     S
C51    O332    1.223   .     D
C52    C141    1.492   .     S
C52    O221    1.398   .     S
C52    O220    1.223   .     D
C53    O223    1.398   .     S
C53    O222    1.223   .     D
C53    C143    1.490   .     S
C54    C144    1.492   .     S
C54    O225    1.398   .     S
C54    O224    1.223   .     D
C55    O226    1.223   .     D
C55    C145    1.491   .     S
C55    O227    1.398   .     S
C56    O228    1.223   .     D
C56    O230    1.398   .     S
C56    C146    1.489   .     S
C57    H159    1.083   .     S
C57    C78     1.391   .     A
C57    C782    1.404   1_545 S
C58    O232    1.398   .     S
C58    C147    1.492   .     S
C58    O231    1.223   .     D
C59    O233    1.223   .     D
C59    C148    1.491   .     S
C59    O234    1.398   .     S
C60    O235    1.223   .     D
C60    O236    1.398   .     S
C60    C149    1.491   .     S
C61    H160    1.083   .     S
C61    C79     1.391   .     A
C61    C88     1.404   .     A
C62    H161    1.083   .     S
C62    C713    1.402   .     S
C63    C65     1.392   .     A
C63    H162    1.083   .     S
C63    C714    1.402   .     S
C64    H163    1.083   .     S
C64    C76     1.392   .     A
C64    C367    1.402   .     S
C65    C81     1.405   .     A
C65    H164    1.083   .     S
C66    H165    1.083   .     S
C66    C87     1.392   .     A
C66    C368    1.402   .     S
C67    C98     1.391   .     A
C67    H166    1.083   .     S
C68    C109    1.391   .     A
C68    H167    1.083   .     S
C69    H168    1.083   .     S
C69    C120    1.391   .     A
C70    H169    1.083   .     S
C70    C131    1.391   .     A
C71    H170    1.083   .     S
C71    C142    1.392   .     A
C72    H171    1.083   .     S
C73    H172    1.083   .     S
C74    H173    1.083   .     S
C75    H174    1.083   .     S
C75    C369    1.402   1_455 S
C76    H175    1.083   .     S
C76    C430    1.405   .     S
C77    H176    1.083   .     S
C77    C370    1.402   .     S
C78    H177    1.083   .     S
C78    C719    1.402   1_545 S
C79    H178    1.083   .     S
C79    C721    1.402   .     S
C80    C81     1.474   1_554 S
C80    C794    1.404   .     S
C81    C80     1.474   1_556 S
C81    C805    1.404   .     S
C82    C120    1.404   .     A
C82    C424    1.405   1_455 S
C82    C83     1.474   1_554 S
C83    C131    1.404   .     A
C83    C82     1.474   1_556 S
C83    C435    1.405   1_455 S
C84    C85     1.474   .     S
C84    C490    1.405   1_455 S
C85    C394    1.404   1_455 S
C86    C88     1.474   .     S
C86    C753    1.404   .     S
C87    H186    1.083   .     S
C87    C431    1.405   .     S
C88    C720    1.405   .     S
C89    O322    1.280   .     A
C89    O974    1.279   1_545 S
C90    O218    1.280   .     A
C90    O985    1.280   .     S
C91    O300    1.280   .     A
C91    O577    1.279   1_455 S
C92    O311    1.280   .     A
C92    O585    1.279   .     S
C93    O238    1.279   .     S
C93    O242    1.280   .     S
C94    O239    1.279   .     A
C94    O243    1.280   .     S
C95    O244    1.279   .     A
C95    O240    1.280   .     A
C96    O241    1.280   .     S
C96    O246    1.280   .     S
C97    O247    1.276   .     A
C97    C152    1.453   .     S
C97    O275    1.272   .     A
C98    H197    1.083   .     S
C98    C776    1.404   1_545 S
C99    O276    1.276   .     A
C99    O248    1.272   .     A
C100   O249    1.277   .     A
C100   O273    1.273   .     A
C101   O250    1.277   .     A
C101   O274    1.273   .     A
C102   O251    1.274   .     A
C102   O280    1.279   .     A
C103   O252    1.279   .     A
C103   O281    1.274   .     A
C104   C150    1.452   .     S
C104   O253    1.273   .     A
C104   O277    1.277   .     A
C105   C151    1.452   .     S
C105   O254    1.273   .     A
C105   O279    1.277   .     A
C106   O266    1.277   .     A
C106   O255    1.273   .     A
C107   O257    1.273   .     A
C107   O268    1.277   .     A
C108   O264    1.272   .     A
C108   O258    1.276   .     A
C109   H208    1.083   .     S
C109   C777    1.404   1_545 S
C110   O265    1.276   .     A
C110   O259    1.272   .     A
C111   O260    1.277   .     A
C111   O271    1.273   .     A
C112   O261    1.277   .     A
C112   O272    1.273   .     A
C113   O269    1.279   .     A
C113   O262    1.274   .     A
C114   O270    1.274   .     A
C114   O263    1.279   .     A
C115   C132    1.407   .     A
C116   C130    1.407   .     A
C117   C129    1.406   .     A
C118   C128    1.406   .     A
C119   C127    1.407   .     A
C120   H214    1.083   .     S
C121   C126    1.407   .     A
C122   C125    1.407   .     A
C123   C124    1.407   .     A
C129   C152    1.412   .     A
C130   C151    1.413   .     A
C131   H215    1.083   .     S
C132   C150    1.412   .     A
C133   C151    1.411   .     A
C133   C149    1.407   .     A
C134   C150    1.411   .     A
C134   C148    1.407   .     A
C135   C147    1.406   .     A
C136   C152    1.413   .     A
C136   C146    1.406   .     A
C137   C145    1.407   .     A
C138   C144    1.407   .     A
C139   C143    1.407   .     A
C140   C141    1.407   .     A
C142   H216    1.083   .     S
C142   C432    1.405   .     S
H179   O283    1.014   .     S
H180   O285    1.013   .     S
H181   O287    1.014   .     S
H182   O290    1.014   .     S
H183   O292    1.014   .     S
H184   O294    1.014   .     S
H185   O296    1.014   .     S
H187   O298    1.014   .     S
H188   O301    1.014   .     S
H189   O303    1.014   .     S
H190   O305    1.014   .     S
H191   O307    1.013   .     S
H192   O309    1.014   .     S
H193   O312    1.014   .     S
H194   O314    1.014   .     S
H195   O316    1.014   .     S
H196   O318    1.013   .     S
H198   O320    1.014   .     S
H199   O323    1.014   .     S
H200   O325    1.014   .     S
H201   O327    1.014   .     S
H202   O329    1.014   .     S
H203   O331    1.014   .     S
H204   O219    1.014   .     S
H205   O221    1.014   .     S
H206   O223    1.014   .     S
H207   O225    1.013   .     S
H209   O227    1.014   .     S
H210   O230    1.014   .     S
H211   O232    1.014   .     S
H212   O234    1.014   .     S
H213   O236    1.014   .     S
O217   Zn333   1.940   .     S
O217   Zn344   1.944   .     S
O217   Zn336   1.940   .     S
O217   Zn1036  1.944   1_545 S
O218   Zn335   1.942   .     S
O229   Zn338   1.940   .     S
O229   C439    1.279   .     S
O237   Zn337   1.940   .     S
O237   C440    1.279   1_455 S
O238   Zn347   1.940   .     S
O239   Zn346   1.940   .     S
O240   Zn341   1.942   .     S
O241   Zn333   1.942   .     S
O242   Zn343   1.942   .     S
O243   Zn342   1.942   .     S
O244   Zn345   1.940   .     S
O245   Zn345   1.944   .     S
O245   Zn341   1.940   .     S
O245   Zn339   1.944   .     S
O245   Zn1031  1.940   1_545 S
O246   Zn344   1.940   .     S
O247   Zn336   1.932   .     S
O248   Zn335   1.932   .     S
O249   Zn338   1.929   .     S
O250   Zn337   1.929   .     S
O251   Zn340   1.932   .     S
O252   Zn339   1.932   .     S
O253   Zn334   1.931   .     S
O254   Zn348   1.931   .     S
O255   Zn335   1.931   .     S
O256   Zn686   1.944   1_455 S
O256   Zn346   1.944   .     S
O256   Zn334   1.940   .     S
O256   Zn342   1.940   .     S
O257   Zn336   1.931   .     S
O258   Zn348   1.932   .     S
O259   Zn334   1.932   .     S
O260   Zn339   1.929   .     S
O261   Zn340   1.929   .     S
O262   Zn337   1.932   .     S
O263   Zn338   1.932   .     S
O264   Zn691   1.932   .     S
O265   Zn342   1.932   .     S
O266   Zn1041  1.929   .     S
O267   Zn337   1.944   .     S
O267   Zn347   1.944   .     S
O267   Zn343   1.940   .     S
O267   Zn696   1.940   1_455 S
O268   Zn344   1.929   .     S
O269   Zn347   1.932   .     S
O270   Zn694   1.932   .     S
O271   Zn341   1.931   .     S
O272   Zn1029  1.931   .     S
O273   Zn690   1.931   .     S
O274   Zn343   1.931   .     S
O275   Zn333   1.932   .     S
O276   Zn1037  1.932   .     S
O277   Zn346   1.929   .     S
O278   Zn340   1.940   .     S
O278   C785    1.279   .     S
O279   Zn695   1.929   .     S
O280   Zn1040  1.932   .     S
O281   Zn345   1.932   .     S
O289   Zn339   1.940   .     S
O289   C786    1.280   1_545 S
O300   Zn334   1.942   .     S
O311   Zn348   1.942   .     S
O322   Zn336   1.942   .     S
Zn333  O968    1.931   1_545 S
Zn335  O941    1.940   .     S
Zn338  O604    1.944   .     S
Zn340  O913    1.944   .     S
Zn341  O972    1.932   1_545 S
Zn342  O621    1.931   1_455 S
Zn343  O612    1.932   1_455 S
Zn344  O976    1.932   1_545 S
Zn345  O962    1.929   1_545 S
Zn346  O618    1.932   1_455 S
Zn347  O627    1.929   1_455 S
Zn348  O615    1.940   .     S
C349   C410    1.392   .     A
C349   H501    1.083   .     S
C349   C428    1.405   .     A
C350   H502    1.083   .     S
C350   C433    1.405   .     A
C350   C420    1.392   .     A
C351   C476    1.413   .     A
C351   C447    1.453   .     S
C351   C483    1.412   .     A
C352   C475    1.411   .     A
C352   C486    1.413   .     A
C352   C448    1.452   .     S
C353   C474    1.411   .     A
C353   C449    1.452   .     S
C353   C485    1.412   .     A
C354   C473    1.412   .     A
C354   C450    1.453   .     S
C354   C488    1.412   .     A
C355   C451    1.453   .     S
C355   C472    1.412   .     A
C355   C487    1.412   .     A
C356   C471    1.412   .     A
C356   C491    1.412   .     A
C356   C461    1.453   .     S
C357   C462    1.453   .     S
C357   C470    1.412   .     A
C357   C489    1.412   .     A
C358   C454    1.452   .     S
C358   C469    1.412   .     A
C358   C493    1.411   .     A
C359   C467    1.413   .     A
C359   C492    1.411   .     A
C359   C455    1.452   .     S
C360   C456    1.453   .     S
C360   C495    1.413   .     A
C360   C466    1.412   .     A
C361   H503    1.083   .     S
C361   C434    1.405   .     A
C361   C421    1.392   .     A
C362   C465    1.413   .     A
C362   C458    1.453   .     S
C362   C494    1.412   .     A
C363   C497    1.413   .     A
C363   C464    1.411   .     A
C363   C459    1.452   .     S
C364   C463    1.411   .     A
C364   C460    1.452   .     S
C364   C496    1.413   .     A
C365   C415    1.402   .     A
C365   C1106   1.402   1_545 S
C365   C444    1.464   .     S
C366   C416    1.402   .     A
C366   C443    1.463   .     S
C366   C1107   1.402   1_545 S
C367   C417    1.402   .     A
C367   C442    1.464   .     S
C368   C418    1.402   .     A
C368   C441    1.463   .     S
C369   C440    1.464   .     S
C369   C419    1.402   .     A
C369   C75     1.402   1_655 S
C370   C439    1.463   .     S
C370   C420    1.402   .     A
C371   C438    1.464   .     S
C371   C421    1.402   .     A
C371   C1122   1.402   .     S
C372   H504    1.083   .     S
C372   C422    1.392   .     A
C372   C1132   1.405   1_545 S
C373   C422    1.402   .     A
C373   C437    1.463   .     S
C373   C1123   1.402   1_545 S
C374   O630    1.223   .     D
C374   C463    1.491   .     S
C374   O631    1.398   .     S
C375   O632    1.223   .     D
C375   O633    1.398   .     S
C375   C464    1.492   .     S
C376   O635    1.398   .     S
C376   O634    1.223   .     D
C376   C465    1.492   .     S
C377   O636    1.223   .     D
C377   O638    1.398   .     S
C377   C466    1.489   .     S
C378   O639    1.223   .     D
C378   C467    1.491   .     S
C378   O640    1.398   .     S
C379   C469    1.491   .     S
C379   O642    1.398   .     S
C379   O641    1.223   .     D
C380   O643    1.223   .     D
C380   O644    1.398   .     S
C380   C470    1.490   .     S
C381   O645    1.223   .     D
C381   O646    1.398   .     S
C381   C471    1.492   .     S
C382   C472    1.490   .     S
C382   O649    1.398   .     S
C382   O647    1.223   .     D
C383   H505    1.083   .     S
C383   C432    1.404   .     A
C383   C423    1.391   .     A
C384   O651    1.398   .     S
C384   O650    1.223   .     D
C384   C473    1.492   .     S
C385   O653    1.398   .     S
C385   C474    1.491   .     S
C385   O652    1.223   .     D
C386   O654    1.223   .     D
C386   C475    1.492   .     S
C386   O655    1.398   .     S
C387   O657    1.398   .     S
C387   C476    1.492   .     S
C387   O656    1.223   .     D
C388   O658    1.223   .     D
C388   O660    1.398   .     S
C388   C477    1.489   .     S
C389   O661    1.223   .     D
C389   C478    1.491   .     S
C389   O662    1.398   .     S
C390   O664    1.398   .     S
C390   C480    1.491   .     S
C390   O663    1.223   .     D
C391   C481    1.492   .     S
C391   O666    1.398   .     S
C391   O665    1.223   .     D
C392   C482    1.491   .     S
C392   O668    1.398   .     S
C392   O667    1.223   .     D
C393   C483    1.489   .     S
C393   O669    1.223   .     D
C393   O671    1.398   .     S
C394   C425    1.391   .     A
C394   H506    1.083   .     S
C394   C85     1.404   1_655 S
C395   C484    1.492   .     S
C395   O672    1.223   .     D
C395   O673    1.398   .     S
C396   O675    1.398   .     S
C396   C485    1.491   .     S
C396   O674    1.223   .     D
C397   O676    1.223   .     D
C397   O677    1.398   .     S
C397   C486    1.491   .     S
C398   O679    1.398   .     S
C398   C487    1.492   .     S
C398   O678    1.223   .     D
C399   C488    1.490   .     S
C399   O567    1.398   .     S
C399   O680    1.223   .     D
C400   C489    1.492   .     S
C400   O569    1.398   .     S
C400   O568    1.223   .     D
C401   O571    1.398   .     S
C401   O570    1.223   .     D
C401   C491    1.490   .     S
C402   C492    1.492   .     S
C402   O573    1.398   .     S
C402   O572    1.223   .     D
C403   O574    1.223   .     D
C403   C493    1.491   .     S
C403   O575    1.398   .     S
C404   O576    1.223   .     D
C404   O578    1.398   .     S
C404   C494    1.489   .     S
C405   H507    1.083   .     S
C405   C426    1.391   .     A
C405   C1130   1.404   1_545 S
C406   O580    1.398   .     S
C406   C495    1.492   .     S
C406   O579    1.223   .     D
C407   O581    1.223   .     D
C407   C496    1.491   .     S
C407   O582    1.398   .     S
C408   O583    1.223   .     D
C408   O584    1.398   .     S
C408   C497    1.491   .     S
C409   H508    1.083   .     S
C409   C427    1.391   .     A
C409   C436    1.404   .     A
C410   H509    1.083   .     S
C410   C1061   1.402   .     S
C411   C413    1.392   .     A
C411   H510    1.083   .     S
C411   C1062   1.402   .     S
C412   H511    1.083   .     S
C412   C424    1.392   .     A
C412   C19     1.402   1_655 S
C413   C429    1.405   .     A
C413   H512    1.083   .     S
C414   H513    1.083   .     S
C414   C435    1.392   .     A
C414   C20     1.402   1_655 S
C415   C446    1.391   .     A
C415   H514    1.083   .     S
C416   C457    1.391   .     A
C416   H515    1.083   .     S
C417   H516    1.083   .     S
C417   C468    1.391   .     A
C418   H517    1.083   .     S
C418   C479    1.391   .     A
C419   H518    1.083   .     S
C419   C490    1.392   .     A
C420   H519    1.083   .     S
C421   H520    1.083   .     S
C422   H521    1.083   .     S
C423   H522    1.083   .     S
C424   H523    1.083   .     S
C424   C82     1.405   1_655 S
C425   H524    1.083   .     S
C425   C22     1.402   1_655 S
C426   H525    1.083   .     S
C426   C1067   1.402   1_545 S
C427   H526    1.083   .     S
C427   C1069   1.402   .     S
C428   C429    1.474   1_554 S
C428   C1142   1.404   .     S
C429   C428    1.474   1_556 S
C429   C1153   1.404   .     S
C430   C468    1.404   .     A
C430   C431    1.474   1_554 S
C431   C479    1.404   .     A
C431   C430    1.474   1_556 S
C432   C433    1.474   .     S
C434   C436    1.474   .     S
C434   C1101   1.404   .     S
C435   H534    1.083   .     S
C435   C83     1.405   1_655 S
C436   C1068   1.405   .     S
C437   O670    1.280   .     A
C437   O1322   1.279   1_545 S
C438   O566    1.280   .     A
C438   O1333   1.280   .     S
C439   O648    1.280   .     A
C440   O659    1.280   .     A
C440   O237    1.279   1_655 S
C441   O586    1.279   .     S
C441   O590    1.280   .     S
C442   O587    1.279   .     A
C442   O591    1.280   .     S
C443   O592    1.279   .     A
C443   O588    1.280   .     A
C444   O589    1.280   .     S
C444   O594    1.280   .     S
C445   O595    1.276   .     A
C445   C500    1.453   .     S
C445   O623    1.272   .     A
C446   H545    1.083   .     S
C446   C1124   1.404   1_545 S
C447   O624    1.276   .     A
C447   O596    1.272   .     A
C448   O597    1.277   .     A
C448   O621    1.273   .     A
C449   O598    1.277   .     A
C449   O622    1.273   .     A
C450   O599    1.274   .     A
C450   O628    1.279   .     A
C451   O600    1.279   .     A
C451   O629    1.274   .     A
C452   C498    1.452   .     S
C452   O601    1.273   .     A
C452   O625    1.277   .     A
C453   C499    1.452   .     S
C453   O602    1.273   .     A
C453   O627    1.277   .     A
C454   O614    1.277   .     A
C454   O603    1.273   .     A
C455   O605    1.273   .     A
C455   O616    1.277   .     A
C456   O612    1.272   .     A
C456   O606    1.276   .     A
C457   H556    1.083   .     S
C457   C1125   1.404   1_545 S
C458   O613    1.276   .     A
C458   O607    1.272   .     A
C459   O608    1.277   .     A
C459   O619    1.273   .     A
C460   O609    1.277   .     A
C460   O620    1.273   .     A
C461   O617    1.279   .     A
C461   O610    1.274   .     A
C462   O618    1.274   .     A
C462   O611    1.279   .     A
C463   C480    1.407   .     A
C464   C478    1.407   .     A
C465   C477    1.406   .     A
C466   C476    1.406   .     A
C467   C475    1.407   .     A
C468   H562    1.083   .     S
C469   C474    1.407   .     A
C470   C473    1.407   .     A
C471   C472    1.407   .     A
C477   C500    1.412   .     A
C478   C499    1.413   .     A
C479   H563    1.083   .     S
C480   C498    1.412   .     A
C481   C499    1.411   .     A
C481   C497    1.407   .     A
C482   C498    1.411   .     A
C482   C496    1.407   .     A
C483   C495    1.406   .     A
C484   C500    1.413   .     A
C484   C494    1.406   .     A
C485   C493    1.407   .     A
C486   C492    1.407   .     A
C487   C491    1.407   .     A
C488   C489    1.407   .     A
C490   H564    1.083   .     S
C490   C84     1.405   1_655 S
H527   O631    1.014   .     S
H528   O633    1.013   .     S
H529   O635    1.014   .     S
H530   O638    1.014   .     S
H531   O640    1.014   .     S
H532   O642    1.014   .     S
H533   O644    1.014   .     S
H535   O646    1.014   .     S
H536   O649    1.014   .     S
H537   O651    1.014   .     S
H538   O653    1.014   .     S
H539   O655    1.013   .     S
H540   O657    1.014   .     S
H541   O660    1.014   .     S
H542   O662    1.014   .     S
H543   O664    1.014   .     S
H544   O666    1.013   .     S
H546   O668    1.014   .     S
H547   O671    1.014   .     S
H548   O673    1.014   .     S
H549   O675    1.014   .     S
H550   O677    1.014   .     S
H551   O679    1.014   .     S
H552   O567    1.014   .     S
H553   O569    1.014   .     S
H554   O571    1.014   .     S
H555   O573    1.013   .     S
H557   O575    1.014   .     S
H558   O578    1.014   .     S
H559   O580    1.014   .     S
H560   O582    1.014   .     S
H561   O584    1.014   .     S
O565   Zn681   1.940   .     S
O565   Zn692   1.944   .     S
O565   Zn684   1.940   .     S
O565   Zn1384  1.944   1_545 S
O566   Zn683   1.942   .     S
O577   Zn686   1.940   .     S
O577   C91     1.279   1_655 S
O585   Zn685   1.940   .     S
O586   Zn695   1.940   .     S
O587   Zn694   1.940   .     S
O588   Zn689   1.942   .     S
O589   Zn681   1.942   .     S
O590   Zn691   1.942   .     S
O591   Zn690   1.942   .     S
O592   Zn693   1.940   .     S
O593   Zn693   1.944   .     S
O593   Zn689   1.940   .     S
O593   Zn687   1.944   .     S
O593   Zn1379  1.940   1_545 S
O594   Zn692   1.940   .     S
O595   Zn684   1.932   .     S
O596   Zn683   1.932   .     S
O597   Zn686   1.929   .     S
O598   Zn685   1.929   .     S
O599   Zn688   1.932   .     S
O600   Zn687   1.932   .     S
O601   Zn682   1.931   .     S
O602   Zn696   1.931   .     S
O603   Zn683   1.931   .     S
O604   Zn694   1.944   .     S
O604   Zn682   1.940   .     S
O604   Zn690   1.940   .     S
O605   Zn684   1.931   .     S
O606   Zn696   1.932   .     S
O607   Zn682   1.932   .     S
O608   Zn687   1.929   .     S
O609   Zn688   1.929   .     S
O610   Zn685   1.932   .     S
O611   Zn686   1.932   .     S
O612   Zn343   1.932   1_655 S
O613   Zn690   1.932   .     S
O614   Zn1389  1.929   .     S
O615   Zn685   1.944   .     S
O615   Zn695   1.944   .     S
O615   Zn691   1.940   .     S
O616   Zn692   1.929   .     S
O617   Zn695   1.932   .     S
O618   Zn346   1.932   1_655 S
O619   Zn689   1.931   .     S
O620   Zn1377  1.931   .     S
O621   Zn342   1.931   1_655 S
O622   Zn691   1.931   .     S
O623   Zn681   1.932   .     S
O624   Zn1385  1.932   .     S
O625   Zn694   1.929   .     S
O626   Zn688   1.940   .     S
O626   C1133   1.279   .     S
O627   Zn347   1.929   1_655 S
O628   Zn1388  1.932   .     S
O629   Zn693   1.932   .     S
O637   Zn687   1.940   .     S
O637   C1134   1.280   1_545 S
O648   Zn682   1.942   .     S
O659   Zn696   1.942   .     S
O670   Zn684   1.942   .     S
Zn681  O1316   1.931   1_545 S
Zn683  O1289   1.940   .     S
Zn686  O256    1.944   1_655 S
Zn688  O1261   1.944   .     S
Zn689  O1320   1.932   1_545 S
Zn692  O1324   1.932   1_545 S
Zn693  O1310   1.929   1_545 S
Zn696  O267    1.940   1_655 S
C697   C758    1.392   .     A
C697   H849    1.083   .     S
C697   C776    1.405   .     A
C698   H850    1.083   .     S
C698   C781    1.405   .     A
C698   C768    1.392   .     A
C699   C824    1.413   .     A
C699   C795    1.453   .     S
C699   C831    1.412   .     A
C700   C823    1.411   .     A
C700   C834    1.413   .     A
C700   C796    1.452   .     S
C701   C822    1.411   .     A
C701   C797    1.452   .     S
C701   C833    1.412   .     A
C702   C821    1.412   .     A
C702   C798    1.453   .     S
C702   C836    1.412   .     A
C703   C799    1.453   .     S
C703   C820    1.412   .     A
C703   C835    1.412   .     A
C704   C819    1.412   .     A
C704   C839    1.412   .     A
C704   C809    1.453   .     S
C705   C810    1.453   .     S
C705   C818    1.412   .     A
C705   C837    1.412   .     A
C706   C802    1.452   .     S
C706   C817    1.412   .     A
C706   C841    1.411   .     A
C707   C815    1.413   .     A
C707   C840    1.411   .     A
C707   C803    1.452   .     S
C708   C804    1.453   .     S
C708   C843    1.413   .     A
C708   C814    1.412   .     A
C709   H851    1.083   .     S
C709   C782    1.405   .     A
C709   C769    1.392   .     A
C710   C813    1.413   .     A
C710   C806    1.453   .     S
C710   C842    1.412   .     A
C711   C845    1.413   .     A
C711   C812    1.411   .     A
C711   C807    1.452   .     S
C712   C811    1.411   .     A
C712   C808    1.452   .     S
C712   C844    1.413   .     A
C713   C763    1.402   .     A
C713   C792    1.464   .     S
C714   C764    1.402   .     A
C714   C791    1.463   .     S
C715   C765    1.402   .     A
C715   C1108   1.402   1_455 S
C715   C790    1.464   .     S
C716   C766    1.402   .     A
C716   C789    1.463   .     S
C716   C1110   1.402   1_455 S
C717   C788    1.464   .     S
C717   C767    1.402   .     A
C717   C1119   1.402   .     S
C718   C787    1.463   .     S
C718   C768    1.402   .     A
C718   C1121   1.402   1_455 S
C719   C786    1.464   .     S
C719   C769    1.402   .     A
C719   C78     1.402   1_565 S
C720   H852    1.083   .     S
C720   C770    1.392   .     A
C721   C770    1.402   .     A
C721   C785    1.463   .     S
C722   O978    1.223   .     D
C722   C811    1.491   .     S
C722   O979    1.398   .     S
C723   O980    1.223   .     D
C723   O981    1.398   .     S
C723   C812    1.492   .     S
C724   O983    1.398   .     S
C724   O982    1.223   .     D
C724   C813    1.492   .     S
C725   O984    1.223   .     D
C725   O986    1.398   .     S
C725   C814    1.489   .     S
C726   O987    1.223   .     D
C726   C815    1.491   .     S
C726   O988    1.398   .     S
C727   C817    1.491   .     S
C727   O990    1.398   .     S
C727   O989    1.223   .     D
C728   O991    1.223   .     D
C728   O992    1.398   .     S
C728   C818    1.490   .     S
C729   O993    1.223   .     D
C729   O994    1.398   .     S
C729   C819    1.492   .     S
C730   C820    1.490   .     S
C730   O997    1.398   .     S
C730   O995    1.223   .     D
C731   H853    1.083   .     S
C731   C780    1.404   .     A
C731   C771    1.391   .     A
C732   O999    1.398   .     S
C732   O998    1.223   .     D
C732   C821    1.492   .     S
C733   O1001   1.398   .     S
C733   C822    1.491   .     S
C733   O1000   1.223   .     D
C734   O1002   1.223   .     D
C734   C823    1.492   .     S
C734   O1003   1.398   .     S
C735   O1005   1.398   .     S
C735   C824    1.492   .     S
C735   O1004   1.223   .     D
C736   O1006   1.223   .     D
C736   O1008   1.398   .     S
C736   C825    1.489   .     S
C737   O1009   1.223   .     D
C737   C826    1.491   .     S
C737   O1010   1.398   .     S
C738   O1012   1.398   .     S
C738   C828    1.491   .     S
C738   O1011   1.223   .     D
C739   C829    1.492   .     S
C739   O1014   1.398   .     S
C739   O1013   1.223   .     D
C740   C830    1.491   .     S
C740   O1016   1.398   .     S
C740   O1015   1.223   .     D
C741   C831    1.489   .     S
C741   O1017   1.223   .     D
C741   O1019   1.398   .     S
C742   C773    1.391   .     A
C742   H854    1.083   .     S
C742   C1129   1.404   .     S
C743   C832    1.492   .     S
C743   O1020   1.223   .     D
C743   O1021   1.398   .     S
C744   O1023   1.398   .     S
C744   C833    1.491   .     S
C744   O1022   1.223   .     D
C745   O1024   1.223   .     D
C745   O1025   1.398   .     S
C745   C834    1.491   .     S
C746   O1027   1.398   .     S
C746   C835    1.492   .     S
C746   O1026   1.223   .     D
C747   C836    1.490   .     S
C747   O915    1.398   .     S
C747   O1028   1.223   .     D
C748   C837    1.492   .     S
C748   O917    1.398   .     S
C748   O916    1.223   .     D
C749   O919    1.398   .     S
C749   O918    1.223   .     D
C749   C839    1.490   .     S
C750   C840    1.492   .     S
C750   O921    1.398   .     S
C750   O920    1.223   .     D
C751   O922    1.223   .     D
C751   C841    1.491   .     S
C751   O923    1.398   .     S
C752   O924    1.223   .     D
C752   O926    1.398   .     S
C752   C842    1.489   .     S
C753   H855    1.083   .     S
C753   C774    1.391   .     A
C754   O928    1.398   .     S
C754   C843    1.492   .     S
C754   O927    1.223   .     D
C755   O929    1.223   .     D
C755   C844    1.491   .     S
C755   O930    1.398   .     S
C756   O931    1.223   .     D
C756   O932    1.398   .     S
C756   C845    1.491   .     S
C757   H856    1.083   .     S
C757   C775    1.391   .     A
C757   C784    1.404   .     A
C758   H857    1.083   .     S
C758   C17     1.402   1_565 S
C759   C761    1.392   .     A
C759   H858    1.083   .     S
C759   C18     1.402   1_565 S
C760   H859    1.083   .     S
C760   C772    1.392   .     A
C760   C1063   1.402   .     S
C761   C777    1.405   .     A
C761   H860    1.083   .     S
C762   H861    1.083   .     S
C762   C783    1.392   .     A
C762   C1064   1.402   .     S
C763   C794    1.391   .     A
C763   H862    1.083   .     S
C764   C805    1.391   .     A
C764   H863    1.083   .     S
C765   H864    1.083   .     S
C765   C816    1.391   .     A
C766   H865    1.083   .     S
C766   C827    1.391   .     A
C767   H866    1.083   .     S
C767   C838    1.392   .     A
C768   H867    1.083   .     S
C769   H868    1.083   .     S
C770   H869    1.083   .     S
C771   H870    1.083   .     S
C771   C1065   1.402   1_455 S
C772   H871    1.083   .     S
C772   C1126   1.405   .     S
C773   H872    1.083   .     S
C773   C1066   1.402   .     S
C774   H873    1.083   .     S
C775   H874    1.083   .     S
C775   C25     1.402   1_565 S
C776   C777    1.474   1_554 S
C776   C98     1.404   1_565 S
C777   C776    1.474   1_556 S
C777   C109    1.404   1_565 S
C778   C816    1.404   .     A
C778   C1120   1.405   1_455 S
C778   C779    1.474   1_554 S
C779   C827    1.404   .     A
C779   C778    1.474   1_556 S
C779   C1131   1.405   1_455 S
C780   C781    1.474   .     S
C780   C1186   1.405   1_455 S
C781   C1090   1.404   1_455 S
C782   C784    1.474   .     S
C782   C57     1.404   1_565 S
C783   H882    1.083   .     S
C783   C1127   1.405   .     S
C784   C24     1.405   1_565 S
C785   O1018   1.280   .     A
C786   O914    1.280   .     A
C786   O289    1.280   1_565 S
C787   O996    1.280   .     A
C787   O1273   1.279   1_455 S
C788   O1007   1.280   .     A
C788   O1281   1.279   .     S
C789   O934    1.279   .     S
C789   O938    1.280   .     S
C790   O935    1.279   .     A
C790   O939    1.280   .     S
C791   O940    1.279   .     A
C791   O936    1.280   .     A
C792   O937    1.280   .     S
C792   O942    1.280   .     S
C793   O943    1.276   .     A
C793   C848    1.453   .     S
C793   O971    1.272   .     A
C794   H893    1.083   .     S
C795   O972    1.276   .     A
C795   O944    1.272   .     A
C796   O945    1.277   .     A
C796   O969    1.273   .     A
C797   O946    1.277   .     A
C797   O970    1.273   .     A
C798   O947    1.274   .     A
C798   O976    1.279   .     A
C799   O948    1.279   .     A
C799   O977    1.274   .     A
C800   C846    1.452   .     S
C800   O949    1.273   .     A
C800   O973    1.277   .     A
C801   C847    1.452   .     S
C801   O950    1.273   .     A
C801   O975    1.277   .     A
C802   O962    1.277   .     A
C802   O951    1.273   .     A
C803   O953    1.273   .     A
C803   O964    1.277   .     A
C804   O960    1.272   .     A
C804   O954    1.276   .     A
C805   H904    1.083   .     S
C806   O961    1.276   .     A
C806   O955    1.272   .     A
C807   O956    1.277   .     A
C807   O967    1.273   .     A
C808   O957    1.277   .     A
C808   O968    1.273   .     A
C809   O965    1.279   .     A
C809   O958    1.274   .     A
C810   O966    1.274   .     A
C810   O959    1.279   .     A
C811   C828    1.407   .     A
C812   C826    1.407   .     A
C813   C825    1.406   .     A
C814   C824    1.406   .     A
C815   C823    1.407   .     A
C816   H910    1.083   .     S
C817   C822    1.407   .     A
C818   C821    1.407   .     A
C819   C820    1.407   .     A
C825   C848    1.412   .     A
C826   C847    1.413   .     A
C827   H911    1.083   .     S
C828   C846    1.412   .     A
C829   C847    1.411   .     A
C829   C845    1.407   .     A
C830   C846    1.411   .     A
C830   C844    1.407   .     A
C831   C843    1.406   .     A
C832   C848    1.413   .     A
C832   C842    1.406   .     A
C833   C841    1.407   .     A
C834   C840    1.407   .     A
C835   C839    1.407   .     A
C836   C837    1.407   .     A
C838   H912    1.083   .     S
C838   C1128   1.405   .     S
H875   O979    1.014   .     S
H876   O981    1.013   .     S
H877   O983    1.014   .     S
H878   O986    1.014   .     S
H879   O988    1.014   .     S
H880   O990    1.014   .     S
H881   O992    1.014   .     S
H883   O994    1.014   .     S
H884   O997    1.014   .     S
H885   O999    1.014   .     S
H886   O1001   1.014   .     S
H887   O1003   1.013   .     S
H888   O1005   1.014   .     S
H889   O1008   1.014   .     S
H890   O1010   1.014   .     S
H891   O1012   1.014   .     S
H892   O1014   1.013   .     S
H894   O1016   1.014   .     S
H895   O1019   1.014   .     S
H896   O1021   1.014   .     S
H897   O1023   1.014   .     S
H898   O1025   1.014   .     S
H899   O1027   1.014   .     S
H900   O915    1.014   .     S
H901   O917    1.014   .     S
H902   O919    1.014   .     S
H903   O921    1.013   .     S
H905   O923    1.014   .     S
H906   O926    1.014   .     S
H907   O928    1.014   .     S
H908   O930    1.014   .     S
H909   O932    1.014   .     S
O913   Zn1029  1.940   .     S
O913   Zn1040  1.944   .     S
O913   Zn1032  1.940   .     S
O914   Zn1031  1.942   .     S
O925   Zn1034  1.940   .     S
O925   C1135   1.279   .     S
O933   Zn1033  1.940   .     S
O933   C1136   1.279   1_455 S
O934   Zn1043  1.940   .     S
O935   Zn1042  1.940   .     S
O936   Zn1037  1.942   .     S
O937   Zn1029  1.942   .     S
O938   Zn1039  1.942   .     S
O939   Zn1038  1.942   .     S
O940   Zn1041  1.940   .     S
O941   Zn1041  1.944   .     S
O941   Zn1037  1.940   .     S
O941   Zn1035  1.944   .     S
O942   Zn1040  1.940   .     S
O943   Zn1032  1.932   .     S
O944   Zn1031  1.932   .     S
O945   Zn1034  1.929   .     S
O946   Zn1033  1.929   .     S
O947   Zn1036  1.932   .     S
O948   Zn1035  1.932   .     S
O949   Zn1030  1.931   .     S
O950   Zn1044  1.931   .     S
O951   Zn1031  1.931   .     S
O952   Zn1382  1.944   1_455 S
O952   Zn1042  1.944   .     S
O952   Zn1030  1.940   .     S
O952   Zn1038  1.940   .     S
O953   Zn1032  1.931   .     S
O954   Zn1044  1.932   .     S
O955   Zn1030  1.932   .     S
O956   Zn1035  1.929   .     S
O957   Zn1036  1.929   .     S
O958   Zn1033  1.932   .     S
O959   Zn1034  1.932   .     S
O960   Zn1387  1.932   .     S
O961   Zn1038  1.932   .     S
O962   Zn345   1.929   1_565 S
O963   Zn1033  1.944   .     S
O963   Zn1043  1.944   .     S
O963   Zn1039  1.940   .     S
O963   Zn1392  1.940   1_455 S
O964   Zn1040  1.929   .     S
O965   Zn1043  1.932   .     S
O966   Zn1390  1.932   .     S
O967   Zn1037  1.931   .     S
O968   Zn333   1.931   1_565 S
O969   Zn1386  1.931   .     S
O970   Zn1039  1.931   .     S
O971   Zn1029  1.932   .     S
O972   Zn341   1.932   1_565 S
O973   Zn1042  1.929   .     S
O974   Zn1036  1.940   .     S
O974   C89     1.279   1_565 S
O975   Zn1391  1.929   .     S
O976   Zn344   1.932   1_565 S
O977   Zn1041  1.932   .     S
O985   Zn1035  1.940   .     S
O996   Zn1030  1.942   .     S
O1007  Zn1044  1.942   .     S
O1018  Zn1032  1.942   .     S
Zn1031 O245    1.940   1_565 S
Zn1034 O1300   1.944   .     S
Zn1036 O217    1.944   1_565 S
Zn1038 O1317   1.931   1_455 S
Zn1039 O1308   1.932   1_455 S
Zn1042 O1314   1.932   1_455 S
Zn1043 O1323   1.929   1_455 S
Zn1044 O1311   1.940   .     S
C1045  C1106   1.392   .     A
C1045  H1197   1.083   .     S
C1045  C1124   1.405   .     A
C1046  H1198   1.083   .     S
C1046  C1129   1.405   .     A
C1046  C1116   1.392   .     A
C1047  C1172   1.413   .     A
C1047  C1143   1.453   .     S
C1047  C1179   1.412   .     A
C1048  C1171   1.411   .     A
C1048  C1182   1.413   .     A
C1048  C1144   1.452   .     S
C1049  C1170   1.411   .     A
C1049  C1145   1.452   .     S
C1049  C1181   1.412   .     A
C1050  C1169   1.412   .     A
C1050  C1146   1.453   .     S
C1050  C1184   1.412   .     A
C1051  C1147   1.453   .     S
C1051  C1168   1.412   .     A
C1051  C1183   1.412   .     A
C1052  C1167   1.412   .     A
C1052  C1187   1.412   .     A
C1052  C1157   1.453   .     S
C1053  C1158   1.453   .     S
C1053  C1166   1.412   .     A
C1053  C1185   1.412   .     A
C1054  C1150   1.452   .     S
C1054  C1165   1.412   .     A
C1054  C1189   1.411   .     A
C1055  C1163   1.413   .     A
C1055  C1188   1.411   .     A
C1055  C1151   1.452   .     S
C1056  C1152   1.453   .     S
C1056  C1191   1.413   .     A
C1056  C1162   1.412   .     A
C1057  H1199   1.083   .     S
C1057  C1130   1.405   .     A
C1057  C1117   1.392   .     A
C1058  C1161   1.413   .     A
C1058  C1154   1.453   .     S
C1058  C1190   1.412   .     A
C1059  C1193   1.413   .     A
C1059  C1160   1.411   .     A
C1059  C1155   1.452   .     S
C1060  C1159   1.411   .     A
C1060  C1156   1.452   .     S
C1060  C1192   1.413   .     A
C1061  C1111   1.402   .     A
C1061  C1140   1.464   .     S
C1062  C1112   1.402   .     A
C1062  C1139   1.463   .     S
C1063  C1113   1.402   .     A
C1063  C1138   1.464   .     S
C1064  C1114   1.402   .     A
C1064  C1137   1.463   .     S
C1065  C1136   1.464   .     S
C1065  C1115   1.402   .     A
C1065  C771    1.402   1_655 S
C1066  C1135   1.463   .     S
C1066  C1116   1.402   .     A
C1067  C1134   1.464   .     S
C1067  C1117   1.402   .     A
C1067  C426    1.402   1_565 S
C1068  H1200   1.083   .     S
C1068  C1118   1.392   .     A
C1069  C1118   1.402   .     A
C1069  C1133   1.463   .     S
C1070  O1326   1.223   .     D
C1070  C1159   1.491   .     S
C1070  O1327   1.398   .     S
C1071  O1328   1.223   .     D
C1071  O1329   1.398   .     S
C1071  C1160   1.492   .     S
C1072  O1331   1.398   .     S
C1072  O1330   1.223   .     D
C1072  C1161   1.492   .     S
C1073  O1332   1.223   .     D
C1073  O1334   1.398   .     S
C1073  C1162   1.489   .     S
C1074  O1335   1.223   .     D
C1074  C1163   1.491   .     S
C1074  O1336   1.398   .     S
C1075  C1165   1.491   .     S
C1075  O1338   1.398   .     S
C1075  O1337   1.223   .     D
C1076  O1339   1.223   .     D
C1076  O1340   1.398   .     S
C1076  C1166   1.490   .     S
C1077  O1341   1.223   .     D
C1077  O1342   1.398   .     S
C1077  C1167   1.492   .     S
C1078  C1168   1.490   .     S
C1078  O1345   1.398   .     S
C1078  O1343   1.223   .     D
C1079  H1201   1.083   .     S
C1079  C1128   1.404   .     A
C1079  C1119   1.391   .     A
C1080  O1347   1.398   .     S
C1080  O1346   1.223   .     D
C1080  C1169   1.492   .     S
C1081  O1349   1.398   .     S
C1081  C1170   1.491   .     S
C1081  O1348   1.223   .     D
C1082  O1350   1.223   .     D
C1082  C1171   1.492   .     S
C1082  O1351   1.398   .     S
C1083  O1353   1.398   .     S
C1083  C1172   1.492   .     S
C1083  O1352   1.223   .     D
C1084  O1354   1.223   .     D
C1084  O1356   1.398   .     S
C1084  C1173   1.489   .     S
C1085  O1357   1.223   .     D
C1085  C1174   1.491   .     S
C1085  O1358   1.398   .     S
C1086  O1360   1.398   .     S
C1086  C1176   1.491   .     S
C1086  O1359   1.223   .     D
C1087  C1177   1.492   .     S
C1087  O1362   1.398   .     S
C1087  O1361   1.223   .     D
C1088  C1178   1.491   .     S
C1088  O1364   1.398   .     S
C1088  O1363   1.223   .     D
C1089  C1179   1.489   .     S
C1089  O1365   1.223   .     D
C1089  O1367   1.398   .     S
C1090  C1121   1.391   .     A
C1090  H1202   1.083   .     S
C1090  C781    1.404   1_655 S
C1091  C1180   1.492   .     S
C1091  O1368   1.223   .     D
C1091  O1369   1.398   .     S
C1092  O1371   1.398   .     S
C1092  C1181   1.491   .     S
C1092  O1370   1.223   .     D
C1093  O1372   1.223   .     D
C1093  O1373   1.398   .     S
C1093  C1182   1.491   .     S
C1094  O1375   1.398   .     S
C1094  C1183   1.492   .     S
C1094  O1374   1.223   .     D
C1095  C1184   1.490   .     S
C1095  O1263   1.398   .     S
C1095  O1376   1.223   .     D
C1096  C1185   1.492   .     S
C1096  O1265   1.398   .     S
C1096  O1264   1.223   .     D
C1097  O1267   1.398   .     S
C1097  O1266   1.223   .     D
C1097  C1187   1.490   .     S
C1098  C1188   1.492   .     S
C1098  O1269   1.398   .     S
C1098  O1268   1.223   .     D
C1099  O1270   1.223   .     D
C1099  C1189   1.491   .     S
C1099  O1271   1.398   .     S
C1100  O1272   1.223   .     D
C1100  O1274   1.398   .     S
C1100  C1190   1.489   .     S
C1101  H1203   1.083   .     S
C1101  C1122   1.391   .     A
C1102  O1276   1.398   .     S
C1102  C1191   1.492   .     S
C1102  O1275   1.223   .     D
C1103  O1277   1.223   .     D
C1103  C1192   1.491   .     S
C1103  O1278   1.398   .     S
C1104  O1279   1.223   .     D
C1104  O1280   1.398   .     S
C1104  C1193   1.491   .     S
C1105  H1204   1.083   .     S
C1105  C1123   1.391   .     A
C1105  C1132   1.404   .     A
C1106  H1205   1.083   .     S
C1106  C365    1.402   1_565 S
C1107  C1109   1.392   .     A
C1107  H1206   1.083   .     S
C1107  C366    1.402   1_565 S
C1108  H1207   1.083   .     S
C1108  C1120   1.392   .     A
C1108  C715    1.402   1_655 S
C1109  C1125   1.405   .     A
C1109  H1208   1.083   .     S
C1110  H1209   1.083   .     S
C1110  C1131   1.392   .     A
C1110  C716    1.402   1_655 S
C1111  C1142   1.391   .     A
C1111  H1210   1.083   .     S
C1112  C1153   1.391   .     A
C1112  H1211   1.083   .     S
C1113  H1212   1.083   .     S
C1113  C1164   1.391   .     A
C1114  H1213   1.083   .     S
C1114  C1175   1.391   .     A
C1115  H1214   1.083   .     S
C1115  C1186   1.392   .     A
C1116  H1215   1.083   .     S
C1117  H1216   1.083   .     S
C1118  H1217   1.083   .     S
C1119  H1218   1.083   .     S
C1120  H1219   1.083   .     S
C1120  C778    1.405   1_655 S
C1121  H1220   1.083   .     S
C1121  C718    1.402   1_655 S
C1122  H1221   1.083   .     S
C1123  H1222   1.083   .     S
C1123  C373    1.402   1_565 S
C1124  C1125   1.474   1_554 S
C1124  C446    1.404   1_565 S
C1125  C1124   1.474   1_556 S
C1125  C457    1.404   1_565 S
C1126  C1164   1.404   .     A
C1126  C1127   1.474   1_554 S
C1127  C1175   1.404   .     A
C1127  C1126   1.474   1_556 S
C1128  C1129   1.474   .     S
C1130  C1132   1.474   .     S
C1130  C405    1.404   1_565 S
C1131  H1230   1.083   .     S
C1131  C779    1.405   1_655 S
C1132  C372    1.405   1_565 S
C1133  O1366   1.280   .     A
C1134  O1262   1.280   .     A
C1134  O637    1.280   1_565 S
C1135  O1344   1.280   .     A
C1136  O1355   1.280   .     A
C1136  O933    1.279   1_655 S
C1137  O1282   1.279   .     S
C1137  O1286   1.280   .     S
C1138  O1283   1.279   .     A
C1138  O1287   1.280   .     S
C1139  O1288   1.279   .     A
C1139  O1284   1.280   .     A
C1140  O1285   1.280   .     S
C1140  O1290   1.280   .     S
C1141  O1291   1.276   .     A
C1141  C1196   1.453   .     S
C1141  O1319   1.272   .     A
C1142  H1241   1.083   .     S
C1143  O1320   1.276   .     A
C1143  O1292   1.272   .     A
C1144  O1293   1.277   .     A
C1144  O1317   1.273   .     A
C1145  O1294   1.277   .     A
C1145  O1318   1.273   .     A
C1146  O1295   1.274   .     A
C1146  O1324   1.279   .     A
C1147  O1296   1.279   .     A
C1147  O1325   1.274   .     A
C1148  C1194   1.452   .     S
C1148  O1297   1.273   .     A
C1148  O1321   1.277   .     A
C1149  C1195   1.452   .     S
C1149  O1298   1.273   .     A
C1149  O1323   1.277   .     A
C1150  O1310   1.277   .     A
C1150  O1299   1.273   .     A
C1151  O1301   1.273   .     A
C1151  O1312   1.277   .     A
C1152  O1308   1.272   .     A
C1152  O1302   1.276   .     A
C1153  H1252   1.083   .     S
C1154  O1309   1.276   .     A
C1154  O1303   1.272   .     A
C1155  O1304   1.277   .     A
C1155  O1315   1.273   .     A
C1156  O1305   1.277   .     A
C1156  O1316   1.273   .     A
C1157  O1313   1.279   .     A
C1157  O1306   1.274   .     A
C1158  O1314   1.274   .     A
C1158  O1307   1.279   .     A
C1159  C1176   1.407   .     A
C1160  C1174   1.407   .     A
C1161  C1173   1.406   .     A
C1162  C1172   1.406   .     A
C1163  C1171   1.407   .     A
C1164  H1258   1.083   .     S
C1165  C1170   1.407   .     A
C1166  C1169   1.407   .     A
C1167  C1168   1.407   .     A
C1173  C1196   1.412   .     A
C1174  C1195   1.413   .     A
C1175  H1259   1.083   .     S
C1176  C1194   1.412   .     A
C1177  C1195   1.411   .     A
C1177  C1193   1.407   .     A
C1178  C1194   1.411   .     A
C1178  C1192   1.407   .     A
C1179  C1191   1.406   .     A
C1180  C1196   1.413   .     A
C1180  C1190   1.406   .     A
C1181  C1189   1.407   .     A
C1182  C1188   1.407   .     A
C1183  C1187   1.407   .     A
C1184  C1185   1.407   .     A
C1186  H1260   1.083   .     S
C1186  C780    1.405   1_655 S
H1223  O1327   1.014   .     S
H1224  O1329   1.013   .     S
H1225  O1331   1.014   .     S
H1226  O1334   1.014   .     S
H1227  O1336   1.014   .     S
H1228  O1338   1.014   .     S
H1229  O1340   1.014   .     S
H1231  O1342   1.014   .     S
H1232  O1345   1.014   .     S
H1233  O1347   1.014   .     S
H1234  O1349   1.014   .     S
H1235  O1351   1.013   .     S
H1236  O1353   1.014   .     S
H1237  O1356   1.014   .     S
H1238  O1358   1.014   .     S
H1239  O1360   1.014   .     S
H1240  O1362   1.013   .     S
H1242  O1364   1.014   .     S
H1243  O1367   1.014   .     S
H1244  O1369   1.014   .     S
H1245  O1371   1.014   .     S
H1246  O1373   1.014   .     S
H1247  O1375   1.014   .     S
H1248  O1263   1.014   .     S
H1249  O1265   1.014   .     S
H1250  O1267   1.014   .     S
H1251  O1269   1.013   .     S
H1253  O1271   1.014   .     S
H1254  O1274   1.014   .     S
H1255  O1276   1.014   .     S
H1256  O1278   1.014   .     S
H1257  O1280   1.014   .     S
O1261  Zn1377  1.940   .     S
O1261  Zn1388  1.944   .     S
O1261  Zn1380  1.940   .     S
O1262  Zn1379  1.942   .     S
O1273  Zn1382  1.940   .     S
O1273  C787    1.279   1_655 S
O1281  Zn1381  1.940   .     S
O1282  Zn1391  1.940   .     S
O1283  Zn1390  1.940   .     S
O1284  Zn1385  1.942   .     S
O1285  Zn1377  1.942   .     S
O1286  Zn1387  1.942   .     S
O1287  Zn1386  1.942   .     S
O1288  Zn1389  1.940   .     S
O1289  Zn1389  1.944   .     S
O1289  Zn1385  1.940   .     S
O1289  Zn1383  1.944   .     S
O1290  Zn1388  1.940   .     S
O1291  Zn1380  1.932   .     S
O1292  Zn1379  1.932   .     S
O1293  Zn1382  1.929   .     S
O1294  Zn1381  1.929   .     S
O1295  Zn1384  1.932   .     S
O1296  Zn1383  1.932   .     S
O1297  Zn1378  1.931   .     S
O1298  Zn1392  1.931   .     S
O1299  Zn1379  1.931   .     S
O1300  Zn1390  1.944   .     S
O1300  Zn1378  1.940   .     S
O1300  Zn1386  1.940   .     S
O1301  Zn1380  1.931   .     S
O1302  Zn1392  1.932   .     S
O1303  Zn1378  1.932   .     S
O1304  Zn1383  1.929   .     S
O1305  Zn1384  1.929   .     S
O1306  Zn1381  1.932   .     S
O1307  Zn1382  1.932   .     S
O1308  Zn1039  1.932   1_655 S
O1309  Zn1386  1.932   .     S
O1310  Zn693   1.929   1_565 S
O1311  Zn1381  1.944   .     S
O1311  Zn1391  1.944   .     S
O1311  Zn1387  1.940   .     S
O1312  Zn1388  1.929   .     S
O1313  Zn1391  1.932   .     S
O1314  Zn1042  1.932   1_655 S
O1315  Zn1385  1.931   .     S
O1316  Zn681   1.931   1_565 S
O1317  Zn1038  1.931   1_655 S
O1318  Zn1387  1.931   .     S
O1319  Zn1377  1.932   .     S
O1320  Zn689   1.932   1_565 S
O1321  Zn1390  1.929   .     S
O1322  Zn1384  1.940   .     S
O1322  C437    1.279   1_565 S
O1323  Zn1043  1.929   1_655 S
O1324  Zn692   1.932   1_565 S
O1325  Zn1389  1.932   .     S
O1333  Zn1383  1.940   .     S
O1344  Zn1378  1.942   .     S
O1355  Zn1392  1.942   .     S
O1366  Zn1380  1.942   .     S
Zn1379 O593    1.940   1_565 S
Zn1382 O952    1.944   1_655 S
Zn1384 O565    1.944   1_565 S
Zn1392 O963    1.940   1_655 S
