data_str_m3_o10_o17_pcu_sym.84
_audit_creation_date              2020-01-03
_audit_creation_method            'Materials Studio'
_symmetry_space_group_name_H-M    'P1'
_symmetry_Int_Tables_number       1
_symmetry_cell_setting            triclinic
loop_
_symmetry_equiv_pos_as_xyz
  x,y,z
_cell_length_a                    23.4661
_cell_length_b                    26.3370
_cell_length_c                    29.8512
_cell_angle_alpha                 91.3736
_cell_angle_beta                  84.1674
_cell_angle_gamma                 92.6467
loop_
_atom_site_label
_atom_site_type_symbol
_atom_site_fract_x
_atom_site_fract_y
_atom_site_fract_z
_atom_site_U_iso_or_equiv
_atom_site_adp_type
_atom_site_occupancy
C1     C     0.18145   0.26455   0.24914   0.00000  Uiso   1.00
C2     C     0.18900   0.20716   0.40542   0.00000  Uiso   1.00
C3     C     0.16697   0.16865   0.11587   0.00000  Uiso   1.00
C4     C     0.16637   0.16468   0.38413   0.00000  Uiso   1.00
C5     C     0.19103   0.21080   0.09162   0.00000  Uiso   1.00
C6     C     0.14231   0.12253   0.40838   0.00000  Uiso   1.00
C7     C     0.18619   0.21234   0.04525   0.00000  Uiso   1.00
C8     C     0.14714   0.12100   0.45475   0.00000  Uiso   1.00
C9     C     0.16628   0.16759   0.02334   0.00000  Uiso   1.00
C10    C     0.16705   0.16575   0.47666   0.00000  Uiso   1.00
C11    C     0.14619   0.12438   0.04819   0.00000  Uiso   1.00
C12    C     0.15188   0.06879   0.25086   0.00000  Uiso   1.00
C13    C     0.18714   0.20896   0.45181   0.00000  Uiso   1.00
C14    C     0.20212   0.25687   0.02045   0.00000  Uiso   1.00
C15    C     0.13121   0.07647   0.47955   0.00000  Uiso   1.00
C16    C     0.28636   0.24149   0.10329   0.00000  Uiso   1.00
C17    C     0.04697   0.09184   0.39671   0.00000  Uiso   1.00
C18    C     0.25319   0.00173   0.02254   0.00000  Uiso   1.00
C19    C     0.27358   0.04039   0.05688   0.00000  Uiso   1.00
C20    C     0.08014   0.33160   0.47746   0.00000  Uiso   1.00
C21    C     0.05975   0.29295   0.44312   0.00000  Uiso   1.00
C22    C     0.27505   0.32701   0.19419   0.00000  Uiso   1.00
C23    C     0.20319   0.25411   0.47340   0.00000  Uiso   1.00
C24    C     0.05828   0.00632   0.30581   0.00000  Uiso   1.00
C25    C     0.00364   0.11099   0.16792   0.00000  Uiso   1.00
C26    C     0.32969   0.22235   0.33208   0.00000  Uiso   1.00
C27    C     0.13015   0.07922   0.02660   0.00000  Uiso   1.00
C28    C     0.18971   0.31831   0.24698   0.00000  Uiso   1.00
C29    C     0.14362   0.01502   0.25302   0.00000  Uiso   1.00
C30    C     0.16652   0.16614   0.33641   0.00000  Uiso   1.00
C31    C     0.16682   0.16719   0.16359   0.00000  Uiso   1.00
C32    C     0.14433   0.12617   0.09458   0.00000  Uiso   1.00
H33    H     0.12826   0.09340   0.11415   0.00000  Uiso   1.00
H34    H     0.03499   0.12538   0.37867   0.00000  Uiso   1.00
H35    H     0.03461   0.09737   0.43337   0.00000  Uiso   1.00
H36    H     0.02224   0.05788   0.38558   0.00000  Uiso   1.00
H37    H     0.23684   0.02305   0.49520   0.00000  Uiso   1.00
H38    H     0.29040   0.31293   0.00875   0.00000  Uiso   1.00
H39    H     0.29582   0.02123   0.08235   0.00000  Uiso   1.00
H40    H     0.30386   0.06908   0.03971   0.00000  Uiso   1.00
H41    H     0.23666   0.06015   0.07427   0.00000  Uiso   1.00
H42    H     0.04293   0.02040   0.49125   0.00000  Uiso   1.00
H43    H     0.09649   0.31028   0.00480   0.00000  Uiso   1.00
H44    H     0.20507   0.23994   0.38585   0.00000  Uiso   1.00
H45    H     0.09668   0.27319   0.42573   0.00000  Uiso   1.00
H46    H     0.02948   0.26426   0.46029   0.00000  Uiso   1.00
H47    H     0.03751   0.31211   0.41765   0.00000  Uiso   1.00
H48    H     0.27251   0.32945   0.26379   0.00000  Uiso   1.00
H49    H     0.31846   0.01168   0.18970   0.00000  Uiso   1.00
H50    H     0.24947   0.00769   0.16806   0.00000  Uiso   1.00
H51    H     0.28160   0.28590   0.18966   0.00000  Uiso   1.00
H52    H     0.06082   0.00389   0.23621   0.00000  Uiso   1.00
H53    H     0.01487   0.32165   0.31030   0.00000  Uiso   1.00
H54    H     0.05173   0.04743   0.31034   0.00000  Uiso   1.00
H55    H     0.21437   0.28751   0.45339   0.00000  Uiso   1.00
H56    H     0.08387   0.32564   0.33194   0.00000  Uiso   1.00
H57    H     0.00012   0.07940   0.23152   0.00000  Uiso   1.00
H58    H     0.03140   0.08173   0.15117   0.00000  Uiso   1.00
H59    H     0.01718   0.14805   0.15251   0.00000  Uiso   1.00
H60    H     0.29188   0.10073   0.16229   0.00000  Uiso   1.00
H61    H     0.33321   0.25393   0.26848   0.00000  Uiso   1.00
H62    H     0.30194   0.25160   0.34883   0.00000  Uiso   1.00
H63    H     0.04145   0.23260   0.33771   0.00000  Uiso   1.00
H64    H     0.31616   0.18528   0.34749   0.00000  Uiso   1.00
H65    H     0.11896   0.04583   0.04661   0.00000  Uiso   1.00
H66    H     0.21223   0.25633   0.14574   0.00000  Uiso   1.00
H67    H     0.29835   0.20795   0.12133   0.00000  Uiso   1.00
H68    H     0.31110   0.27545   0.11442   0.00000  Uiso   1.00
H69    H     0.29872   0.23596   0.06663   0.00000  Uiso   1.00
H70    H     0.12110   0.07700   0.35426   0.00000  Uiso   1.00
N71    N     0.31678   0.15265   0.23783   0.00000  Uiso   1.00
N72    N     0.01656   0.18068   0.26217   0.00000  Uiso   1.00
N73    N     0.22533   0.24862   0.11244   0.00000  Uiso   1.00
N74    N     0.10801   0.08471   0.38756   0.00000  Uiso   1.00
N75    N     0.24759   0.00474   0.23876   0.00000  Uiso   1.00
N76    N     0.08574   0.32859   0.26124   0.00000  Uiso   1.00
N77    N     0.01039   0.11312   0.21544   0.00000  Uiso   1.00
N78    N     0.32295   0.22022   0.28456   0.00000  Uiso   1.00
O79    O     0.12975   0.24619   0.25298   0.00000  Uiso   1.00
O80    O     0.12445   0.03022   0.45641   0.00000  Uiso   1.00
O81    O     0.20358   0.08714   0.24702   0.00000  Uiso   1.00
O82    O     0.22613   0.23721   0.24519   0.00000  Uiso   1.00
O83    O     0.10720   0.09613   0.25482   0.00000  Uiso   1.00
O84    O     0.11847   0.17117   0.31998   0.00000  Uiso   1.00
O85    O     0.21486   0.16216   0.18003   0.00000  Uiso   1.00
O86    O     0.21485   0.16219   0.31218   0.00000  Uiso   1.00
O87    O     0.11848   0.17115   0.18782   0.00000  Uiso   1.00
O88    O     0.20888   0.30312   0.04359   0.00000  Uiso   1.00
Zn89   Zn    0.10231   0.17266   0.25521   0.00000  Uiso   1.00
Zn90   Zn    0.23102   0.16067   0.24479   0.00000  Uiso   1.00
C91    C     0.51478   0.26455   0.24914   0.00000  Uiso   1.00
C92    C     0.52234   0.20716   0.40542   0.00000  Uiso   1.00
C93    C     0.50030   0.16865   0.11587   0.00000  Uiso   1.00
C94    C     0.49970   0.16468   0.38413   0.00000  Uiso   1.00
C95    C     0.52436   0.21080   0.09162   0.00000  Uiso   1.00
C96    C     0.47564   0.12253   0.40838   0.00000  Uiso   1.00
C97    C     0.51953   0.21234   0.04525   0.00000  Uiso   1.00
C98    C     0.48047   0.12100   0.45475   0.00000  Uiso   1.00
C99    C     0.49962   0.16759   0.02334   0.00000  Uiso   1.00
C100   C     0.50038   0.16575   0.47666   0.00000  Uiso   1.00
C101   C     0.47953   0.12438   0.04819   0.00000  Uiso   1.00
C102   C     0.48522   0.06879   0.25086   0.00000  Uiso   1.00
C103   C     0.52047   0.20896   0.45181   0.00000  Uiso   1.00
C104   C     0.53546   0.25687   0.02045   0.00000  Uiso   1.00
C105   C     0.46454   0.07647   0.47955   0.00000  Uiso   1.00
C106   C     0.61970   0.24149   0.10329   0.00000  Uiso   1.00
C107   C     0.38030   0.09184   0.39671   0.00000  Uiso   1.00
C108   C     0.58652   0.00173   0.02254   0.00000  Uiso   1.00
C109   C     0.60692   0.04039   0.05688   0.00000  Uiso   1.00
C110   C     0.41348   0.33160   0.47746   0.00000  Uiso   1.00
C111   C     0.39308   0.29295   0.44312   0.00000  Uiso   1.00
C112   C     0.60838   0.32701   0.19419   0.00000  Uiso   1.00
C113   C     0.53652   0.25411   0.47340   0.00000  Uiso   1.00
C114   C     0.39162   0.00632   0.30581   0.00000  Uiso   1.00
C115   C     0.33697   0.11099   0.16792   0.00000  Uiso   1.00
C116   C     0.66303   0.22235   0.33208   0.00000  Uiso   1.00
C117   C     0.46348   0.07922   0.02660   0.00000  Uiso   1.00
C118   C     0.52304   0.31831   0.24698   0.00000  Uiso   1.00
C119   C     0.47696   0.01502   0.25302   0.00000  Uiso   1.00
C120   C     0.49985   0.16614   0.33641   0.00000  Uiso   1.00
C121   C     0.50015   0.16719   0.16359   0.00000  Uiso   1.00
C122   C     0.47766   0.12617   0.09458   0.00000  Uiso   1.00
H123   H     0.46160   0.09340   0.11415   0.00000  Uiso   1.00
H124   H     0.36832   0.12538   0.37867   0.00000  Uiso   1.00
H125   H     0.36795   0.09737   0.43337   0.00000  Uiso   1.00
H126   H     0.35557   0.05788   0.38558   0.00000  Uiso   1.00
H127   H     0.57018   0.02305   0.49520   0.00000  Uiso   1.00
H128   H     0.62374   0.31293   0.00875   0.00000  Uiso   1.00
H129   H     0.62915   0.02123   0.08235   0.00000  Uiso   1.00
H130   H     0.63719   0.06908   0.03971   0.00000  Uiso   1.00
H131   H     0.56999   0.06015   0.07427   0.00000  Uiso   1.00
H132   H     0.37626   0.02040   0.49125   0.00000  Uiso   1.00
H133   H     0.42982   0.31028   0.00480   0.00000  Uiso   1.00
H134   H     0.53840   0.23994   0.38585   0.00000  Uiso   1.00
H135   H     0.43001   0.27319   0.42573   0.00000  Uiso   1.00
H136   H     0.36281   0.26426   0.46029   0.00000  Uiso   1.00
H137   H     0.37085   0.31211   0.41765   0.00000  Uiso   1.00
H138   H     0.60585   0.32945   0.26379   0.00000  Uiso   1.00
H139   H     0.65180   0.01168   0.18970   0.00000  Uiso   1.00
H140   H     0.58280   0.00769   0.16806   0.00000  Uiso   1.00
H141   H     0.61494   0.28590   0.18966   0.00000  Uiso   1.00
H142   H     0.39415   0.00389   0.23621   0.00000  Uiso   1.00
H143   H     0.34820   0.32165   0.31030   0.00000  Uiso   1.00
H144   H     0.38506   0.04743   0.31034   0.00000  Uiso   1.00
H145   H     0.54771   0.28751   0.45339   0.00000  Uiso   1.00
H146   H     0.41720   0.32564   0.33194   0.00000  Uiso   1.00
H147   H     0.33345   0.07940   0.23152   0.00000  Uiso   1.00
H148   H     0.36473   0.08173   0.15117   0.00000  Uiso   1.00
H149   H     0.35051   0.14805   0.15251   0.00000  Uiso   1.00
H150   H     0.62522   0.10073   0.16229   0.00000  Uiso   1.00
H151   H     0.66655   0.25393   0.26848   0.00000  Uiso   1.00
H152   H     0.63527   0.25160   0.34883   0.00000  Uiso   1.00
H153   H     0.37478   0.23260   0.33771   0.00000  Uiso   1.00
H154   H     0.64949   0.18528   0.34749   0.00000  Uiso   1.00
H155   H     0.45229   0.04583   0.04661   0.00000  Uiso   1.00
H156   H     0.54556   0.25633   0.14574   0.00000  Uiso   1.00
H157   H     0.63168   0.20795   0.12133   0.00000  Uiso   1.00
H158   H     0.64443   0.27545   0.11442   0.00000  Uiso   1.00
H159   H     0.63205   0.23596   0.06663   0.00000  Uiso   1.00
H160   H     0.45444   0.07700   0.35426   0.00000  Uiso   1.00
N161   N     0.65011   0.15265   0.23783   0.00000  Uiso   1.00
N162   N     0.34989   0.18068   0.26217   0.00000  Uiso   1.00
N163   N     0.55866   0.24862   0.11244   0.00000  Uiso   1.00
N164   N     0.44134   0.08471   0.38756   0.00000  Uiso   1.00
N165   N     0.58092   0.00474   0.23876   0.00000  Uiso   1.00
N166   N     0.41908   0.32859   0.26124   0.00000  Uiso   1.00
N167   N     0.34372   0.11312   0.21544   0.00000  Uiso   1.00
N168   N     0.65628   0.22022   0.28456   0.00000  Uiso   1.00
O169   O     0.46308   0.24619   0.25298   0.00000  Uiso   1.00
O170   O     0.45779   0.03022   0.45641   0.00000  Uiso   1.00
O171   O     0.53692   0.08714   0.24702   0.00000  Uiso   1.00
O172   O     0.55946   0.23721   0.24519   0.00000  Uiso   1.00
O173   O     0.44054   0.09613   0.25482   0.00000  Uiso   1.00
O174   O     0.45181   0.17117   0.31998   0.00000  Uiso   1.00
O175   O     0.54819   0.16216   0.18003   0.00000  Uiso   1.00
O176   O     0.54819   0.16219   0.31218   0.00000  Uiso   1.00
O177   O     0.45181   0.17115   0.18782   0.00000  Uiso   1.00
O178   O     0.54222   0.30312   0.04359   0.00000  Uiso   1.00
Zn179  Zn    0.43565   0.17266   0.25521   0.00000  Uiso   1.00
Zn180  Zn    0.56435   0.16067   0.24479   0.00000  Uiso   1.00
C181   C     0.84812   0.26455   0.24914   0.00000  Uiso   1.00
C182   C     0.85567   0.20716   0.40542   0.00000  Uiso   1.00
C183   C     0.83363   0.16865   0.11587   0.00000  Uiso   1.00
C184   C     0.83303   0.16468   0.38413   0.00000  Uiso   1.00
C185   C     0.85769   0.21080   0.09162   0.00000  Uiso   1.00
C186   C     0.80897   0.12253   0.40838   0.00000  Uiso   1.00
C187   C     0.85286   0.21234   0.04525   0.00000  Uiso   1.00
C188   C     0.81381   0.12100   0.45475   0.00000  Uiso   1.00
C189   C     0.83295   0.16759   0.02334   0.00000  Uiso   1.00
C190   C     0.83372   0.16575   0.47666   0.00000  Uiso   1.00
C191   C     0.81286   0.12438   0.04819   0.00000  Uiso   1.00
C192   C     0.81855   0.06879   0.25086   0.00000  Uiso   1.00
C193   C     0.85381   0.20896   0.45181   0.00000  Uiso   1.00
C194   C     0.86879   0.25687   0.02045   0.00000  Uiso   1.00
C195   C     0.79788   0.07647   0.47955   0.00000  Uiso   1.00
C196   C     0.95303   0.24149   0.10329   0.00000  Uiso   1.00
C197   C     0.71364   0.09184   0.39671   0.00000  Uiso   1.00
C198   C     0.91986   0.00173   0.02254   0.00000  Uiso   1.00
C199   C     0.94025   0.04039   0.05688   0.00000  Uiso   1.00
C200   C     0.74681   0.33160   0.47746   0.00000  Uiso   1.00
C201   C     0.72642   0.29295   0.44312   0.00000  Uiso   1.00
C202   C     0.94172   0.32701   0.19419   0.00000  Uiso   1.00
C203   C     0.86985   0.25411   0.47340   0.00000  Uiso   1.00
C204   C     0.72495   0.00632   0.30581   0.00000  Uiso   1.00
C205   C     0.67031   0.11099   0.16792   0.00000  Uiso   1.00
C206   C     0.99636   0.22235   0.33208   0.00000  Uiso   1.00
C207   C     0.79681   0.07922   0.02660   0.00000  Uiso   1.00
C208   C     0.85638   0.31831   0.24698   0.00000  Uiso   1.00
C209   C     0.81029   0.01502   0.25302   0.00000  Uiso   1.00
C210   C     0.83318   0.16614   0.33641   0.00000  Uiso   1.00
C211   C     0.83348   0.16719   0.16359   0.00000  Uiso   1.00
C212   C     0.81100   0.12617   0.09458   0.00000  Uiso   1.00
H213   H     0.79493   0.09340   0.11415   0.00000  Uiso   1.00
H214   H     0.70166   0.12538   0.37867   0.00000  Uiso   1.00
H215   H     0.70128   0.09737   0.43337   0.00000  Uiso   1.00
H216   H     0.68891   0.05788   0.38558   0.00000  Uiso   1.00
H217   H     0.90351   0.02305   0.49520   0.00000  Uiso   1.00
H218   H     0.95707   0.31293   0.00875   0.00000  Uiso   1.00
H219   H     0.96249   0.02123   0.08235   0.00000  Uiso   1.00
H220   H     0.97052   0.06908   0.03971   0.00000  Uiso   1.00
H221   H     0.90332   0.06015   0.07427   0.00000  Uiso   1.00
H222   H     0.70960   0.02040   0.49125   0.00000  Uiso   1.00
H223   H     0.76316   0.31028   0.00480   0.00000  Uiso   1.00
H224   H     0.87174   0.23994   0.38585   0.00000  Uiso   1.00
H225   H     0.76334   0.27319   0.42573   0.00000  Uiso   1.00
H226   H     0.69614   0.26426   0.46029   0.00000  Uiso   1.00
H227   H     0.70418   0.31211   0.41765   0.00000  Uiso   1.00
H228   H     0.93918   0.32945   0.26379   0.00000  Uiso   1.00
H229   H     0.98513   0.01168   0.18970   0.00000  Uiso   1.00
H230   H     0.91613   0.00769   0.16806   0.00000  Uiso   1.00
H231   H     0.94827   0.28590   0.18966   0.00000  Uiso   1.00
H232   H     0.72749   0.00389   0.23621   0.00000  Uiso   1.00
H233   H     0.68154   0.32165   0.31030   0.00000  Uiso   1.00
H234   H     0.71840   0.04743   0.31034   0.00000  Uiso   1.00
H235   H     0.88104   0.28751   0.45339   0.00000  Uiso   1.00
H236   H     0.75053   0.32564   0.33194   0.00000  Uiso   1.00
H237   H     0.66679   0.07940   0.23152   0.00000  Uiso   1.00
H238   H     0.69806   0.08173   0.15117   0.00000  Uiso   1.00
H239   H     0.68384   0.14805   0.15251   0.00000  Uiso   1.00
H240   H     0.95855   0.10073   0.16229   0.00000  Uiso   1.00
H241   H     0.99988   0.25393   0.26848   0.00000  Uiso   1.00
H242   H     0.96860   0.25160   0.34883   0.00000  Uiso   1.00
H243   H     0.70812   0.23260   0.33771   0.00000  Uiso   1.00
H244   H     0.98282   0.18528   0.34749   0.00000  Uiso   1.00
H245   H     0.78563   0.04583   0.04661   0.00000  Uiso   1.00
H246   H     0.87890   0.25633   0.14574   0.00000  Uiso   1.00
H247   H     0.96501   0.20795   0.12133   0.00000  Uiso   1.00
H248   H     0.97776   0.27545   0.11442   0.00000  Uiso   1.00
H249   H     0.96539   0.23596   0.06663   0.00000  Uiso   1.00
H250   H     0.78777   0.07700   0.35426   0.00000  Uiso   1.00
N251   N     0.98344   0.15265   0.23783   0.00000  Uiso   1.00
N252   N     0.68322   0.18068   0.26217   0.00000  Uiso   1.00
N253   N     0.89200   0.24862   0.11244   0.00000  Uiso   1.00
N254   N     0.77467   0.08471   0.38756   0.00000  Uiso   1.00
N255   N     0.91426   0.00474   0.23876   0.00000  Uiso   1.00
N256   N     0.75241   0.32859   0.26124   0.00000  Uiso   1.00
N257   N     0.67705   0.11312   0.21544   0.00000  Uiso   1.00
N258   N     0.98961   0.22022   0.28456   0.00000  Uiso   1.00
O259   O     0.79642   0.24619   0.25298   0.00000  Uiso   1.00
O260   O     0.79112   0.03022   0.45641   0.00000  Uiso   1.00
O261   O     0.87025   0.08714   0.24702   0.00000  Uiso   1.00
O262   O     0.89280   0.23721   0.24519   0.00000  Uiso   1.00
O263   O     0.77387   0.09613   0.25482   0.00000  Uiso   1.00
O264   O     0.78514   0.17117   0.31998   0.00000  Uiso   1.00
O265   O     0.88153   0.16216   0.18003   0.00000  Uiso   1.00
O266   O     0.88152   0.16219   0.31218   0.00000  Uiso   1.00
O267   O     0.78515   0.17115   0.18782   0.00000  Uiso   1.00
O268   O     0.87555   0.30312   0.04359   0.00000  Uiso   1.00
Zn269  Zn    0.76898   0.17266   0.25521   0.00000  Uiso   1.00
Zn270  Zn    0.89769   0.16067   0.24479   0.00000  Uiso   1.00
C271   C     0.18145   0.59788   0.24914   0.00000  Uiso   1.00
C272   C     0.18900   0.54049   0.40542   0.00000  Uiso   1.00
C273   C     0.16697   0.50198   0.11587   0.00000  Uiso   1.00
C274   C     0.16637   0.49802   0.38413   0.00000  Uiso   1.00
C275   C     0.19103   0.54414   0.09162   0.00000  Uiso   1.00
C276   C     0.14231   0.45586   0.40838   0.00000  Uiso   1.00
C277   C     0.18619   0.54567   0.04525   0.00000  Uiso   1.00
C278   C     0.14714   0.45433   0.45475   0.00000  Uiso   1.00
C279   C     0.16628   0.50092   0.02334   0.00000  Uiso   1.00
C280   C     0.16705   0.49908   0.47666   0.00000  Uiso   1.00
C281   C     0.14619   0.45771   0.04819   0.00000  Uiso   1.00
C282   C     0.15188   0.40212   0.25086   0.00000  Uiso   1.00
C283   C     0.18714   0.54229   0.45181   0.00000  Uiso   1.00
C284   C     0.20212   0.59020   0.02045   0.00000  Uiso   1.00
C285   C     0.13121   0.40980   0.47955   0.00000  Uiso   1.00
C286   C     0.28636   0.57483   0.10329   0.00000  Uiso   1.00
C287   C     0.04697   0.42517   0.39671   0.00000  Uiso   1.00
C288   C     0.25319   0.33507   0.02254   0.00000  Uiso   1.00
C289   C     0.27358   0.37372   0.05688   0.00000  Uiso   1.00
C290   C     0.08014   0.66493   0.47746   0.00000  Uiso   1.00
C291   C     0.05975   0.62628   0.44312   0.00000  Uiso   1.00
C292   C     0.27505   0.66034   0.19419   0.00000  Uiso   1.00
C293   C     0.20319   0.58744   0.47340   0.00000  Uiso   1.00
C294   C     0.05828   0.33965   0.30581   0.00000  Uiso   1.00
C295   C     0.00364   0.44432   0.16792   0.00000  Uiso   1.00
C296   C     0.32969   0.55568   0.33208   0.00000  Uiso   1.00
C297   C     0.13015   0.41256   0.02660   0.00000  Uiso   1.00
C298   C     0.18971   0.65164   0.24698   0.00000  Uiso   1.00
C299   C     0.14362   0.34836   0.25302   0.00000  Uiso   1.00
C300   C     0.16652   0.49948   0.33641   0.00000  Uiso   1.00
C301   C     0.16682   0.50052   0.16359   0.00000  Uiso   1.00
C302   C     0.14433   0.45951   0.09458   0.00000  Uiso   1.00
H303   H     0.12826   0.42673   0.11415   0.00000  Uiso   1.00
H304   H     0.03499   0.45872   0.37867   0.00000  Uiso   1.00
H305   H     0.03461   0.43070   0.43337   0.00000  Uiso   1.00
H306   H     0.02224   0.39121   0.38558   0.00000  Uiso   1.00
H307   H     0.23684   0.35639   0.49520   0.00000  Uiso   1.00
H308   H     0.29040   0.64627   0.00875   0.00000  Uiso   1.00
H309   H     0.29582   0.35456   0.08235   0.00000  Uiso   1.00
H310   H     0.30386   0.40241   0.03971   0.00000  Uiso   1.00
H311   H     0.23666   0.39348   0.07427   0.00000  Uiso   1.00
H312   H     0.04293   0.35373   0.49125   0.00000  Uiso   1.00
H313   H     0.09649   0.64361   0.00480   0.00000  Uiso   1.00
H314   H     0.20507   0.57327   0.38585   0.00000  Uiso   1.00
H315   H     0.09668   0.60652   0.42573   0.00000  Uiso   1.00
H316   H     0.02948   0.59759   0.46029   0.00000  Uiso   1.00
H317   H     0.03751   0.64544   0.41765   0.00000  Uiso   1.00
H318   H     0.27251   0.66278   0.26379   0.00000  Uiso   1.00
H319   H     0.31846   0.34502   0.18970   0.00000  Uiso   1.00
H320   H     0.24947   0.34102   0.16806   0.00000  Uiso   1.00
H321   H     0.28160   0.61923   0.18966   0.00000  Uiso   1.00
H322   H     0.06082   0.33722   0.23621   0.00000  Uiso   1.00
H323   H     0.01487   0.65498   0.31030   0.00000  Uiso   1.00
H324   H     0.05173   0.38077   0.31034   0.00000  Uiso   1.00
H325   H     0.21437   0.62084   0.45339   0.00000  Uiso   1.00
H326   H     0.08387   0.65898   0.33194   0.00000  Uiso   1.00
H327   H     0.00012   0.41273   0.23152   0.00000  Uiso   1.00
H328   H     0.03140   0.41506   0.15117   0.00000  Uiso   1.00
H329   H     0.01718   0.48139   0.15251   0.00000  Uiso   1.00
H330   H     0.29188   0.43406   0.16229   0.00000  Uiso   1.00
H331   H     0.33321   0.58727   0.26848   0.00000  Uiso   1.00
H332   H     0.30194   0.58494   0.34883   0.00000  Uiso   1.00
H333   H     0.04145   0.56594   0.33771   0.00000  Uiso   1.00
H334   H     0.31616   0.51861   0.34749   0.00000  Uiso   1.00
H335   H     0.11896   0.37916   0.04661   0.00000  Uiso   1.00
H336   H     0.21223   0.58966   0.14574   0.00000  Uiso   1.00
H337   H     0.29835   0.54128   0.12133   0.00000  Uiso   1.00
H338   H     0.31110   0.60879   0.11442   0.00000  Uiso   1.00
H339   H     0.29872   0.56930   0.06663   0.00000  Uiso   1.00
H340   H     0.12110   0.41034   0.35426   0.00000  Uiso   1.00
N341   N     0.31678   0.48598   0.23783   0.00000  Uiso   1.00
N342   N     0.01656   0.51402   0.26217   0.00000  Uiso   1.00
N343   N     0.22533   0.58196   0.11244   0.00000  Uiso   1.00
N344   N     0.10801   0.41804   0.38756   0.00000  Uiso   1.00
N345   N     0.24759   0.33808   0.23876   0.00000  Uiso   1.00
N346   N     0.08574   0.66192   0.26124   0.00000  Uiso   1.00
N347   N     0.01039   0.44645   0.21544   0.00000  Uiso   1.00
N348   N     0.32295   0.55355   0.28456   0.00000  Uiso   1.00
O349   O     0.12975   0.57952   0.25298   0.00000  Uiso   1.00
O350   O     0.12445   0.36355   0.45641   0.00000  Uiso   1.00
O351   O     0.20358   0.42048   0.24702   0.00000  Uiso   1.00
O352   O     0.22613   0.57054   0.24519   0.00000  Uiso   1.00
O353   O     0.10720   0.42946   0.25482   0.00000  Uiso   1.00
O354   O     0.11847   0.50450   0.31998   0.00000  Uiso   1.00
O355   O     0.21486   0.49550   0.18003   0.00000  Uiso   1.00
O356   O     0.21485   0.49552   0.31218   0.00000  Uiso   1.00
O357   O     0.11848   0.50448   0.18782   0.00000  Uiso   1.00
O358   O     0.20888   0.63645   0.04359   0.00000  Uiso   1.00
Zn359  Zn    0.10231   0.50600   0.25521   0.00000  Uiso   1.00
Zn360  Zn    0.23102   0.49400   0.24479   0.00000  Uiso   1.00
C361   C     0.51478   0.59788   0.24914   0.00000  Uiso   1.00
C362   C     0.52234   0.54049   0.40542   0.00000  Uiso   1.00
C363   C     0.50030   0.50198   0.11587   0.00000  Uiso   1.00
C364   C     0.49970   0.49802   0.38413   0.00000  Uiso   1.00
C365   C     0.52436   0.54414   0.09162   0.00000  Uiso   1.00
C366   C     0.47564   0.45586   0.40838   0.00000  Uiso   1.00
C367   C     0.51953   0.54567   0.04525   0.00000  Uiso   1.00
C368   C     0.48047   0.45433   0.45475   0.00000  Uiso   1.00
C369   C     0.49962   0.50092   0.02334   0.00000  Uiso   1.00
C370   C     0.50038   0.49908   0.47666   0.00000  Uiso   1.00
C371   C     0.47953   0.45771   0.04819   0.00000  Uiso   1.00
C372   C     0.48522   0.40212   0.25086   0.00000  Uiso   1.00
C373   C     0.52047   0.54229   0.45181   0.00000  Uiso   1.00
C374   C     0.53546   0.59020   0.02045   0.00000  Uiso   1.00
C375   C     0.46454   0.40980   0.47955   0.00000  Uiso   1.00
C376   C     0.61970   0.57483   0.10329   0.00000  Uiso   1.00
C377   C     0.38030   0.42517   0.39671   0.00000  Uiso   1.00
C378   C     0.58652   0.33507   0.02254   0.00000  Uiso   1.00
C379   C     0.60692   0.37372   0.05688   0.00000  Uiso   1.00
C380   C     0.41348   0.66493   0.47746   0.00000  Uiso   1.00
C381   C     0.39308   0.62628   0.44312   0.00000  Uiso   1.00
C382   C     0.60838   0.66034   0.19419   0.00000  Uiso   1.00
C383   C     0.53652   0.58744   0.47340   0.00000  Uiso   1.00
C384   C     0.39162   0.33965   0.30581   0.00000  Uiso   1.00
C385   C     0.33697   0.44432   0.16792   0.00000  Uiso   1.00
C386   C     0.66303   0.55568   0.33208   0.00000  Uiso   1.00
C387   C     0.46348   0.41256   0.02660   0.00000  Uiso   1.00
C388   C     0.52304   0.65164   0.24698   0.00000  Uiso   1.00
C389   C     0.47696   0.34836   0.25302   0.00000  Uiso   1.00
C390   C     0.49985   0.49948   0.33641   0.00000  Uiso   1.00
C391   C     0.50015   0.50052   0.16359   0.00000  Uiso   1.00
C392   C     0.47766   0.45951   0.09458   0.00000  Uiso   1.00
H393   H     0.46160   0.42673   0.11415   0.00000  Uiso   1.00
H394   H     0.36832   0.45872   0.37867   0.00000  Uiso   1.00
H395   H     0.36795   0.43070   0.43337   0.00000  Uiso   1.00
H396   H     0.35557   0.39121   0.38558   0.00000  Uiso   1.00
H397   H     0.57018   0.35639   0.49520   0.00000  Uiso   1.00
H398   H     0.62374   0.64627   0.00875   0.00000  Uiso   1.00
H399   H     0.62915   0.35456   0.08235   0.00000  Uiso   1.00
H400   H     0.63719   0.40241   0.03971   0.00000  Uiso   1.00
H401   H     0.56999   0.39348   0.07427   0.00000  Uiso   1.00
H402   H     0.37626   0.35373   0.49125   0.00000  Uiso   1.00
H403   H     0.42982   0.64361   0.00480   0.00000  Uiso   1.00
H404   H     0.53840   0.57327   0.38585   0.00000  Uiso   1.00
H405   H     0.43001   0.60652   0.42573   0.00000  Uiso   1.00
H406   H     0.36281   0.59759   0.46029   0.00000  Uiso   1.00
H407   H     0.37085   0.64544   0.41765   0.00000  Uiso   1.00
H408   H     0.60585   0.66278   0.26379   0.00000  Uiso   1.00
H409   H     0.65180   0.34502   0.18970   0.00000  Uiso   1.00
H410   H     0.58280   0.34102   0.16806   0.00000  Uiso   1.00
H411   H     0.61494   0.61923   0.18966   0.00000  Uiso   1.00
H412   H     0.39415   0.33722   0.23621   0.00000  Uiso   1.00
H413   H     0.34820   0.65498   0.31030   0.00000  Uiso   1.00
H414   H     0.38506   0.38077   0.31034   0.00000  Uiso   1.00
H415   H     0.54771   0.62084   0.45339   0.00000  Uiso   1.00
H416   H     0.41720   0.65898   0.33194   0.00000  Uiso   1.00
H417   H     0.33345   0.41273   0.23152   0.00000  Uiso   1.00
H418   H     0.36473   0.41506   0.15117   0.00000  Uiso   1.00
H419   H     0.35051   0.48139   0.15251   0.00000  Uiso   1.00
H420   H     0.62522   0.43406   0.16229   0.00000  Uiso   1.00
H421   H     0.66655   0.58727   0.26848   0.00000  Uiso   1.00
H422   H     0.63527   0.58494   0.34883   0.00000  Uiso   1.00
H423   H     0.37478   0.56594   0.33771   0.00000  Uiso   1.00
H424   H     0.64949   0.51861   0.34749   0.00000  Uiso   1.00
H425   H     0.45229   0.37916   0.04661   0.00000  Uiso   1.00
H426   H     0.54556   0.58966   0.14574   0.00000  Uiso   1.00
H427   H     0.63168   0.54128   0.12133   0.00000  Uiso   1.00
H428   H     0.64443   0.60879   0.11442   0.00000  Uiso   1.00
H429   H     0.63205   0.56930   0.06663   0.00000  Uiso   1.00
H430   H     0.45444   0.41034   0.35426   0.00000  Uiso   1.00
N431   N     0.65011   0.48598   0.23783   0.00000  Uiso   1.00
N432   N     0.34989   0.51402   0.26217   0.00000  Uiso   1.00
N433   N     0.55866   0.58196   0.11244   0.00000  Uiso   1.00
N434   N     0.44134   0.41804   0.38756   0.00000  Uiso   1.00
N435   N     0.58092   0.33808   0.23876   0.00000  Uiso   1.00
N436   N     0.41908   0.66192   0.26124   0.00000  Uiso   1.00
N437   N     0.34372   0.44645   0.21544   0.00000  Uiso   1.00
N438   N     0.65628   0.55355   0.28456   0.00000  Uiso   1.00
O439   O     0.46308   0.57952   0.25298   0.00000  Uiso   1.00
O440   O     0.45779   0.36355   0.45641   0.00000  Uiso   1.00
O441   O     0.53692   0.42048   0.24702   0.00000  Uiso   1.00
O442   O     0.55946   0.57054   0.24519   0.00000  Uiso   1.00
O443   O     0.44054   0.42946   0.25482   0.00000  Uiso   1.00
O444   O     0.45181   0.50450   0.31998   0.00000  Uiso   1.00
O445   O     0.54819   0.49550   0.18003   0.00000  Uiso   1.00
O446   O     0.54819   0.49552   0.31218   0.00000  Uiso   1.00
O447   O     0.45181   0.50448   0.18782   0.00000  Uiso   1.00
O448   O     0.54222   0.63645   0.04359   0.00000  Uiso   1.00
Zn449  Zn    0.43565   0.50600   0.25521   0.00000  Uiso   1.00
Zn450  Zn    0.56435   0.49400   0.24479   0.00000  Uiso   1.00
C451   C     0.84812   0.59788   0.24914   0.00000  Uiso   1.00
C452   C     0.85567   0.54049   0.40542   0.00000  Uiso   1.00
C453   C     0.83363   0.50198   0.11587   0.00000  Uiso   1.00
C454   C     0.83303   0.49802   0.38413   0.00000  Uiso   1.00
C455   C     0.85769   0.54414   0.09162   0.00000  Uiso   1.00
C456   C     0.80897   0.45586   0.40838   0.00000  Uiso   1.00
C457   C     0.85286   0.54567   0.04525   0.00000  Uiso   1.00
C458   C     0.81381   0.45433   0.45475   0.00000  Uiso   1.00
C459   C     0.83295   0.50092   0.02334   0.00000  Uiso   1.00
C460   C     0.83372   0.49908   0.47666   0.00000  Uiso   1.00
C461   C     0.81286   0.45771   0.04819   0.00000  Uiso   1.00
C462   C     0.81855   0.40212   0.25086   0.00000  Uiso   1.00
C463   C     0.85381   0.54229   0.45181   0.00000  Uiso   1.00
C464   C     0.86879   0.59020   0.02045   0.00000  Uiso   1.00
C465   C     0.79788   0.40980   0.47955   0.00000  Uiso   1.00
C466   C     0.95303   0.57483   0.10329   0.00000  Uiso   1.00
C467   C     0.71364   0.42517   0.39671   0.00000  Uiso   1.00
C468   C     0.91986   0.33507   0.02254   0.00000  Uiso   1.00
C469   C     0.94025   0.37372   0.05688   0.00000  Uiso   1.00
C470   C     0.74681   0.66493   0.47746   0.00000  Uiso   1.00
C471   C     0.72642   0.62628   0.44312   0.00000  Uiso   1.00
C472   C     0.94172   0.66034   0.19419   0.00000  Uiso   1.00
C473   C     0.86985   0.58744   0.47340   0.00000  Uiso   1.00
C474   C     0.72495   0.33965   0.30581   0.00000  Uiso   1.00
C475   C     0.67031   0.44432   0.16792   0.00000  Uiso   1.00
C476   C     0.99636   0.55568   0.33208   0.00000  Uiso   1.00
C477   C     0.79681   0.41256   0.02660   0.00000  Uiso   1.00
C478   C     0.85638   0.65164   0.24698   0.00000  Uiso   1.00
C479   C     0.81029   0.34836   0.25302   0.00000  Uiso   1.00
C480   C     0.83318   0.49948   0.33641   0.00000  Uiso   1.00
C481   C     0.83348   0.50052   0.16359   0.00000  Uiso   1.00
C482   C     0.81100   0.45951   0.09458   0.00000  Uiso   1.00
H483   H     0.79493   0.42673   0.11415   0.00000  Uiso   1.00
H484   H     0.70166   0.45872   0.37867   0.00000  Uiso   1.00
H485   H     0.70128   0.43070   0.43337   0.00000  Uiso   1.00
H486   H     0.68891   0.39121   0.38558   0.00000  Uiso   1.00
H487   H     0.90351   0.35639   0.49520   0.00000  Uiso   1.00
H488   H     0.95707   0.64627   0.00875   0.00000  Uiso   1.00
H489   H     0.96249   0.35456   0.08235   0.00000  Uiso   1.00
H490   H     0.97052   0.40241   0.03971   0.00000  Uiso   1.00
H491   H     0.90332   0.39348   0.07427   0.00000  Uiso   1.00
H492   H     0.70960   0.35373   0.49125   0.00000  Uiso   1.00
H493   H     0.76316   0.64361   0.00480   0.00000  Uiso   1.00
H494   H     0.87174   0.57327   0.38585   0.00000  Uiso   1.00
H495   H     0.76334   0.60652   0.42573   0.00000  Uiso   1.00
H496   H     0.69614   0.59759   0.46029   0.00000  Uiso   1.00
H497   H     0.70418   0.64544   0.41765   0.00000  Uiso   1.00
H498   H     0.93918   0.66278   0.26379   0.00000  Uiso   1.00
H499   H     0.98513   0.34502   0.18970   0.00000  Uiso   1.00
H500   H     0.91613   0.34102   0.16806   0.00000  Uiso   1.00
H501   H     0.94827   0.61923   0.18966   0.00000  Uiso   1.00
H502   H     0.72749   0.33722   0.23621   0.00000  Uiso   1.00
H503   H     0.68154   0.65498   0.31030   0.00000  Uiso   1.00
H504   H     0.71840   0.38077   0.31034   0.00000  Uiso   1.00
H505   H     0.88104   0.62084   0.45339   0.00000  Uiso   1.00
H506   H     0.75053   0.65898   0.33194   0.00000  Uiso   1.00
H507   H     0.66679   0.41273   0.23152   0.00000  Uiso   1.00
H508   H     0.69806   0.41506   0.15117   0.00000  Uiso   1.00
H509   H     0.68384   0.48139   0.15251   0.00000  Uiso   1.00
H510   H     0.95855   0.43406   0.16229   0.00000  Uiso   1.00
H511   H     0.99988   0.58727   0.26848   0.00000  Uiso   1.00
H512   H     0.96860   0.58494   0.34883   0.00000  Uiso   1.00
H513   H     0.70812   0.56594   0.33771   0.00000  Uiso   1.00
H514   H     0.98282   0.51861   0.34749   0.00000  Uiso   1.00
H515   H     0.78563   0.37916   0.04661   0.00000  Uiso   1.00
H516   H     0.87890   0.58966   0.14574   0.00000  Uiso   1.00
H517   H     0.96501   0.54128   0.12133   0.00000  Uiso   1.00
H518   H     0.97776   0.60879   0.11442   0.00000  Uiso   1.00
H519   H     0.96539   0.56930   0.06663   0.00000  Uiso   1.00
H520   H     0.78777   0.41034   0.35426   0.00000  Uiso   1.00
N521   N     0.98344   0.48598   0.23783   0.00000  Uiso   1.00
N522   N     0.68322   0.51402   0.26217   0.00000  Uiso   1.00
N523   N     0.89200   0.58196   0.11244   0.00000  Uiso   1.00
N524   N     0.77467   0.41804   0.38756   0.00000  Uiso   1.00
N525   N     0.91426   0.33808   0.23876   0.00000  Uiso   1.00
N526   N     0.75241   0.66192   0.26124   0.00000  Uiso   1.00
N527   N     0.67705   0.44645   0.21544   0.00000  Uiso   1.00
N528   N     0.98961   0.55355   0.28456   0.00000  Uiso   1.00
O529   O     0.79642   0.57952   0.25298   0.00000  Uiso   1.00
O530   O     0.79112   0.36355   0.45641   0.00000  Uiso   1.00
O531   O     0.87025   0.42048   0.24702   0.00000  Uiso   1.00
O532   O     0.89280   0.57054   0.24519   0.00000  Uiso   1.00
O533   O     0.77387   0.42946   0.25482   0.00000  Uiso   1.00
O534   O     0.78514   0.50450   0.31998   0.00000  Uiso   1.00
O535   O     0.88153   0.49550   0.18003   0.00000  Uiso   1.00
O536   O     0.88152   0.49552   0.31218   0.00000  Uiso   1.00
O537   O     0.78515   0.50448   0.18782   0.00000  Uiso   1.00
O538   O     0.87555   0.63645   0.04359   0.00000  Uiso   1.00
Zn539  Zn    0.76898   0.50600   0.25521   0.00000  Uiso   1.00
Zn540  Zn    0.89769   0.49400   0.24479   0.00000  Uiso   1.00
C541   C     0.18145   0.93121   0.24914   0.00000  Uiso   1.00
C542   C     0.18900   0.87383   0.40542   0.00000  Uiso   1.00
C543   C     0.16697   0.83532   0.11587   0.00000  Uiso   1.00
C544   C     0.16637   0.83135   0.38413   0.00000  Uiso   1.00
C545   C     0.19103   0.87747   0.09162   0.00000  Uiso   1.00
C546   C     0.14231   0.78920   0.40838   0.00000  Uiso   1.00
C547   C     0.18619   0.87900   0.04525   0.00000  Uiso   1.00
C548   C     0.14714   0.78766   0.45475   0.00000  Uiso   1.00
C549   C     0.16628   0.83425   0.02334   0.00000  Uiso   1.00
C550   C     0.16705   0.83241   0.47666   0.00000  Uiso   1.00
C551   C     0.14619   0.79104   0.04819   0.00000  Uiso   1.00
C552   C     0.15188   0.73545   0.25086   0.00000  Uiso   1.00
C553   C     0.18714   0.87562   0.45181   0.00000  Uiso   1.00
C554   C     0.20212   0.92353   0.02045   0.00000  Uiso   1.00
C555   C     0.13121   0.74313   0.47955   0.00000  Uiso   1.00
C556   C     0.28636   0.90816   0.10329   0.00000  Uiso   1.00
C557   C     0.04697   0.75851   0.39671   0.00000  Uiso   1.00
C558   C     0.25319   0.66840   0.02254   0.00000  Uiso   1.00
C559   C     0.27358   0.70705   0.05688   0.00000  Uiso   1.00
C560   C     0.08014   0.99827   0.47746   0.00000  Uiso   1.00
C561   C     0.05975   0.95961   0.44312   0.00000  Uiso   1.00
C562   C     0.27505   0.99368   0.19419   0.00000  Uiso   1.00
C563   C     0.20319   0.92078   0.47340   0.00000  Uiso   1.00
C564   C     0.05828   0.67299   0.30581   0.00000  Uiso   1.00
C565   C     0.00364   0.77765   0.16792   0.00000  Uiso   1.00
C566   C     0.32969   0.88901   0.33208   0.00000  Uiso   1.00
C567   C     0.13015   0.74589   0.02660   0.00000  Uiso   1.00
C568   C     0.18971   0.98497   0.24698   0.00000  Uiso   1.00
C569   C     0.14362   0.68169   0.25302   0.00000  Uiso   1.00
C570   C     0.16652   0.83281   0.33641   0.00000  Uiso   1.00
C571   C     0.16682   0.83386   0.16359   0.00000  Uiso   1.00
C572   C     0.14433   0.79284   0.09458   0.00000  Uiso   1.00
H573   H     0.12826   0.76006   0.11415   0.00000  Uiso   1.00
H574   H     0.03499   0.79205   0.37867   0.00000  Uiso   1.00
H575   H     0.03461   0.76404   0.43337   0.00000  Uiso   1.00
H576   H     0.02224   0.72454   0.38558   0.00000  Uiso   1.00
H577   H     0.23684   0.68972   0.49520   0.00000  Uiso   1.00
H578   H     0.29040   0.97960   0.00875   0.00000  Uiso   1.00
H579   H     0.29582   0.68789   0.08235   0.00000  Uiso   1.00
H580   H     0.30386   0.73574   0.03971   0.00000  Uiso   1.00
H581   H     0.23666   0.72681   0.07427   0.00000  Uiso   1.00
H582   H     0.04293   0.68707   0.49125   0.00000  Uiso   1.00
H583   H     0.09649   0.97695   0.00480   0.00000  Uiso   1.00
H584   H     0.20507   0.90660   0.38585   0.00000  Uiso   1.00
H585   H     0.09668   0.93985   0.42573   0.00000  Uiso   1.00
H586   H     0.02948   0.93092   0.46029   0.00000  Uiso   1.00
H587   H     0.03751   0.97877   0.41765   0.00000  Uiso   1.00
H588   H     0.27251   0.99611   0.26379   0.00000  Uiso   1.00
H589   H     0.31846   0.67835   0.18970   0.00000  Uiso   1.00
H590   H     0.24947   0.67436   0.16806   0.00000  Uiso   1.00
H591   H     0.28160   0.95257   0.18966   0.00000  Uiso   1.00
H592   H     0.06082   0.67055   0.23621   0.00000  Uiso   1.00
H593   H     0.01487   0.98832   0.31030   0.00000  Uiso   1.00
H594   H     0.05173   0.71410   0.31034   0.00000  Uiso   1.00
H595   H     0.21437   0.95417   0.45339   0.00000  Uiso   1.00
H596   H     0.08387   0.99231   0.33194   0.00000  Uiso   1.00
H597   H     0.00012   0.74606   0.23152   0.00000  Uiso   1.00
H598   H     0.03140   0.74840   0.15117   0.00000  Uiso   1.00
H599   H     0.01718   0.81472   0.15251   0.00000  Uiso   1.00
H600   H     0.29188   0.76740   0.16229   0.00000  Uiso   1.00
H601   H     0.33321   0.92060   0.26848   0.00000  Uiso   1.00
H602   H     0.30194   0.91827   0.34883   0.00000  Uiso   1.00
H603   H     0.04145   0.89927   0.33771   0.00000  Uiso   1.00
H604   H     0.31616   0.85194   0.34749   0.00000  Uiso   1.00
H605   H     0.11896   0.71249   0.04661   0.00000  Uiso   1.00
H606   H     0.21223   0.92300   0.14574   0.00000  Uiso   1.00
H607   H     0.29835   0.87462   0.12133   0.00000  Uiso   1.00
H608   H     0.31110   0.94212   0.11442   0.00000  Uiso   1.00
H609   H     0.29872   0.90263   0.06663   0.00000  Uiso   1.00
H610   H     0.12110   0.74367   0.35426   0.00000  Uiso   1.00
N611   N     0.31678   0.81932   0.23783   0.00000  Uiso   1.00
N612   N     0.01656   0.84735   0.26217   0.00000  Uiso   1.00
N613   N     0.22533   0.91529   0.11244   0.00000  Uiso   1.00
N614   N     0.10801   0.75138   0.38756   0.00000  Uiso   1.00
N615   N     0.24759   0.67141   0.23876   0.00000  Uiso   1.00
N616   N     0.08574   0.99526   0.26124   0.00000  Uiso   1.00
N617   N     0.01039   0.77978   0.21544   0.00000  Uiso   1.00
N618   N     0.32295   0.88688   0.28456   0.00000  Uiso   1.00
O619   O     0.12975   0.91286   0.25298   0.00000  Uiso   1.00
O620   O     0.12445   0.69688   0.45641   0.00000  Uiso   1.00
O621   O     0.20358   0.75381   0.24702   0.00000  Uiso   1.00
O622   O     0.22613   0.90387   0.24519   0.00000  Uiso   1.00
O623   O     0.10720   0.76279   0.25482   0.00000  Uiso   1.00
O624   O     0.11847   0.83784   0.31998   0.00000  Uiso   1.00
O625   O     0.21486   0.82883   0.18003   0.00000  Uiso   1.00
O626   O     0.21485   0.82885   0.31218   0.00000  Uiso   1.00
O627   O     0.11848   0.83781   0.18782   0.00000  Uiso   1.00
O628   O     0.20888   0.96978   0.04359   0.00000  Uiso   1.00
Zn629  Zn    0.10231   0.83933   0.25521   0.00000  Uiso   1.00
Zn630  Zn    0.23102   0.82734   0.24479   0.00000  Uiso   1.00
C631   C     0.51478   0.93121   0.24914   0.00000  Uiso   1.00
C632   C     0.52234   0.87383   0.40542   0.00000  Uiso   1.00
C633   C     0.50030   0.83532   0.11587   0.00000  Uiso   1.00
C634   C     0.49970   0.83135   0.38413   0.00000  Uiso   1.00
C635   C     0.52436   0.87747   0.09162   0.00000  Uiso   1.00
C636   C     0.47564   0.78920   0.40838   0.00000  Uiso   1.00
C637   C     0.51953   0.87900   0.04525   0.00000  Uiso   1.00
C638   C     0.48047   0.78766   0.45475   0.00000  Uiso   1.00
C639   C     0.49962   0.83425   0.02334   0.00000  Uiso   1.00
C640   C     0.50038   0.83241   0.47666   0.00000  Uiso   1.00
C641   C     0.47953   0.79104   0.04819   0.00000  Uiso   1.00
C642   C     0.48522   0.73545   0.25086   0.00000  Uiso   1.00
C643   C     0.52047   0.87562   0.45181   0.00000  Uiso   1.00
C644   C     0.53546   0.92353   0.02045   0.00000  Uiso   1.00
C645   C     0.46454   0.74313   0.47955   0.00000  Uiso   1.00
C646   C     0.61970   0.90816   0.10329   0.00000  Uiso   1.00
C647   C     0.38030   0.75851   0.39671   0.00000  Uiso   1.00
C648   C     0.58652   0.66840   0.02254   0.00000  Uiso   1.00
C649   C     0.60692   0.70705   0.05688   0.00000  Uiso   1.00
C650   C     0.41348   0.99827   0.47746   0.00000  Uiso   1.00
C651   C     0.39308   0.95961   0.44312   0.00000  Uiso   1.00
C652   C     0.60838   0.99368   0.19419   0.00000  Uiso   1.00
C653   C     0.53652   0.92078   0.47340   0.00000  Uiso   1.00
C654   C     0.39162   0.67299   0.30581   0.00000  Uiso   1.00
C655   C     0.33697   0.77765   0.16792   0.00000  Uiso   1.00
C656   C     0.66303   0.88901   0.33208   0.00000  Uiso   1.00
C657   C     0.46348   0.74589   0.02660   0.00000  Uiso   1.00
C658   C     0.52304   0.98497   0.24698   0.00000  Uiso   1.00
C659   C     0.47696   0.68169   0.25302   0.00000  Uiso   1.00
C660   C     0.49985   0.83281   0.33641   0.00000  Uiso   1.00
C661   C     0.50015   0.83386   0.16359   0.00000  Uiso   1.00
C662   C     0.47766   0.79284   0.09458   0.00000  Uiso   1.00
H663   H     0.46160   0.76006   0.11415   0.00000  Uiso   1.00
H664   H     0.36832   0.79205   0.37867   0.00000  Uiso   1.00
H665   H     0.36795   0.76404   0.43337   0.00000  Uiso   1.00
H666   H     0.35557   0.72454   0.38558   0.00000  Uiso   1.00
H667   H     0.57018   0.68972   0.49520   0.00000  Uiso   1.00
H668   H     0.62374   0.97960   0.00875   0.00000  Uiso   1.00
H669   H     0.62915   0.68789   0.08235   0.00000  Uiso   1.00
H670   H     0.63719   0.73574   0.03971   0.00000  Uiso   1.00
H671   H     0.56999   0.72681   0.07427   0.00000  Uiso   1.00
H672   H     0.37626   0.68707   0.49125   0.00000  Uiso   1.00
H673   H     0.42982   0.97695   0.00480   0.00000  Uiso   1.00
H674   H     0.53840   0.90660   0.38585   0.00000  Uiso   1.00
H675   H     0.43001   0.93985   0.42573   0.00000  Uiso   1.00
H676   H     0.36281   0.93092   0.46029   0.00000  Uiso   1.00
H677   H     0.37085   0.97877   0.41765   0.00000  Uiso   1.00
H678   H     0.60585   0.99611   0.26379   0.00000  Uiso   1.00
H679   H     0.65180   0.67835   0.18970   0.00000  Uiso   1.00
H680   H     0.58280   0.67436   0.16806   0.00000  Uiso   1.00
H681   H     0.61494   0.95257   0.18966   0.00000  Uiso   1.00
H682   H     0.39415   0.67055   0.23621   0.00000  Uiso   1.00
H683   H     0.34820   0.98832   0.31030   0.00000  Uiso   1.00
H684   H     0.38506   0.71410   0.31034   0.00000  Uiso   1.00
H685   H     0.54771   0.95417   0.45339   0.00000  Uiso   1.00
H686   H     0.41720   0.99231   0.33194   0.00000  Uiso   1.00
H687   H     0.33345   0.74606   0.23152   0.00000  Uiso   1.00
H688   H     0.36473   0.74840   0.15117   0.00000  Uiso   1.00
H689   H     0.35051   0.81472   0.15251   0.00000  Uiso   1.00
H690   H     0.62522   0.76740   0.16229   0.00000  Uiso   1.00
H691   H     0.66655   0.92060   0.26848   0.00000  Uiso   1.00
H692   H     0.63527   0.91827   0.34883   0.00000  Uiso   1.00
H693   H     0.37478   0.89927   0.33771   0.00000  Uiso   1.00
H694   H     0.64949   0.85194   0.34749   0.00000  Uiso   1.00
H695   H     0.45229   0.71249   0.04661   0.00000  Uiso   1.00
H696   H     0.54556   0.92300   0.14574   0.00000  Uiso   1.00
H697   H     0.63168   0.87462   0.12133   0.00000  Uiso   1.00
H698   H     0.64443   0.94212   0.11442   0.00000  Uiso   1.00
H699   H     0.63205   0.90263   0.06663   0.00000  Uiso   1.00
H700   H     0.45444   0.74367   0.35426   0.00000  Uiso   1.00
N701   N     0.65011   0.81932   0.23783   0.00000  Uiso   1.00
N702   N     0.34989   0.84735   0.26217   0.00000  Uiso   1.00
N703   N     0.55866   0.91529   0.11244   0.00000  Uiso   1.00
N704   N     0.44134   0.75138   0.38756   0.00000  Uiso   1.00
N705   N     0.58092   0.67141   0.23876   0.00000  Uiso   1.00
N706   N     0.41908   0.99526   0.26124   0.00000  Uiso   1.00
N707   N     0.34372   0.77978   0.21544   0.00000  Uiso   1.00
N708   N     0.65628   0.88688   0.28456   0.00000  Uiso   1.00
O709   O     0.46308   0.91286   0.25298   0.00000  Uiso   1.00
O710   O     0.45779   0.69688   0.45641   0.00000  Uiso   1.00
O711   O     0.53692   0.75381   0.24702   0.00000  Uiso   1.00
O712   O     0.55946   0.90387   0.24519   0.00000  Uiso   1.00
O713   O     0.44054   0.76279   0.25482   0.00000  Uiso   1.00
O714   O     0.45181   0.83784   0.31998   0.00000  Uiso   1.00
O715   O     0.54819   0.82883   0.18003   0.00000  Uiso   1.00
O716   O     0.54819   0.82885   0.31218   0.00000  Uiso   1.00
O717   O     0.45181   0.83781   0.18782   0.00000  Uiso   1.00
O718   O     0.54222   0.96978   0.04359   0.00000  Uiso   1.00
Zn719  Zn    0.43565   0.83933   0.25521   0.00000  Uiso   1.00
Zn720  Zn    0.56435   0.82734   0.24479   0.00000  Uiso   1.00
C721   C     0.84812   0.93121   0.24914   0.00000  Uiso   1.00
C722   C     0.85567   0.87383   0.40542   0.00000  Uiso   1.00
C723   C     0.83363   0.83532   0.11587   0.00000  Uiso   1.00
C724   C     0.83303   0.83135   0.38413   0.00000  Uiso   1.00
C725   C     0.85769   0.87747   0.09162   0.00000  Uiso   1.00
C726   C     0.80897   0.78920   0.40838   0.00000  Uiso   1.00
C727   C     0.85286   0.87900   0.04525   0.00000  Uiso   1.00
C728   C     0.81381   0.78766   0.45475   0.00000  Uiso   1.00
C729   C     0.83295   0.83425   0.02334   0.00000  Uiso   1.00
C730   C     0.83372   0.83241   0.47666   0.00000  Uiso   1.00
C731   C     0.81286   0.79104   0.04819   0.00000  Uiso   1.00
C732   C     0.81855   0.73545   0.25086   0.00000  Uiso   1.00
C733   C     0.85381   0.87562   0.45181   0.00000  Uiso   1.00
C734   C     0.86879   0.92353   0.02045   0.00000  Uiso   1.00
C735   C     0.79788   0.74313   0.47955   0.00000  Uiso   1.00
C736   C     0.95303   0.90816   0.10329   0.00000  Uiso   1.00
C737   C     0.71364   0.75851   0.39671   0.00000  Uiso   1.00
C738   C     0.91986   0.66840   0.02254   0.00000  Uiso   1.00
C739   C     0.94025   0.70705   0.05688   0.00000  Uiso   1.00
C740   C     0.74681   0.99827   0.47746   0.00000  Uiso   1.00
C741   C     0.72642   0.95961   0.44312   0.00000  Uiso   1.00
C742   C     0.94172   0.99368   0.19419   0.00000  Uiso   1.00
C743   C     0.86985   0.92078   0.47340   0.00000  Uiso   1.00
C744   C     0.72495   0.67299   0.30581   0.00000  Uiso   1.00
C745   C     0.67031   0.77765   0.16792   0.00000  Uiso   1.00
C746   C     0.99636   0.88901   0.33208   0.00000  Uiso   1.00
C747   C     0.79681   0.74589   0.02660   0.00000  Uiso   1.00
C748   C     0.85638   0.98497   0.24698   0.00000  Uiso   1.00
C749   C     0.81029   0.68169   0.25302   0.00000  Uiso   1.00
C750   C     0.83318   0.83281   0.33641   0.00000  Uiso   1.00
C751   C     0.83348   0.83386   0.16359   0.00000  Uiso   1.00
C752   C     0.81100   0.79284   0.09458   0.00000  Uiso   1.00
H753   H     0.79493   0.76006   0.11415   0.00000  Uiso   1.00
H754   H     0.70166   0.79205   0.37867   0.00000  Uiso   1.00
H755   H     0.70128   0.76404   0.43337   0.00000  Uiso   1.00
H756   H     0.68891   0.72454   0.38558   0.00000  Uiso   1.00
H757   H     0.90351   0.68972   0.49520   0.00000  Uiso   1.00
H758   H     0.95707   0.97960   0.00875   0.00000  Uiso   1.00
H759   H     0.96249   0.68789   0.08235   0.00000  Uiso   1.00
H760   H     0.97052   0.73574   0.03971   0.00000  Uiso   1.00
H761   H     0.90332   0.72681   0.07427   0.00000  Uiso   1.00
H762   H     0.70960   0.68707   0.49125   0.00000  Uiso   1.00
H763   H     0.76316   0.97695   0.00480   0.00000  Uiso   1.00
H764   H     0.87174   0.90660   0.38585   0.00000  Uiso   1.00
H765   H     0.76334   0.93985   0.42573   0.00000  Uiso   1.00
H766   H     0.69614   0.93092   0.46029   0.00000  Uiso   1.00
H767   H     0.70418   0.97877   0.41765   0.00000  Uiso   1.00
H768   H     0.93918   0.99611   0.26379   0.00000  Uiso   1.00
H769   H     0.98513   0.67835   0.18970   0.00000  Uiso   1.00
H770   H     0.91613   0.67436   0.16806   0.00000  Uiso   1.00
H771   H     0.94827   0.95257   0.18966   0.00000  Uiso   1.00
H772   H     0.72749   0.67055   0.23621   0.00000  Uiso   1.00
H773   H     0.68154   0.98832   0.31030   0.00000  Uiso   1.00
H774   H     0.71840   0.71410   0.31034   0.00000  Uiso   1.00
H775   H     0.88104   0.95417   0.45339   0.00000  Uiso   1.00
H776   H     0.75053   0.99231   0.33194   0.00000  Uiso   1.00
H777   H     0.66679   0.74606   0.23152   0.00000  Uiso   1.00
H778   H     0.69806   0.74840   0.15117   0.00000  Uiso   1.00
H779   H     0.68384   0.81472   0.15251   0.00000  Uiso   1.00
H780   H     0.95855   0.76740   0.16229   0.00000  Uiso   1.00
H781   H     0.99988   0.92060   0.26848   0.00000  Uiso   1.00
H782   H     0.96860   0.91827   0.34883   0.00000  Uiso   1.00
H783   H     0.70812   0.89927   0.33771   0.00000  Uiso   1.00
H784   H     0.98282   0.85194   0.34749   0.00000  Uiso   1.00
H785   H     0.78563   0.71249   0.04661   0.00000  Uiso   1.00
H786   H     0.87890   0.92300   0.14574   0.00000  Uiso   1.00
H787   H     0.96501   0.87462   0.12133   0.00000  Uiso   1.00
H788   H     0.97776   0.94212   0.11442   0.00000  Uiso   1.00
H789   H     0.96539   0.90263   0.06663   0.00000  Uiso   1.00
H790   H     0.78777   0.74367   0.35426   0.00000  Uiso   1.00
N791   N     0.98344   0.81932   0.23783   0.00000  Uiso   1.00
N792   N     0.68322   0.84735   0.26217   0.00000  Uiso   1.00
N793   N     0.89200   0.91529   0.11244   0.00000  Uiso   1.00
N794   N     0.77467   0.75138   0.38756   0.00000  Uiso   1.00
N795   N     0.91426   0.67141   0.23876   0.00000  Uiso   1.00
N796   N     0.75241   0.99526   0.26124   0.00000  Uiso   1.00
N797   N     0.67705   0.77978   0.21544   0.00000  Uiso   1.00
N798   N     0.98961   0.88688   0.28456   0.00000  Uiso   1.00
O799   O     0.79642   0.91286   0.25298   0.00000  Uiso   1.00
O800   O     0.79112   0.69688   0.45641   0.00000  Uiso   1.00
O801   O     0.87025   0.75381   0.24702   0.00000  Uiso   1.00
O802   O     0.89280   0.90387   0.24519   0.00000  Uiso   1.00
O803   O     0.77387   0.76279   0.25482   0.00000  Uiso   1.00
O804   O     0.78514   0.83784   0.31998   0.00000  Uiso   1.00
O805   O     0.88153   0.82883   0.18003   0.00000  Uiso   1.00
O806   O     0.88152   0.82885   0.31218   0.00000  Uiso   1.00
O807   O     0.78515   0.83781   0.18782   0.00000  Uiso   1.00
O808   O     0.87555   0.96978   0.04359   0.00000  Uiso   1.00
Zn809  Zn    0.76898   0.83933   0.25521   0.00000  Uiso   1.00
Zn810  Zn    0.89769   0.82734   0.24479   0.00000  Uiso   1.00
C811   C     0.18145   0.26455   0.74914   0.00000  Uiso   1.00
C812   C     0.18900   0.20716   0.90542   0.00000  Uiso   1.00
C813   C     0.16697   0.16865   0.61587   0.00000  Uiso   1.00
C814   C     0.16637   0.16468   0.88413   0.00000  Uiso   1.00
C815   C     0.19103   0.21080   0.59162   0.00000  Uiso   1.00
C816   C     0.14231   0.12253   0.90838   0.00000  Uiso   1.00
C817   C     0.18619   0.21234   0.54525   0.00000  Uiso   1.00
C818   C     0.14714   0.12100   0.95475   0.00000  Uiso   1.00
C819   C     0.16628   0.16759   0.52334   0.00000  Uiso   1.00
C820   C     0.16705   0.16575   0.97666   0.00000  Uiso   1.00
C821   C     0.14619   0.12438   0.54819   0.00000  Uiso   1.00
C822   C     0.15188   0.06879   0.75086   0.00000  Uiso   1.00
C823   C     0.18714   0.20896   0.95181   0.00000  Uiso   1.00
C824   C     0.20212   0.25687   0.52045   0.00000  Uiso   1.00
C825   C     0.13121   0.07647   0.97955   0.00000  Uiso   1.00
C826   C     0.28636   0.24149   0.60329   0.00000  Uiso   1.00
C827   C     0.04697   0.09184   0.89671   0.00000  Uiso   1.00
C828   C     0.25319   0.00173   0.52254   0.00000  Uiso   1.00
C829   C     0.27358   0.04039   0.55688   0.00000  Uiso   1.00
C830   C     0.08014   0.33160   0.97746   0.00000  Uiso   1.00
C831   C     0.05975   0.29295   0.94312   0.00000  Uiso   1.00
C832   C     0.27505   0.32701   0.69419   0.00000  Uiso   1.00
C833   C     0.20319   0.25411   0.97340   0.00000  Uiso   1.00
C834   C     0.05828   0.00632   0.80581   0.00000  Uiso   1.00
C835   C     0.00364   0.11099   0.66792   0.00000  Uiso   1.00
C836   C     0.32969   0.22235   0.83208   0.00000  Uiso   1.00
C837   C     0.13015   0.07922   0.52660   0.00000  Uiso   1.00
C838   C     0.18971   0.31831   0.74698   0.00000  Uiso   1.00
C839   C     0.14362   0.01502   0.75302   0.00000  Uiso   1.00
C840   C     0.16652   0.16614   0.83641   0.00000  Uiso   1.00
C841   C     0.16682   0.16719   0.66359   0.00000  Uiso   1.00
C842   C     0.14433   0.12617   0.59458   0.00000  Uiso   1.00
H843   H     0.12826   0.09340   0.61415   0.00000  Uiso   1.00
H844   H     0.03499   0.12538   0.87867   0.00000  Uiso   1.00
H845   H     0.03461   0.09737   0.93337   0.00000  Uiso   1.00
H846   H     0.02224   0.05788   0.88558   0.00000  Uiso   1.00
H847   H     0.23684   0.02305   0.99520   0.00000  Uiso   1.00
H848   H     0.29040   0.31293   0.50875   0.00000  Uiso   1.00
H849   H     0.29582   0.02123   0.58235   0.00000  Uiso   1.00
H850   H     0.30386   0.06908   0.53971   0.00000  Uiso   1.00
H851   H     0.23666   0.06015   0.57427   0.00000  Uiso   1.00
H852   H     0.04293   0.02040   0.99125   0.00000  Uiso   1.00
H853   H     0.09649   0.31028   0.50480   0.00000  Uiso   1.00
H854   H     0.20507   0.23994   0.88585   0.00000  Uiso   1.00
H855   H     0.09668   0.27319   0.92573   0.00000  Uiso   1.00
H856   H     0.02948   0.26426   0.96029   0.00000  Uiso   1.00
H857   H     0.03751   0.31211   0.91765   0.00000  Uiso   1.00
H858   H     0.27251   0.32945   0.76379   0.00000  Uiso   1.00
H859   H     0.31846   0.01168   0.68970   0.00000  Uiso   1.00
H860   H     0.24947   0.00769   0.66806   0.00000  Uiso   1.00
H861   H     0.28160   0.28590   0.68966   0.00000  Uiso   1.00
H862   H     0.06082   0.00389   0.73621   0.00000  Uiso   1.00
H863   H     0.01487   0.32165   0.81030   0.00000  Uiso   1.00
H864   H     0.05173   0.04743   0.81034   0.00000  Uiso   1.00
H865   H     0.21437   0.28751   0.95339   0.00000  Uiso   1.00
H866   H     0.08387   0.32564   0.83194   0.00000  Uiso   1.00
H867   H     0.00012   0.07940   0.73152   0.00000  Uiso   1.00
H868   H     0.03140   0.08173   0.65117   0.00000  Uiso   1.00
H869   H     0.01718   0.14805   0.65251   0.00000  Uiso   1.00
H870   H     0.29188   0.10073   0.66229   0.00000  Uiso   1.00
H871   H     0.33321   0.25393   0.76848   0.00000  Uiso   1.00
H872   H     0.30194   0.25160   0.84883   0.00000  Uiso   1.00
H873   H     0.04145   0.23260   0.83771   0.00000  Uiso   1.00
H874   H     0.31616   0.18528   0.84749   0.00000  Uiso   1.00
H875   H     0.11896   0.04583   0.54661   0.00000  Uiso   1.00
H876   H     0.21223   0.25633   0.64574   0.00000  Uiso   1.00
H877   H     0.29835   0.20795   0.62133   0.00000  Uiso   1.00
H878   H     0.31110   0.27545   0.61442   0.00000  Uiso   1.00
H879   H     0.29872   0.23596   0.56663   0.00000  Uiso   1.00
H880   H     0.12110   0.07700   0.85426   0.00000  Uiso   1.00
N881   N     0.31678   0.15265   0.73783   0.00000  Uiso   1.00
N882   N     0.01656   0.18068   0.76217   0.00000  Uiso   1.00
N883   N     0.22533   0.24862   0.61244   0.00000  Uiso   1.00
N884   N     0.10801   0.08471   0.88756   0.00000  Uiso   1.00
N885   N     0.24759   0.00474   0.73876   0.00000  Uiso   1.00
N886   N     0.08574   0.32859   0.76124   0.00000  Uiso   1.00
N887   N     0.01039   0.11312   0.71544   0.00000  Uiso   1.00
N888   N     0.32295   0.22022   0.78456   0.00000  Uiso   1.00
O889   O     0.12975   0.24619   0.75298   0.00000  Uiso   1.00
O890   O     0.12445   0.03022   0.95641   0.00000  Uiso   1.00
O891   O     0.20358   0.08714   0.74702   0.00000  Uiso   1.00
O892   O     0.22613   0.23721   0.74519   0.00000  Uiso   1.00
O893   O     0.10720   0.09613   0.75482   0.00000  Uiso   1.00
O894   O     0.11847   0.17117   0.81998   0.00000  Uiso   1.00
O895   O     0.21486   0.16216   0.68003   0.00000  Uiso   1.00
O896   O     0.21485   0.16219   0.81218   0.00000  Uiso   1.00
O897   O     0.11848   0.17115   0.68782   0.00000  Uiso   1.00
O898   O     0.20888   0.30312   0.54359   0.00000  Uiso   1.00
Zn899  Zn    0.10231   0.17266   0.75521   0.00000  Uiso   1.00
Zn900  Zn    0.23102   0.16067   0.74479   0.00000  Uiso   1.00
C901   C     0.51478   0.26455   0.74914   0.00000  Uiso   1.00
C902   C     0.52234   0.20716   0.90542   0.00000  Uiso   1.00
C903   C     0.50030   0.16865   0.61587   0.00000  Uiso   1.00
C904   C     0.49970   0.16468   0.88413   0.00000  Uiso   1.00
C905   C     0.52436   0.21080   0.59162   0.00000  Uiso   1.00
C906   C     0.47564   0.12253   0.90838   0.00000  Uiso   1.00
C907   C     0.51953   0.21234   0.54525   0.00000  Uiso   1.00
C908   C     0.48047   0.12100   0.95475   0.00000  Uiso   1.00
C909   C     0.49962   0.16759   0.52334   0.00000  Uiso   1.00
C910   C     0.50038   0.16575   0.97666   0.00000  Uiso   1.00
C911   C     0.47953   0.12438   0.54819   0.00000  Uiso   1.00
C912   C     0.48522   0.06879   0.75086   0.00000  Uiso   1.00
C913   C     0.52047   0.20896   0.95181   0.00000  Uiso   1.00
C914   C     0.53546   0.25687   0.52045   0.00000  Uiso   1.00
C915   C     0.46454   0.07647   0.97955   0.00000  Uiso   1.00
C916   C     0.61970   0.24149   0.60329   0.00000  Uiso   1.00
C917   C     0.38030   0.09184   0.89671   0.00000  Uiso   1.00
C918   C     0.58652   0.00173   0.52254   0.00000  Uiso   1.00
C919   C     0.60692   0.04039   0.55688   0.00000  Uiso   1.00
C920   C     0.41348   0.33160   0.97746   0.00000  Uiso   1.00
C921   C     0.39308   0.29295   0.94312   0.00000  Uiso   1.00
C922   C     0.60838   0.32701   0.69419   0.00000  Uiso   1.00
C923   C     0.53652   0.25411   0.97340   0.00000  Uiso   1.00
C924   C     0.39162   0.00632   0.80581   0.00000  Uiso   1.00
C925   C     0.33697   0.11099   0.66792   0.00000  Uiso   1.00
C926   C     0.66303   0.22235   0.83208   0.00000  Uiso   1.00
C927   C     0.46348   0.07922   0.52660   0.00000  Uiso   1.00
C928   C     0.52304   0.31831   0.74698   0.00000  Uiso   1.00
C929   C     0.47696   0.01502   0.75302   0.00000  Uiso   1.00
C930   C     0.49985   0.16614   0.83641   0.00000  Uiso   1.00
C931   C     0.50015   0.16719   0.66359   0.00000  Uiso   1.00
C932   C     0.47766   0.12617   0.59458   0.00000  Uiso   1.00
H933   H     0.46160   0.09340   0.61415   0.00000  Uiso   1.00
H934   H     0.36832   0.12538   0.87867   0.00000  Uiso   1.00
H935   H     0.36795   0.09737   0.93337   0.00000  Uiso   1.00
H936   H     0.35557   0.05788   0.88558   0.00000  Uiso   1.00
H937   H     0.57018   0.02305   0.99520   0.00000  Uiso   1.00
H938   H     0.62374   0.31293   0.50875   0.00000  Uiso   1.00
H939   H     0.62915   0.02123   0.58235   0.00000  Uiso   1.00
H940   H     0.63719   0.06908   0.53971   0.00000  Uiso   1.00
H941   H     0.56999   0.06015   0.57427   0.00000  Uiso   1.00
H942   H     0.37626   0.02040   0.99125   0.00000  Uiso   1.00
H943   H     0.42982   0.31028   0.50480   0.00000  Uiso   1.00
H944   H     0.53840   0.23994   0.88585   0.00000  Uiso   1.00
H945   H     0.43001   0.27319   0.92573   0.00000  Uiso   1.00
H946   H     0.36281   0.26426   0.96029   0.00000  Uiso   1.00
H947   H     0.37085   0.31211   0.91765   0.00000  Uiso   1.00
H948   H     0.60585   0.32945   0.76379   0.00000  Uiso   1.00
H949   H     0.65180   0.01168   0.68970   0.00000  Uiso   1.00
H950   H     0.58280   0.00769   0.66806   0.00000  Uiso   1.00
H951   H     0.61494   0.28590   0.68966   0.00000  Uiso   1.00
H952   H     0.39415   0.00389   0.73621   0.00000  Uiso   1.00
H953   H     0.34820   0.32165   0.81030   0.00000  Uiso   1.00
H954   H     0.38506   0.04743   0.81034   0.00000  Uiso   1.00
H955   H     0.54771   0.28751   0.95339   0.00000  Uiso   1.00
H956   H     0.41720   0.32564   0.83194   0.00000  Uiso   1.00
H957   H     0.33345   0.07940   0.73152   0.00000  Uiso   1.00
H958   H     0.36473   0.08173   0.65117   0.00000  Uiso   1.00
H959   H     0.35051   0.14805   0.65251   0.00000  Uiso   1.00
H960   H     0.62522   0.10073   0.66229   0.00000  Uiso   1.00
H961   H     0.66655   0.25393   0.76848   0.00000  Uiso   1.00
H962   H     0.63527   0.25160   0.84883   0.00000  Uiso   1.00
H963   H     0.37478   0.23260   0.83771   0.00000  Uiso   1.00
H964   H     0.64949   0.18528   0.84749   0.00000  Uiso   1.00
H965   H     0.45229   0.04583   0.54661   0.00000  Uiso   1.00
H966   H     0.54556   0.25633   0.64574   0.00000  Uiso   1.00
H967   H     0.63168   0.20795   0.62133   0.00000  Uiso   1.00
H968   H     0.64443   0.27545   0.61442   0.00000  Uiso   1.00
H969   H     0.63205   0.23596   0.56663   0.00000  Uiso   1.00
H970   H     0.45444   0.07700   0.85426   0.00000  Uiso   1.00
N971   N     0.65011   0.15265   0.73783   0.00000  Uiso   1.00
N972   N     0.34989   0.18068   0.76217   0.00000  Uiso   1.00
N973   N     0.55866   0.24862   0.61244   0.00000  Uiso   1.00
N974   N     0.44134   0.08471   0.88756   0.00000  Uiso   1.00
N975   N     0.58092   0.00474   0.73876   0.00000  Uiso   1.00
N976   N     0.41908   0.32859   0.76124   0.00000  Uiso   1.00
N977   N     0.34372   0.11312   0.71544   0.00000  Uiso   1.00
N978   N     0.65628   0.22022   0.78456   0.00000  Uiso   1.00
O979   O     0.46308   0.24619   0.75298   0.00000  Uiso   1.00
O980   O     0.45779   0.03022   0.95641   0.00000  Uiso   1.00
O981   O     0.53692   0.08714   0.74702   0.00000  Uiso   1.00
O982   O     0.55946   0.23721   0.74519   0.00000  Uiso   1.00
O983   O     0.44054   0.09613   0.75482   0.00000  Uiso   1.00
O984   O     0.45181   0.17117   0.81998   0.00000  Uiso   1.00
O985   O     0.54819   0.16216   0.68003   0.00000  Uiso   1.00
O986   O     0.54819   0.16219   0.81218   0.00000  Uiso   1.00
O987   O     0.45181   0.17115   0.68782   0.00000  Uiso   1.00
O988   O     0.54222   0.30312   0.54359   0.00000  Uiso   1.00
Zn989  Zn    0.43565   0.17266   0.75521   0.00000  Uiso   1.00
Zn990  Zn    0.56435   0.16067   0.74479   0.00000  Uiso   1.00
C991   C     0.84812   0.26455   0.74914   0.00000  Uiso   1.00
C992   C     0.85567   0.20716   0.90542   0.00000  Uiso   1.00
C993   C     0.83363   0.16865   0.61587   0.00000  Uiso   1.00
C994   C     0.83303   0.16468   0.88413   0.00000  Uiso   1.00
C995   C     0.85769   0.21080   0.59162   0.00000  Uiso   1.00
C996   C     0.80897   0.12253   0.90838   0.00000  Uiso   1.00
C997   C     0.85286   0.21234   0.54525   0.00000  Uiso   1.00
C998   C     0.81381   0.12100   0.95475   0.00000  Uiso   1.00
C999   C     0.83295   0.16759   0.52334   0.00000  Uiso   1.00
C1000  C     0.83372   0.16575   0.97666   0.00000  Uiso   1.00
C1001  C     0.81286   0.12438   0.54819   0.00000  Uiso   1.00
C1002  C     0.81855   0.06879   0.75086   0.00000  Uiso   1.00
C1003  C     0.85381   0.20896   0.95181   0.00000  Uiso   1.00
C1004  C     0.86879   0.25687   0.52045   0.00000  Uiso   1.00
C1005  C     0.79788   0.07647   0.97955   0.00000  Uiso   1.00
C1006  C     0.95303   0.24149   0.60329   0.00000  Uiso   1.00
C1007  C     0.71364   0.09184   0.89671   0.00000  Uiso   1.00
C1008  C     0.91986   0.00173   0.52254   0.00000  Uiso   1.00
C1009  C     0.94025   0.04039   0.55688   0.00000  Uiso   1.00
C1010  C     0.74681   0.33160   0.97746   0.00000  Uiso   1.00
C1011  C     0.72642   0.29295   0.94312   0.00000  Uiso   1.00
C1012  C     0.94172   0.32701   0.69419   0.00000  Uiso   1.00
C1013  C     0.86985   0.25411   0.97340   0.00000  Uiso   1.00
C1014  C     0.72495   0.00632   0.80581   0.00000  Uiso   1.00
C1015  C     0.67031   0.11099   0.66792   0.00000  Uiso   1.00
C1016  C     0.99636   0.22235   0.83208   0.00000  Uiso   1.00
C1017  C     0.79681   0.07922   0.52660   0.00000  Uiso   1.00
C1018  C     0.85638   0.31831   0.74698   0.00000  Uiso   1.00
C1019  C     0.81029   0.01502   0.75302   0.00000  Uiso   1.00
C1020  C     0.83318   0.16614   0.83641   0.00000  Uiso   1.00
C1021  C     0.83348   0.16719   0.66359   0.00000  Uiso   1.00
C1022  C     0.81100   0.12617   0.59458   0.00000  Uiso   1.00
H1023  H     0.79493   0.09340   0.61415   0.00000  Uiso   1.00
H1024  H     0.70166   0.12538   0.87867   0.00000  Uiso   1.00
H1025  H     0.70128   0.09737   0.93337   0.00000  Uiso   1.00
H1026  H     0.68891   0.05788   0.88558   0.00000  Uiso   1.00
H1027  H     0.90351   0.02305   0.99520   0.00000  Uiso   1.00
H1028  H     0.95707   0.31293   0.50875   0.00000  Uiso   1.00
H1029  H     0.96249   0.02123   0.58235   0.00000  Uiso   1.00
H1030  H     0.97052   0.06908   0.53971   0.00000  Uiso   1.00
H1031  H     0.90332   0.06015   0.57427   0.00000  Uiso   1.00
H1032  H     0.70960   0.02040   0.99125   0.00000  Uiso   1.00
H1033  H     0.76316   0.31028   0.50480   0.00000  Uiso   1.00
H1034  H     0.87174   0.23994   0.88585   0.00000  Uiso   1.00
H1035  H     0.76334   0.27319   0.92573   0.00000  Uiso   1.00
H1036  H     0.69614   0.26426   0.96029   0.00000  Uiso   1.00
H1037  H     0.70418   0.31211   0.91765   0.00000  Uiso   1.00
H1038  H     0.93918   0.32945   0.76379   0.00000  Uiso   1.00
H1039  H     0.98513   0.01168   0.68970   0.00000  Uiso   1.00
H1040  H     0.91613   0.00769   0.66806   0.00000  Uiso   1.00
H1041  H     0.94827   0.28590   0.68966   0.00000  Uiso   1.00
H1042  H     0.72749   0.00389   0.73621   0.00000  Uiso   1.00
H1043  H     0.68154   0.32165   0.81030   0.00000  Uiso   1.00
H1044  H     0.71840   0.04743   0.81034   0.00000  Uiso   1.00
H1045  H     0.88104   0.28751   0.95339   0.00000  Uiso   1.00
H1046  H     0.75053   0.32564   0.83194   0.00000  Uiso   1.00
H1047  H     0.66679   0.07940   0.73152   0.00000  Uiso   1.00
H1048  H     0.69806   0.08173   0.65117   0.00000  Uiso   1.00
H1049  H     0.68384   0.14805   0.65251   0.00000  Uiso   1.00
H1050  H     0.95855   0.10073   0.66229   0.00000  Uiso   1.00
H1051  H     0.99988   0.25393   0.76848   0.00000  Uiso   1.00
H1052  H     0.96860   0.25160   0.84883   0.00000  Uiso   1.00
H1053  H     0.70812   0.23260   0.83771   0.00000  Uiso   1.00
H1054  H     0.98282   0.18528   0.84749   0.00000  Uiso   1.00
H1055  H     0.78563   0.04583   0.54661   0.00000  Uiso   1.00
H1056  H     0.87890   0.25633   0.64574   0.00000  Uiso   1.00
H1057  H     0.96501   0.20795   0.62133   0.00000  Uiso   1.00
H1058  H     0.97776   0.27545   0.61442   0.00000  Uiso   1.00
H1059  H     0.96539   0.23596   0.56663   0.00000  Uiso   1.00
H1060  H     0.78777   0.07700   0.85426   0.00000  Uiso   1.00
N1061  N     0.98344   0.15265   0.73783   0.00000  Uiso   1.00
N1062  N     0.68322   0.18068   0.76217   0.00000  Uiso   1.00
N1063  N     0.89200   0.24862   0.61244   0.00000  Uiso   1.00
N1064  N     0.77467   0.08471   0.88756   0.00000  Uiso   1.00
N1065  N     0.91426   0.00474   0.73876   0.00000  Uiso   1.00
N1066  N     0.75241   0.32859   0.76124   0.00000  Uiso   1.00
N1067  N     0.67705   0.11312   0.71544   0.00000  Uiso   1.00
N1068  N     0.98961   0.22022   0.78456   0.00000  Uiso   1.00
O1069  O     0.79642   0.24619   0.75298   0.00000  Uiso   1.00
O1070  O     0.79112   0.03022   0.95641   0.00000  Uiso   1.00
O1071  O     0.87025   0.08714   0.74702   0.00000  Uiso   1.00
O1072  O     0.89280   0.23721   0.74519   0.00000  Uiso   1.00
O1073  O     0.77387   0.09613   0.75482   0.00000  Uiso   1.00
O1074  O     0.78514   0.17117   0.81998   0.00000  Uiso   1.00
O1075  O     0.88153   0.16216   0.68003   0.00000  Uiso   1.00
O1076  O     0.88152   0.16219   0.81218   0.00000  Uiso   1.00
O1077  O     0.78515   0.17115   0.68782   0.00000  Uiso   1.00
O1078  O     0.87555   0.30312   0.54359   0.00000  Uiso   1.00
Zn1079 Zn    0.76898   0.17266   0.75521   0.00000  Uiso   1.00
Zn1080 Zn    0.89769   0.16067   0.74479   0.00000  Uiso   1.00
C1081  C     0.18145   0.59788   0.74914   0.00000  Uiso   1.00
C1082  C     0.18900   0.54049   0.90542   0.00000  Uiso   1.00
C1083  C     0.16697   0.50198   0.61587   0.00000  Uiso   1.00
C1084  C     0.16637   0.49802   0.88413   0.00000  Uiso   1.00
C1085  C     0.19103   0.54414   0.59162   0.00000  Uiso   1.00
C1086  C     0.14231   0.45586   0.90838   0.00000  Uiso   1.00
C1087  C     0.18619   0.54567   0.54525   0.00000  Uiso   1.00
C1088  C     0.14714   0.45433   0.95475   0.00000  Uiso   1.00
C1089  C     0.16628   0.50092   0.52334   0.00000  Uiso   1.00
C1090  C     0.16705   0.49908   0.97666   0.00000  Uiso   1.00
C1091  C     0.14619   0.45771   0.54819   0.00000  Uiso   1.00
C1092  C     0.15188   0.40212   0.75086   0.00000  Uiso   1.00
C1093  C     0.18714   0.54229   0.95181   0.00000  Uiso   1.00
C1094  C     0.20212   0.59020   0.52045   0.00000  Uiso   1.00
C1095  C     0.13121   0.40980   0.97955   0.00000  Uiso   1.00
C1096  C     0.28636   0.57483   0.60329   0.00000  Uiso   1.00
C1097  C     0.04697   0.42517   0.89671   0.00000  Uiso   1.00
C1098  C     0.25319   0.33507   0.52254   0.00000  Uiso   1.00
C1099  C     0.27358   0.37372   0.55688   0.00000  Uiso   1.00
C1100  C     0.08014   0.66493   0.97746   0.00000  Uiso   1.00
C1101  C     0.05975   0.62628   0.94312   0.00000  Uiso   1.00
C1102  C     0.27505   0.66034   0.69419   0.00000  Uiso   1.00
C1103  C     0.20319   0.58744   0.97340   0.00000  Uiso   1.00
C1104  C     0.05828   0.33965   0.80581   0.00000  Uiso   1.00
C1105  C     0.00364   0.44432   0.66792   0.00000  Uiso   1.00
C1106  C     0.32969   0.55568   0.83208   0.00000  Uiso   1.00
C1107  C     0.13015   0.41256   0.52660   0.00000  Uiso   1.00
C1108  C     0.18971   0.65164   0.74698   0.00000  Uiso   1.00
C1109  C     0.14362   0.34836   0.75302   0.00000  Uiso   1.00
C1110  C     0.16652   0.49948   0.83641   0.00000  Uiso   1.00
C1111  C     0.16682   0.50052   0.66359   0.00000  Uiso   1.00
C1112  C     0.14433   0.45951   0.59458   0.00000  Uiso   1.00
H1113  H     0.12826   0.42673   0.61415   0.00000  Uiso   1.00
H1114  H     0.03499   0.45872   0.87867   0.00000  Uiso   1.00
H1115  H     0.03461   0.43070   0.93337   0.00000  Uiso   1.00
H1116  H     0.02224   0.39121   0.88558   0.00000  Uiso   1.00
H1117  H     0.23684   0.35639   0.99520   0.00000  Uiso   1.00
H1118  H     0.29040   0.64627   0.50875   0.00000  Uiso   1.00
H1119  H     0.29582   0.35456   0.58235   0.00000  Uiso   1.00
H1120  H     0.30386   0.40241   0.53971   0.00000  Uiso   1.00
H1121  H     0.23666   0.39348   0.57427   0.00000  Uiso   1.00
H1122  H     0.04293   0.35373   0.99125   0.00000  Uiso   1.00
H1123  H     0.09649   0.64361   0.50480   0.00000  Uiso   1.00
H1124  H     0.20507   0.57327   0.88585   0.00000  Uiso   1.00
H1125  H     0.09668   0.60652   0.92573   0.00000  Uiso   1.00
H1126  H     0.02948   0.59759   0.96029   0.00000  Uiso   1.00
H1127  H     0.03751   0.64544   0.91765   0.00000  Uiso   1.00
H1128  H     0.27251   0.66278   0.76379   0.00000  Uiso   1.00
H1129  H     0.31846   0.34502   0.68970   0.00000  Uiso   1.00
H1130  H     0.24947   0.34102   0.66806   0.00000  Uiso   1.00
H1131  H     0.28160   0.61923   0.68966   0.00000  Uiso   1.00
H1132  H     0.06082   0.33722   0.73621   0.00000  Uiso   1.00
H1133  H     0.01487   0.65498   0.81030   0.00000  Uiso   1.00
H1134  H     0.05173   0.38077   0.81034   0.00000  Uiso   1.00
H1135  H     0.21437   0.62084   0.95339   0.00000  Uiso   1.00
H1136  H     0.08387   0.65898   0.83194   0.00000  Uiso   1.00
H1137  H     0.00012   0.41273   0.73152   0.00000  Uiso   1.00
H1138  H     0.03140   0.41506   0.65117   0.00000  Uiso   1.00
H1139  H     0.01718   0.48139   0.65251   0.00000  Uiso   1.00
H1140  H     0.29188   0.43406   0.66229   0.00000  Uiso   1.00
H1141  H     0.33321   0.58727   0.76848   0.00000  Uiso   1.00
H1142  H     0.30194   0.58494   0.84883   0.00000  Uiso   1.00
H1143  H     0.04145   0.56594   0.83771   0.00000  Uiso   1.00
H1144  H     0.31616   0.51861   0.84749   0.00000  Uiso   1.00
H1145  H     0.11896   0.37916   0.54661   0.00000  Uiso   1.00
H1146  H     0.21223   0.58966   0.64574   0.00000  Uiso   1.00
H1147  H     0.29835   0.54128   0.62133   0.00000  Uiso   1.00
H1148  H     0.31110   0.60879   0.61442   0.00000  Uiso   1.00
H1149  H     0.29872   0.56930   0.56663   0.00000  Uiso   1.00
H1150  H     0.12110   0.41034   0.85426   0.00000  Uiso   1.00
N1151  N     0.31678   0.48598   0.73783   0.00000  Uiso   1.00
N1152  N     0.01656   0.51402   0.76217   0.00000  Uiso   1.00
N1153  N     0.22533   0.58196   0.61244   0.00000  Uiso   1.00
N1154  N     0.10801   0.41804   0.88756   0.00000  Uiso   1.00
N1155  N     0.24759   0.33808   0.73876   0.00000  Uiso   1.00
N1156  N     0.08574   0.66192   0.76124   0.00000  Uiso   1.00
N1157  N     0.01039   0.44645   0.71544   0.00000  Uiso   1.00
N1158  N     0.32295   0.55355   0.78456   0.00000  Uiso   1.00
O1159  O     0.12975   0.57952   0.75298   0.00000  Uiso   1.00
O1160  O     0.12445   0.36355   0.95641   0.00000  Uiso   1.00
O1161  O     0.20358   0.42048   0.74702   0.00000  Uiso   1.00
O1162  O     0.22613   0.57054   0.74519   0.00000  Uiso   1.00
O1163  O     0.10720   0.42946   0.75482   0.00000  Uiso   1.00
O1164  O     0.11847   0.50450   0.81998   0.00000  Uiso   1.00
O1165  O     0.21486   0.49550   0.68003   0.00000  Uiso   1.00
O1166  O     0.21485   0.49552   0.81218   0.00000  Uiso   1.00
O1167  O     0.11848   0.50448   0.68782   0.00000  Uiso   1.00
O1168  O     0.20888   0.63645   0.54359   0.00000  Uiso   1.00
Zn1169 Zn    0.10231   0.50600   0.75521   0.00000  Uiso   1.00
Zn1170 Zn    0.23102   0.49400   0.74479   0.00000  Uiso   1.00
C1171  C     0.51478   0.59788   0.74914   0.00000  Uiso   1.00
C1172  C     0.52234   0.54049   0.90542   0.00000  Uiso   1.00
C1173  C     0.50030   0.50198   0.61587   0.00000  Uiso   1.00
C1174  C     0.49970   0.49802   0.88413   0.00000  Uiso   1.00
C1175  C     0.52436   0.54414   0.59162   0.00000  Uiso   1.00
C1176  C     0.47564   0.45586   0.90838   0.00000  Uiso   1.00
C1177  C     0.51953   0.54567   0.54525   0.00000  Uiso   1.00
C1178  C     0.48047   0.45433   0.95475   0.00000  Uiso   1.00
C1179  C     0.49962   0.50092   0.52334   0.00000  Uiso   1.00
C1180  C     0.50038   0.49908   0.97666   0.00000  Uiso   1.00
C1181  C     0.47953   0.45771   0.54819   0.00000  Uiso   1.00
C1182  C     0.48522   0.40212   0.75086   0.00000  Uiso   1.00
C1183  C     0.52047   0.54229   0.95181   0.00000  Uiso   1.00
C1184  C     0.53546   0.59020   0.52045   0.00000  Uiso   1.00
C1185  C     0.46454   0.40980   0.97955   0.00000  Uiso   1.00
C1186  C     0.61970   0.57483   0.60329   0.00000  Uiso   1.00
C1187  C     0.38030   0.42517   0.89671   0.00000  Uiso   1.00
C1188  C     0.58652   0.33507   0.52254   0.00000  Uiso   1.00
C1189  C     0.60692   0.37372   0.55688   0.00000  Uiso   1.00
C1190  C     0.41348   0.66493   0.97746   0.00000  Uiso   1.00
C1191  C     0.39308   0.62628   0.94312   0.00000  Uiso   1.00
C1192  C     0.60838   0.66034   0.69419   0.00000  Uiso   1.00
C1193  C     0.53652   0.58744   0.97340   0.00000  Uiso   1.00
C1194  C     0.39162   0.33965   0.80581   0.00000  Uiso   1.00
C1195  C     0.33697   0.44432   0.66792   0.00000  Uiso   1.00
C1196  C     0.66303   0.55568   0.83208   0.00000  Uiso   1.00
C1197  C     0.46348   0.41256   0.52660   0.00000  Uiso   1.00
C1198  C     0.52304   0.65164   0.74698   0.00000  Uiso   1.00
C1199  C     0.47696   0.34836   0.75302   0.00000  Uiso   1.00
C1200  C     0.49985   0.49948   0.83641   0.00000  Uiso   1.00
C1201  C     0.50015   0.50052   0.66359   0.00000  Uiso   1.00
C1202  C     0.47766   0.45951   0.59458   0.00000  Uiso   1.00
H1203  H     0.46160   0.42673   0.61415   0.00000  Uiso   1.00
H1204  H     0.36832   0.45872   0.87867   0.00000  Uiso   1.00
H1205  H     0.36795   0.43070   0.93337   0.00000  Uiso   1.00
H1206  H     0.35557   0.39121   0.88558   0.00000  Uiso   1.00
H1207  H     0.57018   0.35639   0.99520   0.00000  Uiso   1.00
H1208  H     0.62374   0.64627   0.50875   0.00000  Uiso   1.00
H1209  H     0.62915   0.35456   0.58235   0.00000  Uiso   1.00
H1210  H     0.63719   0.40241   0.53971   0.00000  Uiso   1.00
H1211  H     0.56999   0.39348   0.57427   0.00000  Uiso   1.00
H1212  H     0.37626   0.35373   0.99125   0.00000  Uiso   1.00
H1213  H     0.42982   0.64361   0.50480   0.00000  Uiso   1.00
H1214  H     0.53840   0.57327   0.88585   0.00000  Uiso   1.00
H1215  H     0.43001   0.60652   0.92573   0.00000  Uiso   1.00
H1216  H     0.36281   0.59759   0.96029   0.00000  Uiso   1.00
H1217  H     0.37085   0.64544   0.91765   0.00000  Uiso   1.00
H1218  H     0.60585   0.66278   0.76379   0.00000  Uiso   1.00
H1219  H     0.65180   0.34502   0.68970   0.00000  Uiso   1.00
H1220  H     0.58280   0.34102   0.66806   0.00000  Uiso   1.00
H1221  H     0.61494   0.61923   0.68966   0.00000  Uiso   1.00
H1222  H     0.39415   0.33722   0.73621   0.00000  Uiso   1.00
H1223  H     0.34820   0.65498   0.81030   0.00000  Uiso   1.00
H1224  H     0.38506   0.38077   0.81034   0.00000  Uiso   1.00
H1225  H     0.54771   0.62084   0.95339   0.00000  Uiso   1.00
H1226  H     0.41720   0.65898   0.83194   0.00000  Uiso   1.00
H1227  H     0.33345   0.41273   0.73152   0.00000  Uiso   1.00
H1228  H     0.36473   0.41506   0.65117   0.00000  Uiso   1.00
H1229  H     0.35051   0.48139   0.65251   0.00000  Uiso   1.00
H1230  H     0.62522   0.43406   0.66229   0.00000  Uiso   1.00
H1231  H     0.66655   0.58727   0.76848   0.00000  Uiso   1.00
H1232  H     0.63527   0.58494   0.84883   0.00000  Uiso   1.00
H1233  H     0.37478   0.56594   0.83771   0.00000  Uiso   1.00
H1234  H     0.64949   0.51861   0.84749   0.00000  Uiso   1.00
H1235  H     0.45229   0.37916   0.54661   0.00000  Uiso   1.00
H1236  H     0.54556   0.58966   0.64574   0.00000  Uiso   1.00
H1237  H     0.63168   0.54128   0.62133   0.00000  Uiso   1.00
H1238  H     0.64443   0.60879   0.61442   0.00000  Uiso   1.00
H1239  H     0.63205   0.56930   0.56663   0.00000  Uiso   1.00
H1240  H     0.45444   0.41034   0.85426   0.00000  Uiso   1.00
N1241  N     0.65011   0.48598   0.73783   0.00000  Uiso   1.00
N1242  N     0.34989   0.51402   0.76217   0.00000  Uiso   1.00
N1243  N     0.55866   0.58196   0.61244   0.00000  Uiso   1.00
N1244  N     0.44134   0.41804   0.88756   0.00000  Uiso   1.00
N1245  N     0.58092   0.33808   0.73876   0.00000  Uiso   1.00
N1246  N     0.41908   0.66192   0.76124   0.00000  Uiso   1.00
N1247  N     0.34372   0.44645   0.71544   0.00000  Uiso   1.00
N1248  N     0.65628   0.55355   0.78456   0.00000  Uiso   1.00
O1249  O     0.46308   0.57952   0.75298   0.00000  Uiso   1.00
O1250  O     0.45779   0.36355   0.95641   0.00000  Uiso   1.00
O1251  O     0.53692   0.42048   0.74702   0.00000  Uiso   1.00
O1252  O     0.55946   0.57054   0.74519   0.00000  Uiso   1.00
O1253  O     0.44054   0.42946   0.75482   0.00000  Uiso   1.00
O1254  O     0.45181   0.50450   0.81998   0.00000  Uiso   1.00
O1255  O     0.54819   0.49550   0.68003   0.00000  Uiso   1.00
O1256  O     0.54819   0.49552   0.81218   0.00000  Uiso   1.00
O1257  O     0.45181   0.50448   0.68782   0.00000  Uiso   1.00
O1258  O     0.54222   0.63645   0.54359   0.00000  Uiso   1.00
Zn1259 Zn    0.43565   0.50600   0.75521   0.00000  Uiso   1.00
Zn1260 Zn    0.56435   0.49400   0.74479   0.00000  Uiso   1.00
C1261  C     0.84812   0.59788   0.74914   0.00000  Uiso   1.00
C1262  C     0.85567   0.54049   0.90542   0.00000  Uiso   1.00
C1263  C     0.83363   0.50198   0.61587   0.00000  Uiso   1.00
C1264  C     0.83303   0.49802   0.88413   0.00000  Uiso   1.00
C1265  C     0.85769   0.54414   0.59162   0.00000  Uiso   1.00
C1266  C     0.80897   0.45586   0.90838   0.00000  Uiso   1.00
C1267  C     0.85286   0.54567   0.54525   0.00000  Uiso   1.00
C1268  C     0.81381   0.45433   0.95475   0.00000  Uiso   1.00
C1269  C     0.83295   0.50092   0.52334   0.00000  Uiso   1.00
C1270  C     0.83372   0.49908   0.97666   0.00000  Uiso   1.00
C1271  C     0.81286   0.45771   0.54819   0.00000  Uiso   1.00
C1272  C     0.81855   0.40212   0.75086   0.00000  Uiso   1.00
C1273  C     0.85381   0.54229   0.95181   0.00000  Uiso   1.00
C1274  C     0.86879   0.59020   0.52045   0.00000  Uiso   1.00
C1275  C     0.79788   0.40980   0.97955   0.00000  Uiso   1.00
C1276  C     0.95303   0.57483   0.60329   0.00000  Uiso   1.00
C1277  C     0.71364   0.42517   0.89671   0.00000  Uiso   1.00
C1278  C     0.91986   0.33507   0.52254   0.00000  Uiso   1.00
C1279  C     0.94025   0.37372   0.55688   0.00000  Uiso   1.00
C1280  C     0.74681   0.66493   0.97746   0.00000  Uiso   1.00
C1281  C     0.72642   0.62628   0.94312   0.00000  Uiso   1.00
C1282  C     0.94172   0.66034   0.69419   0.00000  Uiso   1.00
C1283  C     0.86985   0.58744   0.97340   0.00000  Uiso   1.00
C1284  C     0.72495   0.33965   0.80581   0.00000  Uiso   1.00
C1285  C     0.67031   0.44432   0.66792   0.00000  Uiso   1.00
C1286  C     0.99636   0.55568   0.83208   0.00000  Uiso   1.00
C1287  C     0.79681   0.41256   0.52660   0.00000  Uiso   1.00
C1288  C     0.85638   0.65164   0.74698   0.00000  Uiso   1.00
C1289  C     0.81029   0.34836   0.75302   0.00000  Uiso   1.00
C1290  C     0.83318   0.49948   0.83641   0.00000  Uiso   1.00
C1291  C     0.83348   0.50052   0.66359   0.00000  Uiso   1.00
C1292  C     0.81100   0.45951   0.59458   0.00000  Uiso   1.00
H1293  H     0.79493   0.42673   0.61415   0.00000  Uiso   1.00
H1294  H     0.70166   0.45872   0.87867   0.00000  Uiso   1.00
H1295  H     0.70128   0.43070   0.93337   0.00000  Uiso   1.00
H1296  H     0.68891   0.39121   0.88558   0.00000  Uiso   1.00
H1297  H     0.90351   0.35639   0.99520   0.00000  Uiso   1.00
H1298  H     0.95707   0.64627   0.50875   0.00000  Uiso   1.00
H1299  H     0.96249   0.35456   0.58235   0.00000  Uiso   1.00
H1300  H     0.97052   0.40241   0.53971   0.00000  Uiso   1.00
H1301  H     0.90332   0.39348   0.57427   0.00000  Uiso   1.00
H1302  H     0.70960   0.35373   0.99125   0.00000  Uiso   1.00
H1303  H     0.76316   0.64361   0.50480   0.00000  Uiso   1.00
H1304  H     0.87174   0.57327   0.88585   0.00000  Uiso   1.00
H1305  H     0.76334   0.60652   0.92573   0.00000  Uiso   1.00
H1306  H     0.69614   0.59759   0.96029   0.00000  Uiso   1.00
H1307  H     0.70418   0.64544   0.91765   0.00000  Uiso   1.00
H1308  H     0.93918   0.66278   0.76379   0.00000  Uiso   1.00
H1309  H     0.98513   0.34502   0.68970   0.00000  Uiso   1.00
H1310  H     0.91613   0.34102   0.66806   0.00000  Uiso   1.00
H1311  H     0.94827   0.61923   0.68966   0.00000  Uiso   1.00
H1312  H     0.72749   0.33722   0.73621   0.00000  Uiso   1.00
H1313  H     0.68154   0.65498   0.81030   0.00000  Uiso   1.00
H1314  H     0.71840   0.38077   0.81034   0.00000  Uiso   1.00
H1315  H     0.88104   0.62084   0.95339   0.00000  Uiso   1.00
H1316  H     0.75053   0.65898   0.83194   0.00000  Uiso   1.00
H1317  H     0.66679   0.41273   0.73152   0.00000  Uiso   1.00
H1318  H     0.69806   0.41506   0.65117   0.00000  Uiso   1.00
H1319  H     0.68384   0.48139   0.65251   0.00000  Uiso   1.00
H1320  H     0.95855   0.43406   0.66229   0.00000  Uiso   1.00
H1321  H     0.99988   0.58727   0.76848   0.00000  Uiso   1.00
H1322  H     0.96860   0.58494   0.84883   0.00000  Uiso   1.00
H1323  H     0.70812   0.56594   0.83771   0.00000  Uiso   1.00
H1324  H     0.98282   0.51861   0.84749   0.00000  Uiso   1.00
H1325  H     0.78563   0.37916   0.54661   0.00000  Uiso   1.00
H1326  H     0.87890   0.58966   0.64574   0.00000  Uiso   1.00
H1327  H     0.96501   0.54128   0.62133   0.00000  Uiso   1.00
H1328  H     0.97776   0.60879   0.61442   0.00000  Uiso   1.00
H1329  H     0.96539   0.56930   0.56663   0.00000  Uiso   1.00
H1330  H     0.78777   0.41034   0.85426   0.00000  Uiso   1.00
N1331  N     0.98344   0.48598   0.73783   0.00000  Uiso   1.00
N1332  N     0.68322   0.51402   0.76217   0.00000  Uiso   1.00
N1333  N     0.89200   0.58196   0.61244   0.00000  Uiso   1.00
N1334  N     0.77467   0.41804   0.88756   0.00000  Uiso   1.00
N1335  N     0.91426   0.33808   0.73876   0.00000  Uiso   1.00
N1336  N     0.75241   0.66192   0.76124   0.00000  Uiso   1.00
N1337  N     0.67705   0.44645   0.71544   0.00000  Uiso   1.00
N1338  N     0.98961   0.55355   0.78456   0.00000  Uiso   1.00
O1339  O     0.79642   0.57952   0.75298   0.00000  Uiso   1.00
O1340  O     0.79112   0.36355   0.95641   0.00000  Uiso   1.00
O1341  O     0.87025   0.42048   0.74702   0.00000  Uiso   1.00
O1342  O     0.89280   0.57054   0.74519   0.00000  Uiso   1.00
O1343  O     0.77387   0.42946   0.75482   0.00000  Uiso   1.00
O1344  O     0.78514   0.50450   0.81998   0.00000  Uiso   1.00
O1345  O     0.88153   0.49550   0.68003   0.00000  Uiso   1.00
O1346  O     0.88152   0.49552   0.81218   0.00000  Uiso   1.00
O1347  O     0.78515   0.50448   0.68782   0.00000  Uiso   1.00
O1348  O     0.87555   0.63645   0.54359   0.00000  Uiso   1.00
Zn1349 Zn    0.76898   0.50600   0.75521   0.00000  Uiso   1.00
Zn1350 Zn    0.89769   0.49400   0.74479   0.00000  Uiso   1.00
C1351  C     0.18145   0.93121   0.74914   0.00000  Uiso   1.00
C1352  C     0.18900   0.87383   0.90542   0.00000  Uiso   1.00
C1353  C     0.16697   0.83532   0.61587   0.00000  Uiso   1.00
C1354  C     0.16637   0.83135   0.88413   0.00000  Uiso   1.00
C1355  C     0.19103   0.87747   0.59162   0.00000  Uiso   1.00
C1356  C     0.14231   0.78920   0.90838   0.00000  Uiso   1.00
C1357  C     0.18619   0.87900   0.54525   0.00000  Uiso   1.00
C1358  C     0.14714   0.78766   0.95475   0.00000  Uiso   1.00
C1359  C     0.16628   0.83425   0.52334   0.00000  Uiso   1.00
C1360  C     0.16705   0.83241   0.97666   0.00000  Uiso   1.00
C1361  C     0.14619   0.79104   0.54819   0.00000  Uiso   1.00
C1362  C     0.15188   0.73545   0.75086   0.00000  Uiso   1.00
C1363  C     0.18714   0.87562   0.95181   0.00000  Uiso   1.00
C1364  C     0.20212   0.92353   0.52045   0.00000  Uiso   1.00
C1365  C     0.13121   0.74313   0.97955   0.00000  Uiso   1.00
C1366  C     0.28636   0.90816   0.60329   0.00000  Uiso   1.00
C1367  C     0.04697   0.75851   0.89671   0.00000  Uiso   1.00
C1368  C     0.25319   0.66840   0.52254   0.00000  Uiso   1.00
C1369  C     0.27358   0.70705   0.55688   0.00000  Uiso   1.00
C1370  C     0.08014   0.99827   0.97746   0.00000  Uiso   1.00
C1371  C     0.05975   0.95961   0.94312   0.00000  Uiso   1.00
C1372  C     0.27505   0.99368   0.69419   0.00000  Uiso   1.00
C1373  C     0.20319   0.92078   0.97340   0.00000  Uiso   1.00
C1374  C     0.05828   0.67299   0.80581   0.00000  Uiso   1.00
C1375  C     0.00364   0.77765   0.66792   0.00000  Uiso   1.00
C1376  C     0.32969   0.88901   0.83208   0.00000  Uiso   1.00
C1377  C     0.13015   0.74589   0.52660   0.00000  Uiso   1.00
C1378  C     0.18971   0.98497   0.74698   0.00000  Uiso   1.00
C1379  C     0.14362   0.68169   0.75302   0.00000  Uiso   1.00
C1380  C     0.16652   0.83281   0.83641   0.00000  Uiso   1.00
C1381  C     0.16682   0.83386   0.66359   0.00000  Uiso   1.00
C1382  C     0.14433   0.79284   0.59458   0.00000  Uiso   1.00
H1383  H     0.12826   0.76006   0.61415   0.00000  Uiso   1.00
H1384  H     0.03499   0.79205   0.87867   0.00000  Uiso   1.00
H1385  H     0.03461   0.76404   0.93337   0.00000  Uiso   1.00
H1386  H     0.02224   0.72454   0.88558   0.00000  Uiso   1.00
H1387  H     0.23684   0.68972   0.99520   0.00000  Uiso   1.00
H1388  H     0.29040   0.97960   0.50875   0.00000  Uiso   1.00
H1389  H     0.29582   0.68789   0.58235   0.00000  Uiso   1.00
H1390  H     0.30386   0.73574   0.53971   0.00000  Uiso   1.00
H1391  H     0.23666   0.72681   0.57427   0.00000  Uiso   1.00
H1392  H     0.04293   0.68707   0.99125   0.00000  Uiso   1.00
H1393  H     0.09649   0.97695   0.50480   0.00000  Uiso   1.00
H1394  H     0.20507   0.90660   0.88585   0.00000  Uiso   1.00
H1395  H     0.09668   0.93985   0.92573   0.00000  Uiso   1.00
H1396  H     0.02948   0.93092   0.96029   0.00000  Uiso   1.00
H1397  H     0.03751   0.97877   0.91765   0.00000  Uiso   1.00
H1398  H     0.27251   0.99611   0.76379   0.00000  Uiso   1.00
H1399  H     0.31846   0.67835   0.68970   0.00000  Uiso   1.00
H1400  H     0.24947   0.67436   0.66806   0.00000  Uiso   1.00
H1401  H     0.28160   0.95257   0.68966   0.00000  Uiso   1.00
H1402  H     0.06082   0.67055   0.73621   0.00000  Uiso   1.00
H1403  H     0.01487   0.98832   0.81030   0.00000  Uiso   1.00
H1404  H     0.05173   0.71410   0.81034   0.00000  Uiso   1.00
H1405  H     0.21437   0.95417   0.95339   0.00000  Uiso   1.00
H1406  H     0.08387   0.99231   0.83194   0.00000  Uiso   1.00
H1407  H     0.00012   0.74606   0.73152   0.00000  Uiso   1.00
H1408  H     0.03140   0.74840   0.65117   0.00000  Uiso   1.00
H1409  H     0.01718   0.81472   0.65251   0.00000  Uiso   1.00
H1410  H     0.29188   0.76740   0.66229   0.00000  Uiso   1.00
H1411  H     0.33321   0.92060   0.76848   0.00000  Uiso   1.00
H1412  H     0.30194   0.91827   0.84883   0.00000  Uiso   1.00
H1413  H     0.04145   0.89927   0.83771   0.00000  Uiso   1.00
H1414  H     0.31616   0.85194   0.84749   0.00000  Uiso   1.00
H1415  H     0.11896   0.71249   0.54661   0.00000  Uiso   1.00
H1416  H     0.21223   0.92300   0.64574   0.00000  Uiso   1.00
H1417  H     0.29835   0.87462   0.62133   0.00000  Uiso   1.00
H1418  H     0.31110   0.94212   0.61442   0.00000  Uiso   1.00
H1419  H     0.29872   0.90263   0.56663   0.00000  Uiso   1.00
H1420  H     0.12110   0.74367   0.85426   0.00000  Uiso   1.00
N1421  N     0.31678   0.81932   0.73783   0.00000  Uiso   1.00
N1422  N     0.01656   0.84735   0.76217   0.00000  Uiso   1.00
N1423  N     0.22533   0.91529   0.61244   0.00000  Uiso   1.00
N1424  N     0.10801   0.75138   0.88756   0.00000  Uiso   1.00
N1425  N     0.24759   0.67141   0.73876   0.00000  Uiso   1.00
N1426  N     0.08574   0.99526   0.76124   0.00000  Uiso   1.00
N1427  N     0.01039   0.77978   0.71544   0.00000  Uiso   1.00
N1428  N     0.32295   0.88688   0.78456   0.00000  Uiso   1.00
O1429  O     0.12975   0.91286   0.75298   0.00000  Uiso   1.00
O1430  O     0.12445   0.69688   0.95641   0.00000  Uiso   1.00
O1431  O     0.20358   0.75381   0.74702   0.00000  Uiso   1.00
O1432  O     0.22613   0.90387   0.74519   0.00000  Uiso   1.00
O1433  O     0.10720   0.76279   0.75482   0.00000  Uiso   1.00
O1434  O     0.11847   0.83784   0.81998   0.00000  Uiso   1.00
O1435  O     0.21486   0.82883   0.68003   0.00000  Uiso   1.00
O1436  O     0.21485   0.82885   0.81218   0.00000  Uiso   1.00
O1437  O     0.11848   0.83781   0.68782   0.00000  Uiso   1.00
O1438  O     0.20888   0.96978   0.54359   0.00000  Uiso   1.00
Zn1439 Zn    0.10231   0.83933   0.75521   0.00000  Uiso   1.00
Zn1440 Zn    0.23102   0.82734   0.74479   0.00000  Uiso   1.00
C1441  C     0.51478   0.93121   0.74914   0.00000  Uiso   1.00
C1442  C     0.52234   0.87383   0.90542   0.00000  Uiso   1.00
C1443  C     0.50030   0.83532   0.61587   0.00000  Uiso   1.00
C1444  C     0.49970   0.83135   0.88413   0.00000  Uiso   1.00
C1445  C     0.52436   0.87747   0.59162   0.00000  Uiso   1.00
C1446  C     0.47564   0.78920   0.90838   0.00000  Uiso   1.00
C1447  C     0.51953   0.87900   0.54525   0.00000  Uiso   1.00
C1448  C     0.48047   0.78766   0.95475   0.00000  Uiso   1.00
C1449  C     0.49962   0.83425   0.52334   0.00000  Uiso   1.00
C1450  C     0.50038   0.83241   0.97666   0.00000  Uiso   1.00
C1451  C     0.47953   0.79104   0.54819   0.00000  Uiso   1.00
C1452  C     0.48522   0.73545   0.75086   0.00000  Uiso   1.00
C1453  C     0.52047   0.87562   0.95181   0.00000  Uiso   1.00
C1454  C     0.53546   0.92353   0.52045   0.00000  Uiso   1.00
C1455  C     0.46454   0.74313   0.97955   0.00000  Uiso   1.00
C1456  C     0.61970   0.90816   0.60329   0.00000  Uiso   1.00
C1457  C     0.38030   0.75851   0.89671   0.00000  Uiso   1.00
C1458  C     0.58652   0.66840   0.52254   0.00000  Uiso   1.00
C1459  C     0.60692   0.70705   0.55688   0.00000  Uiso   1.00
C1460  C     0.41348   0.99827   0.97746   0.00000  Uiso   1.00
C1461  C     0.39308   0.95961   0.94312   0.00000  Uiso   1.00
C1462  C     0.60838   0.99368   0.69419   0.00000  Uiso   1.00
C1463  C     0.53652   0.92078   0.97340   0.00000  Uiso   1.00
C1464  C     0.39162   0.67299   0.80581   0.00000  Uiso   1.00
C1465  C     0.33697   0.77765   0.66792   0.00000  Uiso   1.00
C1466  C     0.66303   0.88901   0.83208   0.00000  Uiso   1.00
C1467  C     0.46348   0.74589   0.52660   0.00000  Uiso   1.00
C1468  C     0.52304   0.98497   0.74698   0.00000  Uiso   1.00
C1469  C     0.47696   0.68169   0.75302   0.00000  Uiso   1.00
C1470  C     0.49985   0.83281   0.83641   0.00000  Uiso   1.00
C1471  C     0.50015   0.83386   0.66359   0.00000  Uiso   1.00
C1472  C     0.47766   0.79284   0.59458   0.00000  Uiso   1.00
H1473  H     0.46160   0.76006   0.61415   0.00000  Uiso   1.00
H1474  H     0.36832   0.79205   0.87867   0.00000  Uiso   1.00
H1475  H     0.36795   0.76404   0.93337   0.00000  Uiso   1.00
H1476  H     0.35557   0.72454   0.88558   0.00000  Uiso   1.00
H1477  H     0.57018   0.68972   0.99520   0.00000  Uiso   1.00
H1478  H     0.62374   0.97960   0.50875   0.00000  Uiso   1.00
H1479  H     0.62915   0.68789   0.58235   0.00000  Uiso   1.00
H1480  H     0.63719   0.73574   0.53971   0.00000  Uiso   1.00
H1481  H     0.56999   0.72681   0.57427   0.00000  Uiso   1.00
H1482  H     0.37626   0.68707   0.99125   0.00000  Uiso   1.00
H1483  H     0.42982   0.97695   0.50480   0.00000  Uiso   1.00
H1484  H     0.53840   0.90660   0.88585   0.00000  Uiso   1.00
H1485  H     0.43001   0.93985   0.92573   0.00000  Uiso   1.00
H1486  H     0.36281   0.93092   0.96029   0.00000  Uiso   1.00
H1487  H     0.37085   0.97877   0.91765   0.00000  Uiso   1.00
H1488  H     0.60585   0.99611   0.76379   0.00000  Uiso   1.00
H1489  H     0.65180   0.67835   0.68970   0.00000  Uiso   1.00
H1490  H     0.58280   0.67436   0.66806   0.00000  Uiso   1.00
H1491  H     0.61494   0.95257   0.68966   0.00000  Uiso   1.00
H1492  H     0.39415   0.67055   0.73621   0.00000  Uiso   1.00
H1493  H     0.34820   0.98832   0.81030   0.00000  Uiso   1.00
H1494  H     0.38506   0.71410   0.81034   0.00000  Uiso   1.00
H1495  H     0.54771   0.95417   0.95339   0.00000  Uiso   1.00
H1496  H     0.41720   0.99231   0.83194   0.00000  Uiso   1.00
H1497  H     0.33345   0.74606   0.73152   0.00000  Uiso   1.00
H1498  H     0.36473   0.74840   0.65117   0.00000  Uiso   1.00
H1499  H     0.35051   0.81472   0.65251   0.00000  Uiso   1.00
H1500  H     0.62522   0.76740   0.66229   0.00000  Uiso   1.00
H1501  H     0.66655   0.92060   0.76848   0.00000  Uiso   1.00
H1502  H     0.63527   0.91827   0.84883   0.00000  Uiso   1.00
H1503  H     0.37478   0.89927   0.83771   0.00000  Uiso   1.00
H1504  H     0.64949   0.85194   0.84749   0.00000  Uiso   1.00
H1505  H     0.45229   0.71249   0.54661   0.00000  Uiso   1.00
H1506  H     0.54556   0.92300   0.64574   0.00000  Uiso   1.00
H1507  H     0.63168   0.87462   0.62133   0.00000  Uiso   1.00
H1508  H     0.64443   0.94212   0.61442   0.00000  Uiso   1.00
H1509  H     0.63205   0.90263   0.56663   0.00000  Uiso   1.00
H1510  H     0.45444   0.74367   0.85426   0.00000  Uiso   1.00
N1511  N     0.65011   0.81932   0.73783   0.00000  Uiso   1.00
N1512  N     0.34989   0.84735   0.76217   0.00000  Uiso   1.00
N1513  N     0.55866   0.91529   0.61244   0.00000  Uiso   1.00
N1514  N     0.44134   0.75138   0.88756   0.00000  Uiso   1.00
N1515  N     0.58092   0.67141   0.73876   0.00000  Uiso   1.00
N1516  N     0.41908   0.99526   0.76124   0.00000  Uiso   1.00
N1517  N     0.34372   0.77978   0.71544   0.00000  Uiso   1.00
N1518  N     0.65628   0.88688   0.78456   0.00000  Uiso   1.00
O1519  O     0.46308   0.91286   0.75298   0.00000  Uiso   1.00
O1520  O     0.45779   0.69688   0.95641   0.00000  Uiso   1.00
O1521  O     0.53692   0.75381   0.74702   0.00000  Uiso   1.00
O1522  O     0.55946   0.90387   0.74519   0.00000  Uiso   1.00
O1523  O     0.44054   0.76279   0.75482   0.00000  Uiso   1.00
O1524  O     0.45181   0.83784   0.81998   0.00000  Uiso   1.00
O1525  O     0.54819   0.82883   0.68003   0.00000  Uiso   1.00
O1526  O     0.54819   0.82885   0.81218   0.00000  Uiso   1.00
O1527  O     0.45181   0.83781   0.68782   0.00000  Uiso   1.00
O1528  O     0.54222   0.96978   0.54359   0.00000  Uiso   1.00
Zn1529 Zn    0.43565   0.83933   0.75521   0.00000  Uiso   1.00
Zn1530 Zn    0.56435   0.82734   0.74479   0.00000  Uiso   1.00
C1531  C     0.84812   0.93121   0.74914   0.00000  Uiso   1.00
C1532  C     0.85567   0.87383   0.90542   0.00000  Uiso   1.00
C1533  C     0.83363   0.83532   0.61587   0.00000  Uiso   1.00
C1534  C     0.83303   0.83135   0.88413   0.00000  Uiso   1.00
C1535  C     0.85769   0.87747   0.59162   0.00000  Uiso   1.00
C1536  C     0.80897   0.78920   0.90838   0.00000  Uiso   1.00
C1537  C     0.85286   0.87900   0.54525   0.00000  Uiso   1.00
C1538  C     0.81381   0.78766   0.95475   0.00000  Uiso   1.00
C1539  C     0.83295   0.83425   0.52334   0.00000  Uiso   1.00
C1540  C     0.83372   0.83241   0.97666   0.00000  Uiso   1.00
C1541  C     0.81286   0.79104   0.54819   0.00000  Uiso   1.00
C1542  C     0.81855   0.73545   0.75086   0.00000  Uiso   1.00
C1543  C     0.85381   0.87562   0.95181   0.00000  Uiso   1.00
C1544  C     0.86879   0.92353   0.52045   0.00000  Uiso   1.00
C1545  C     0.79788   0.74313   0.97955   0.00000  Uiso   1.00
C1546  C     0.95303   0.90816   0.60329   0.00000  Uiso   1.00
C1547  C     0.71364   0.75851   0.89671   0.00000  Uiso   1.00
C1548  C     0.91986   0.66840   0.52254   0.00000  Uiso   1.00
C1549  C     0.94025   0.70705   0.55688   0.00000  Uiso   1.00
C1550  C     0.74681   0.99827   0.97746   0.00000  Uiso   1.00
C1551  C     0.72642   0.95961   0.94312   0.00000  Uiso   1.00
C1552  C     0.94172   0.99368   0.69419   0.00000  Uiso   1.00
C1553  C     0.86985   0.92078   0.97340   0.00000  Uiso   1.00
C1554  C     0.72495   0.67299   0.80581   0.00000  Uiso   1.00
C1555  C     0.67031   0.77765   0.66792   0.00000  Uiso   1.00
C1556  C     0.99636   0.88901   0.83208   0.00000  Uiso   1.00
C1557  C     0.79681   0.74589   0.52660   0.00000  Uiso   1.00
C1558  C     0.85638   0.98497   0.74698   0.00000  Uiso   1.00
C1559  C     0.81029   0.68169   0.75302   0.00000  Uiso   1.00
C1560  C     0.83318   0.83281   0.83641   0.00000  Uiso   1.00
C1561  C     0.83348   0.83386   0.66359   0.00000  Uiso   1.00
C1562  C     0.81100   0.79284   0.59458   0.00000  Uiso   1.00
H1563  H     0.79493   0.76006   0.61415   0.00000  Uiso   1.00
H1564  H     0.70166   0.79205   0.87867   0.00000  Uiso   1.00
H1565  H     0.70128   0.76404   0.93337   0.00000  Uiso   1.00
H1566  H     0.68891   0.72454   0.88558   0.00000  Uiso   1.00
H1567  H     0.90351   0.68972   0.99520   0.00000  Uiso   1.00
H1568  H     0.95707   0.97960   0.50875   0.00000  Uiso   1.00
H1569  H     0.96249   0.68789   0.58235   0.00000  Uiso   1.00
H1570  H     0.97052   0.73574   0.53971   0.00000  Uiso   1.00
H1571  H     0.90332   0.72681   0.57427   0.00000  Uiso   1.00
H1572  H     0.70960   0.68707   0.99125   0.00000  Uiso   1.00
H1573  H     0.76316   0.97695   0.50480   0.00000  Uiso   1.00
H1574  H     0.87174   0.90660   0.88585   0.00000  Uiso   1.00
H1575  H     0.76334   0.93985   0.92573   0.00000  Uiso   1.00
H1576  H     0.69614   0.93092   0.96029   0.00000  Uiso   1.00
H1577  H     0.70418   0.97877   0.91765   0.00000  Uiso   1.00
H1578  H     0.93918   0.99611   0.76379   0.00000  Uiso   1.00
H1579  H     0.98513   0.67835   0.68970   0.00000  Uiso   1.00
H1580  H     0.91613   0.67436   0.66806   0.00000  Uiso   1.00
H1581  H     0.94827   0.95257   0.68966   0.00000  Uiso   1.00
H1582  H     0.72749   0.67055   0.73621   0.00000  Uiso   1.00
H1583  H     0.68154   0.98832   0.81030   0.00000  Uiso   1.00
H1584  H     0.71840   0.71410   0.81034   0.00000  Uiso   1.00
H1585  H     0.88104   0.95417   0.95339   0.00000  Uiso   1.00
H1586  H     0.75053   0.99231   0.83194   0.00000  Uiso   1.00
H1587  H     0.66679   0.74606   0.73152   0.00000  Uiso   1.00
H1588  H     0.69806   0.74840   0.65117   0.00000  Uiso   1.00
H1589  H     0.68384   0.81472   0.65251   0.00000  Uiso   1.00
H1590  H     0.95855   0.76740   0.66229   0.00000  Uiso   1.00
H1591  H     0.99988   0.92060   0.76848   0.00000  Uiso   1.00
H1592  H     0.96860   0.91827   0.84883   0.00000  Uiso   1.00
H1593  H     0.70812   0.89927   0.83771   0.00000  Uiso   1.00
H1594  H     0.98282   0.85194   0.84749   0.00000  Uiso   1.00
H1595  H     0.78563   0.71249   0.54661   0.00000  Uiso   1.00
H1596  H     0.87890   0.92300   0.64574   0.00000  Uiso   1.00
H1597  H     0.96501   0.87462   0.62133   0.00000  Uiso   1.00
H1598  H     0.97776   0.94212   0.61442   0.00000  Uiso   1.00
H1599  H     0.96539   0.90263   0.56663   0.00000  Uiso   1.00
H1600  H     0.78777   0.74367   0.85426   0.00000  Uiso   1.00
N1601  N     0.98344   0.81932   0.73783   0.00000  Uiso   1.00
N1602  N     0.68322   0.84735   0.76217   0.00000  Uiso   1.00
N1603  N     0.89200   0.91529   0.61244   0.00000  Uiso   1.00
N1604  N     0.77467   0.75138   0.88756   0.00000  Uiso   1.00
N1605  N     0.91426   0.67141   0.73876   0.00000  Uiso   1.00
N1606  N     0.75241   0.99526   0.76124   0.00000  Uiso   1.00
N1607  N     0.67705   0.77978   0.71544   0.00000  Uiso   1.00
N1608  N     0.98961   0.88688   0.78456   0.00000  Uiso   1.00
O1609  O     0.79642   0.91286   0.75298   0.00000  Uiso   1.00
O1610  O     0.79112   0.69688   0.95641   0.00000  Uiso   1.00
O1611  O     0.87025   0.75381   0.74702   0.00000  Uiso   1.00
O1612  O     0.89280   0.90387   0.74519   0.00000  Uiso   1.00
O1613  O     0.77387   0.76279   0.75482   0.00000  Uiso   1.00
O1614  O     0.78514   0.83784   0.81998   0.00000  Uiso   1.00
O1615  O     0.88153   0.82883   0.68003   0.00000  Uiso   1.00
O1616  O     0.88152   0.82885   0.81218   0.00000  Uiso   1.00
O1617  O     0.78515   0.83781   0.68782   0.00000  Uiso   1.00
O1618  O     0.87555   0.96978   0.54359   0.00000  Uiso   1.00
Zn1619 Zn    0.76898   0.83933   0.75521   0.00000  Uiso   1.00
Zn1620 Zn    0.89769   0.82734   0.74479   0.00000  Uiso   1.00
loop_
_geom_bond_atom_site_label_1
_geom_bond_atom_site_label_2
_geom_bond_distance
_geom_bond_site_symmetry_2
_ccdc_geom_bond_type
C1     C28     1.422   .     S
C1     O82     1.293   .     A
C1     O79     1.280   .     A
C2     C13     1.381   .     A
C2     H44     1.085   .     S
C2     C4      1.385   .     A
C3     C5      1.405   .     A
C3     C31     1.426   .     S
C3     C32     1.385   .     A
C4     C6      1.405   .     A
C4     C30     1.426   .     S
C5     C7      1.402   .     A
C5     N73     1.423   .     S
C6     N74     1.423   .     S
C6     C8      1.402   .     A
C7     C14     1.417   .     A
C7     C9      1.418   .     A
C8     C15     1.417   .     A
C8     C10     1.418   .     A
C9     C11     1.410   .     A
C9     C820    1.392   1_554 S
C10    C13     1.410   .     A
C10    C819    1.392   .     S
C11    C27     1.394   .     A
C11    C32     1.381   .     A
C12    C29     1.422   .     S
C12    O83     1.293   .     A
C12    O81     1.280   .     A
C13    C23     1.394   .     A
C14    O88     1.396   .     S
C14    C833    1.402   1_554 S
C15    O80     1.396   .     S
C15    C837    1.402   .     S
C16    H68     1.106   .     S
C16    N73     1.451   .     S
C16    H67     1.107   .     S
C16    H69     1.111   .     S
C17    H36     1.106   .     S
C17    N74     1.451   .     S
C17    H35     1.111   .     S
C17    H34     1.107   .     S
C18    C19     1.523   .     S
C18    H847    1.111   1_554 S
C18    H578    1.111   1_545 S
C18    O628    1.413   1_545 S
C19    H39     1.108   .     S
C19    H40     1.110   .     S
C19    H41     1.108   .     S
C20    C21     1.523   .     S
C20    H312    1.111   .     S
C20    H853    1.111   .     S
C20    O350    1.413   .     S
C21    H45     1.108   .     S
C21    H46     1.110   .     S
C21    H47     1.108   .     S
C22    H51     1.104   .     S
C22    H319    1.101   .     S
C22    H320    1.111   .     S
C22    N345    1.447   .     S
C23    H55     1.082   .     S
C23    C824    1.402   .     S
C24    H54     1.104   .     S
C24    H593    1.101   1_545 S
C24    H596    1.111   1_545 S
C24    N616    1.447   1_545 S
C25    N77     1.443   .     S
C25    H58     1.109   .     S
C25    H59     1.109   .     S
C25    H240    1.108   1_455 S
C26    N78     1.443   .     S
C26    H64     1.109   .     S
C26    H62     1.109   .     S
C26    H153    1.108   .     S
C27    H65     1.082   .     S
C27    C825    1.402   1_554 S
C28    C299    1.364   .     S
C28    N345    1.431   .     S
C29    C568    1.364   1_545 S
C29    N616    1.431   1_545 S
C30    O86     1.289   .     A
C30    O84     1.288   .     A
C31    O85     1.288   .     A
C31    O87     1.289   .     A
C32    H33     1.085   .     S
H37    C828    1.111   .     S
H38    C288    1.111   .     S
H42    C560    1.111   1_545 S
H43    C830    1.111   1_554 S
H48    N345    1.030   .     S
H49    C562    1.101   1_545 S
H50    C562    1.111   1_545 S
H52    N616    1.030   1_545 S
H53    C294    1.101   .     S
H56    C294    1.111   .     S
H57    N77     1.027   .     S
H60    C115    1.108   .     S
H61    N78     1.027   .     S
H63    C206    1.108   1_455 S
H66    N73     1.028   .     S
H70    N74     1.028   .     S
N71    Zn90    2.022   .     S
N71    N162    1.309   .     S
N71    N167    1.368   .     S
N72    Zn89    2.022   .     S
N72    N251    1.309   1_455 S
N72    N258    1.368   1_455 S
N75    C562    1.447   1_545 S
N75    C568    1.431   1_545 S
N75    H588    1.030   1_545 S
N76    H322    1.030   .     S
N76    C299    1.431   .     S
N76    C294    1.447   .     S
N77    N251    1.368   1_455 S
N78    N162    1.368   .     S
O79    Zn89    2.013   .     S
O80    C560    1.413   1_545 S
O81    Zn90    2.013   .     S
O82    Zn90    2.024   .     S
O83    Zn89    2.024   .     S
O84    Zn89    2.009   .     S
O85    Zn90    2.009   .     S
O86    Zn90    2.009   .     S
O87    Zn89    2.009   .     S
O88    C288    1.413   .     S
C91    C118    1.422   .     S
C91    O172    1.293   .     A
C91    O169    1.280   .     A
C92    C103    1.381   .     A
C92    H134    1.085   .     S
C92    C94     1.385   .     A
C93    C95     1.405   .     A
C93    C121    1.426   .     S
C93    C122    1.385   .     A
C94    C96     1.405   .     A
C94    C120    1.426   .     S
C95    C97     1.402   .     A
C95    N163    1.423   .     S
C96    N164    1.423   .     S
C96    C98     1.402   .     A
C97    C104    1.417   .     A
C97    C99     1.418   .     A
C98    C105    1.417   .     A
C98    C100    1.418   .     A
C99    C101    1.410   .     A
C99    C910    1.392   1_554 S
C100   C103    1.410   .     A
C100   C909    1.392   .     S
C101   C117    1.394   .     A
C101   C122    1.381   .     A
C102   C119    1.422   .     S
C102   O173    1.293   .     A
C102   O171    1.280   .     A
C103   C113    1.394   .     A
C104   O178    1.396   .     S
C104   C923    1.402   1_554 S
C105   O170    1.396   .     S
C105   C927    1.402   .     S
C106   H158    1.106   .     S
C106   N163    1.451   .     S
C106   H157    1.107   .     S
C106   H159    1.111   .     S
C107   H126    1.106   .     S
C107   N164    1.451   .     S
C107   H125    1.111   .     S
C107   H124    1.107   .     S
C108   C109    1.523   .     S
C108   H937    1.111   1_554 S
C108   H668    1.111   1_545 S
C108   O718    1.413   1_545 S
C109   H129    1.108   .     S
C109   H130    1.110   .     S
C109   H131    1.108   .     S
C110   C111    1.523   .     S
C110   H402    1.111   .     S
C110   H943    1.111   .     S
C110   O440    1.413   .     S
C111   H135    1.108   .     S
C111   H136    1.110   .     S
C111   H137    1.108   .     S
C112   H141    1.104   .     S
C112   H409    1.101   .     S
C112   H410    1.111   .     S
C112   N435    1.447   .     S
C113   H145    1.082   .     S
C113   C914    1.402   .     S
C114   H144    1.104   .     S
C114   H683    1.101   1_545 S
C114   H686    1.111   1_545 S
C114   N706    1.447   1_545 S
C115   N167    1.443   .     S
C115   H148    1.109   .     S
C115   H149    1.109   .     S
C116   N168    1.443   .     S
C116   H154    1.109   .     S
C116   H152    1.109   .     S
C116   H243    1.108   .     S
C117   H155    1.082   .     S
C117   C915    1.402   1_554 S
C118   C389    1.364   .     S
C118   N435    1.431   .     S
C119   C658    1.364   1_545 S
C119   N706    1.431   1_545 S
C120   O176    1.289   .     A
C120   O174    1.288   .     A
C121   O175    1.288   .     A
C121   O177    1.289   .     A
C122   H123    1.085   .     S
H127   C918    1.111   .     S
H128   C378    1.111   .     S
H132   C650    1.111   1_545 S
H133   C920    1.111   1_554 S
H138   N435    1.030   .     S
H139   C652    1.101   1_545 S
H140   C652    1.111   1_545 S
H142   N706    1.030   1_545 S
H143   C384    1.101   .     S
H146   C384    1.111   .     S
H147   N167    1.027   .     S
H150   C205    1.108   .     S
H151   N168    1.027   .     S
H156   N163    1.028   .     S
H160   N164    1.028   .     S
N161   Zn180   2.022   .     S
N161   N252    1.309   .     S
N161   N257    1.368   .     S
N162   Zn179   2.022   .     S
N165   C652    1.447   1_545 S
N165   C658    1.431   1_545 S
N165   H678    1.030   1_545 S
N166   H412    1.030   .     S
N166   C389    1.431   .     S
N166   C384    1.447   .     S
N168   N252    1.368   .     S
O169   Zn179   2.013   .     S
O170   C650    1.413   1_545 S
O171   Zn180   2.013   .     S
O172   Zn180   2.024   .     S
O173   Zn179   2.024   .     S
O174   Zn179   2.009   .     S
O175   Zn180   2.009   .     S
O176   Zn180   2.009   .     S
O177   Zn179   2.009   .     S
O178   C378    1.413   .     S
C181   C208    1.422   .     S
C181   O262    1.293   .     A
C181   O259    1.280   .     A
C182   C193    1.381   .     A
C182   H224    1.085   .     S
C182   C184    1.385   .     A
C183   C185    1.405   .     A
C183   C211    1.426   .     S
C183   C212    1.385   .     A
C184   C186    1.405   .     A
C184   C210    1.426   .     S
C185   C187    1.402   .     A
C185   N253    1.423   .     S
C186   N254    1.423   .     S
C186   C188    1.402   .     A
C187   C194    1.417   .     A
C187   C189    1.418   .     A
C188   C195    1.417   .     A
C188   C190    1.418   .     A
C189   C191    1.410   .     A
C189   C1000   1.392   1_554 S
C190   C193    1.410   .     A
C190   C999    1.392   .     S
C191   C207    1.394   .     A
C191   C212    1.381   .     A
C192   C209    1.422   .     S
C192   O263    1.293   .     A
C192   O261    1.280   .     A
C193   C203    1.394   .     A
C194   O268    1.396   .     S
C194   C1013   1.402   1_554 S
C195   O260    1.396   .     S
C195   C1017   1.402   .     S
C196   H248    1.106   .     S
C196   N253    1.451   .     S
C196   H247    1.107   .     S
C196   H249    1.111   .     S
C197   H216    1.106   .     S
C197   N254    1.451   .     S
C197   H215    1.111   .     S
C197   H214    1.107   .     S
C198   C199    1.523   .     S
C198   H1027   1.111   1_554 S
C198   H758    1.111   1_545 S
C198   O808    1.413   1_545 S
C199   H219    1.108   .     S
C199   H220    1.110   .     S
C199   H221    1.108   .     S
C200   C201    1.523   .     S
C200   H492    1.111   .     S
C200   H1033   1.111   .     S
C200   O530    1.413   .     S
C201   H225    1.108   .     S
C201   H226    1.110   .     S
C201   H227    1.108   .     S
C202   H231    1.104   .     S
C202   H499    1.101   .     S
C202   H500    1.111   .     S
C202   N525    1.447   .     S
C203   H235    1.082   .     S
C203   C1004   1.402   .     S
C204   H234    1.104   .     S
C204   H773    1.101   1_545 S
C204   H776    1.111   1_545 S
C204   N796    1.447   1_545 S
C205   N257    1.443   .     S
C205   H238    1.109   .     S
C205   H239    1.109   .     S
C206   N258    1.443   .     S
C206   H244    1.109   .     S
C206   H242    1.109   .     S
C206   H63     1.108   1_655 S
C207   H245    1.082   .     S
C207   C1005   1.402   1_554 S
C208   C479    1.364   .     S
C208   N525    1.431   .     S
C209   C748    1.364   1_545 S
C209   N796    1.431   1_545 S
C210   O266    1.289   .     A
C210   O264    1.288   .     A
C211   O265    1.288   .     A
C211   O267    1.289   .     A
C212   H213    1.085   .     S
H217   C1008   1.111   .     S
H218   C468    1.111   .     S
H222   C740    1.111   1_545 S
H223   C1010   1.111   1_554 S
H228   N525    1.030   .     S
H229   C742    1.101   1_545 S
H230   C742    1.111   1_545 S
H232   N796    1.030   1_545 S
H233   C474    1.101   .     S
H236   C474    1.111   .     S
H237   N257    1.027   .     S
H240   C25     1.108   1_655 S
H241   N258    1.027   .     S
H246   N253    1.028   .     S
H250   N254    1.028   .     S
N251   Zn270   2.022   .     S
N251   N72     1.309   1_655 S
N251   N77     1.368   1_655 S
N252   Zn269   2.022   .     S
N255   C742    1.447   1_545 S
N255   C748    1.431   1_545 S
N255   H768    1.030   1_545 S
N256   H502    1.030   .     S
N256   C479    1.431   .     S
N256   C474    1.447   .     S
N258   N72     1.368   1_655 S
O259   Zn269   2.013   .     S
O260   C740    1.413   1_545 S
O261   Zn270   2.013   .     S
O262   Zn270   2.024   .     S
O263   Zn269   2.024   .     S
O264   Zn269   2.009   .     S
O265   Zn270   2.009   .     S
O266   Zn270   2.009   .     S
O267   Zn269   2.009   .     S
O268   C468    1.413   .     S
C271   C298    1.422   .     S
C271   O352    1.293   .     A
C271   O349    1.280   .     A
C272   C283    1.381   .     A
C272   H314    1.085   .     S
C272   C274    1.385   .     A
C273   C275    1.405   .     A
C273   C301    1.426   .     S
C273   C302    1.385   .     A
C274   C276    1.405   .     A
C274   C300    1.426   .     S
C275   C277    1.402   .     A
C275   N343    1.423   .     S
C276   N344    1.423   .     S
C276   C278    1.402   .     A
C277   C284    1.417   .     A
C277   C279    1.418   .     A
C278   C285    1.417   .     A
C278   C280    1.418   .     A
C279   C281    1.410   .     A
C279   C1090   1.392   1_554 S
C280   C283    1.410   .     A
C280   C1089   1.392   .     S
C281   C297    1.394   .     A
C281   C302    1.381   .     A
C282   C299    1.422   .     S
C282   O353    1.293   .     A
C282   O351    1.280   .     A
C283   C293    1.394   .     A
C284   O358    1.396   .     S
C284   C1103   1.402   1_554 S
C285   O350    1.396   .     S
C285   C1107   1.402   .     S
C286   H338    1.106   .     S
C286   N343    1.451   .     S
C286   H337    1.107   .     S
C286   H339    1.111   .     S
C287   H306    1.106   .     S
C287   N344    1.451   .     S
C287   H305    1.111   .     S
C287   H304    1.107   .     S
C288   C289    1.523   .     S
C288   H1117   1.111   1_554 S
C289   H309    1.108   .     S
C289   H310    1.110   .     S
C289   H311    1.108   .     S
C290   C291    1.523   .     S
C290   H582    1.111   .     S
C290   H1123   1.111   .     S
C290   O620    1.413   .     S
C291   H315    1.108   .     S
C291   H316    1.110   .     S
C291   H317    1.108   .     S
C292   H321    1.104   .     S
C292   H589    1.101   .     S
C292   H590    1.111   .     S
C292   N615    1.447   .     S
C293   H325    1.082   .     S
C293   C1094   1.402   .     S
C294   H324    1.104   .     S
C295   N347    1.443   .     S
C295   H328    1.109   .     S
C295   H329    1.109   .     S
C295   H510    1.108   1_455 S
C296   N348    1.443   .     S
C296   H334    1.109   .     S
C296   H332    1.109   .     S
C296   H423    1.108   .     S
C297   H335    1.082   .     S
C297   C1095   1.402   1_554 S
C298   C569    1.364   .     S
C298   N615    1.431   .     S
C300   O356    1.289   .     A
C300   O354    1.288   .     A
C301   O355    1.288   .     A
C301   O357    1.289   .     A
C302   H303    1.085   .     S
H307   C1098   1.111   .     S
H308   C558    1.111   .     S
H313   C1100   1.111   1_554 S
H318   N615    1.030   .     S
H323   C564    1.101   .     S
H326   C564    1.111   .     S
H327   N347    1.027   .     S
H330   C385    1.108   .     S
H331   N348    1.027   .     S
H333   C476    1.108   1_455 S
H336   N343    1.028   .     S
H340   N344    1.028   .     S
N341   Zn360   2.022   .     S
N341   N432    1.309   .     S
N341   N437    1.368   .     S
N342   Zn359   2.022   .     S
N342   N521    1.309   1_455 S
N342   N528    1.368   1_455 S
N346   H592    1.030   .     S
N346   C569    1.431   .     S
N346   C564    1.447   .     S
N347   N521    1.368   1_455 S
N348   N432    1.368   .     S
O349   Zn359   2.013   .     S
O351   Zn360   2.013   .     S
O352   Zn360   2.024   .     S
O353   Zn359   2.024   .     S
O354   Zn359   2.009   .     S
O355   Zn360   2.009   .     S
O356   Zn360   2.009   .     S
O357   Zn359   2.009   .     S
O358   C558    1.413   .     S
C361   C388    1.422   .     S
C361   O442    1.293   .     A
C361   O439    1.280   .     A
C362   C373    1.381   .     A
C362   H404    1.085   .     S
C362   C364    1.385   .     A
C363   C365    1.405   .     A
C363   C391    1.426   .     S
C363   C392    1.385   .     A
C364   C366    1.405   .     A
C364   C390    1.426   .     S
C365   C367    1.402   .     A
C365   N433    1.423   .     S
C366   N434    1.423   .     S
C366   C368    1.402   .     A
C367   C374    1.417   .     A
C367   C369    1.418   .     A
C368   C375    1.417   .     A
C368   C370    1.418   .     A
C369   C371    1.410   .     A
C369   C1180   1.392   1_554 S
C370   C373    1.410   .     A
C370   C1179   1.392   .     S
C371   C387    1.394   .     A
C371   C392    1.381   .     A
C372   C389    1.422   .     S
C372   O443    1.293   .     A
C372   O441    1.280   .     A
C373   C383    1.394   .     A
C374   O448    1.396   .     S
C374   C1193   1.402   1_554 S
C375   O440    1.396   .     S
C375   C1197   1.402   .     S
C376   H428    1.106   .     S
C376   N433    1.451   .     S
C376   H427    1.107   .     S
C376   H429    1.111   .     S
C377   H396    1.106   .     S
C377   N434    1.451   .     S
C377   H395    1.111   .     S
C377   H394    1.107   .     S
C378   C379    1.523   .     S
C378   H1207   1.111   1_554 S
C379   H399    1.108   .     S
C379   H400    1.110   .     S
C379   H401    1.108   .     S
C380   C381    1.523   .     S
C380   H672    1.111   .     S
C380   H1213   1.111   .     S
C380   O710    1.413   .     S
C381   H405    1.108   .     S
C381   H406    1.110   .     S
C381   H407    1.108   .     S
C382   H411    1.104   .     S
C382   H679    1.101   .     S
C382   H680    1.111   .     S
C382   N705    1.447   .     S
C383   H415    1.082   .     S
C383   C1184   1.402   .     S
C384   H414    1.104   .     S
C385   N437    1.443   .     S
C385   H418    1.109   .     S
C385   H419    1.109   .     S
C386   N438    1.443   .     S
C386   H424    1.109   .     S
C386   H422    1.109   .     S
C386   H513    1.108   .     S
C387   H425    1.082   .     S
C387   C1185   1.402   1_554 S
C388   C659    1.364   .     S
C388   N705    1.431   .     S
C390   O446    1.289   .     A
C390   O444    1.288   .     A
C391   O445    1.288   .     A
C391   O447    1.289   .     A
C392   H393    1.085   .     S
H397   C1188   1.111   .     S
H398   C648    1.111   .     S
H403   C1190   1.111   1_554 S
H408   N705    1.030   .     S
H413   C654    1.101   .     S
H416   C654    1.111   .     S
H417   N437    1.027   .     S
H420   C475    1.108   .     S
H421   N438    1.027   .     S
H426   N433    1.028   .     S
H430   N434    1.028   .     S
N431   Zn450   2.022   .     S
N431   N522    1.309   .     S
N431   N527    1.368   .     S
N432   Zn449   2.022   .     S
N436   H682    1.030   .     S
N436   C659    1.431   .     S
N436   C654    1.447   .     S
N438   N522    1.368   .     S
O439   Zn449   2.013   .     S
O441   Zn450   2.013   .     S
O442   Zn450   2.024   .     S
O443   Zn449   2.024   .     S
O444   Zn449   2.009   .     S
O445   Zn450   2.009   .     S
O446   Zn450   2.009   .     S
O447   Zn449   2.009   .     S
O448   C648    1.413   .     S
C451   C478    1.422   .     S
C451   O532    1.293   .     A
C451   O529    1.280   .     A
C452   C463    1.381   .     A
C452   H494    1.085   .     S
C452   C454    1.385   .     A
C453   C455    1.405   .     A
C453   C481    1.426   .     S
C453   C482    1.385   .     A
C454   C456    1.405   .     A
C454   C480    1.426   .     S
C455   C457    1.402   .     A
C455   N523    1.423   .     S
C456   N524    1.423   .     S
C456   C458    1.402   .     A
C457   C464    1.417   .     A
C457   C459    1.418   .     A
C458   C465    1.417   .     A
C458   C460    1.418   .     A
C459   C461    1.410   .     A
C459   C1270   1.392   1_554 S
C460   C463    1.410   .     A
C460   C1269   1.392   .     S
C461   C477    1.394   .     A
C461   C482    1.381   .     A
C462   C479    1.422   .     S
C462   O533    1.293   .     A
C462   O531    1.280   .     A
C463   C473    1.394   .     A
C464   O538    1.396   .     S
C464   C1283   1.402   1_554 S
C465   O530    1.396   .     S
C465   C1287   1.402   .     S
C466   H518    1.106   .     S
C466   N523    1.451   .     S
C466   H517    1.107   .     S
C466   H519    1.111   .     S
C467   H486    1.106   .     S
C467   N524    1.451   .     S
C467   H485    1.111   .     S
C467   H484    1.107   .     S
C468   C469    1.523   .     S
C468   H1297   1.111   1_554 S
C469   H489    1.108   .     S
C469   H490    1.110   .     S
C469   H491    1.108   .     S
C470   C471    1.523   .     S
C470   H762    1.111   .     S
C470   H1303   1.111   .     S
C470   O800    1.413   .     S
C471   H495    1.108   .     S
C471   H496    1.110   .     S
C471   H497    1.108   .     S
C472   H501    1.104   .     S
C472   H769    1.101   .     S
C472   H770    1.111   .     S
C472   N795    1.447   .     S
C473   H505    1.082   .     S
C473   C1274   1.402   .     S
C474   H504    1.104   .     S
C475   N527    1.443   .     S
C475   H508    1.109   .     S
C475   H509    1.109   .     S
C476   N528    1.443   .     S
C476   H514    1.109   .     S
C476   H512    1.109   .     S
C476   H333    1.108   1_655 S
C477   H515    1.082   .     S
C477   C1275   1.402   1_554 S
C478   C749    1.364   .     S
C478   N795    1.431   .     S
C480   O536    1.289   .     A
C480   O534    1.288   .     A
C481   O535    1.288   .     A
C481   O537    1.289   .     A
C482   H483    1.085   .     S
H487   C1278   1.111   .     S
H488   C738    1.111   .     S
H493   C1280   1.111   1_554 S
H498   N795    1.030   .     S
H503   C744    1.101   .     S
H506   C744    1.111   .     S
H507   N527    1.027   .     S
H510   C295    1.108   1_655 S
H511   N528    1.027   .     S
H516   N523    1.028   .     S
H520   N524    1.028   .     S
N521   Zn540   2.022   .     S
N521   N342    1.309   1_655 S
N521   N347    1.368   1_655 S
N522   Zn539   2.022   .     S
N526   H772    1.030   .     S
N526   C749    1.431   .     S
N526   C744    1.447   .     S
N528   N342    1.368   1_655 S
O529   Zn539   2.013   .     S
O531   Zn540   2.013   .     S
O532   Zn540   2.024   .     S
O533   Zn539   2.024   .     S
O534   Zn539   2.009   .     S
O535   Zn540   2.009   .     S
O536   Zn540   2.009   .     S
O537   Zn539   2.009   .     S
O538   C738    1.413   .     S
C541   C568    1.422   .     S
C541   O622    1.293   .     A
C541   O619    1.280   .     A
C542   C553    1.381   .     A
C542   H584    1.085   .     S
C542   C544    1.385   .     A
C543   C545    1.405   .     A
C543   C571    1.426   .     S
C543   C572    1.385   .     A
C544   C546    1.405   .     A
C544   C570    1.426   .     S
C545   C547    1.402   .     A
C545   N613    1.423   .     S
C546   N614    1.423   .     S
C546   C548    1.402   .     A
C547   C554    1.417   .     A
C547   C549    1.418   .     A
C548   C555    1.417   .     A
C548   C550    1.418   .     A
C549   C551    1.410   .     A
C549   C1360   1.392   1_554 S
C550   C553    1.410   .     A
C550   C1359   1.392   .     S
C551   C567    1.394   .     A
C551   C572    1.381   .     A
C552   C569    1.422   .     S
C552   O623    1.293   .     A
C552   O621    1.280   .     A
C553   C563    1.394   .     A
C554   O628    1.396   .     S
C554   C1373   1.402   1_554 S
C555   O620    1.396   .     S
C555   C1377   1.402   .     S
C556   H608    1.106   .     S
C556   N613    1.451   .     S
C556   H607    1.107   .     S
C556   H609    1.111   .     S
C557   H576    1.106   .     S
C557   N614    1.451   .     S
C557   H575    1.111   .     S
C557   H574    1.107   .     S
C558   C559    1.523   .     S
C558   H1387   1.111   1_554 S
C559   H579    1.108   .     S
C559   H580    1.110   .     S
C559   H581    1.108   .     S
C560   C561    1.523   .     S
C560   H42     1.111   1_565 S
C560   H1393   1.111   .     S
C560   O80     1.413   1_565 S
C561   H585    1.108   .     S
C561   H586    1.110   .     S
C561   H587    1.108   .     S
C562   H591    1.104   .     S
C562   H49     1.101   1_565 S
C562   H50     1.111   1_565 S
C562   N75     1.447   1_565 S
C563   H595    1.082   .     S
C563   C1364   1.402   .     S
C564   H594    1.104   .     S
C565   N617    1.443   .     S
C565   H598    1.109   .     S
C565   H599    1.109   .     S
C565   H780    1.108   1_455 S
C566   N618    1.443   .     S
C566   H604    1.109   .     S
C566   H602    1.109   .     S
C566   H693    1.108   .     S
C567   H605    1.082   .     S
C567   C1365   1.402   1_554 S
C568   C29     1.364   1_565 S
C568   N75     1.431   1_565 S
C570   O626    1.289   .     A
C570   O624    1.288   .     A
C571   O625    1.288   .     A
C571   O627    1.289   .     A
C572   H573    1.085   .     S
H577   C1368   1.111   .     S
H578   C18     1.111   1_565 S
H583   C1370   1.111   1_554 S
H588   N75     1.030   1_565 S
H593   C24     1.101   1_565 S
H596   C24     1.111   1_565 S
H597   N617    1.027   .     S
H600   C655    1.108   .     S
H601   N618    1.027   .     S
H603   C746    1.108   1_455 S
H606   N613    1.028   .     S
H610   N614    1.028   .     S
N611   Zn630   2.022   .     S
N611   N702    1.309   .     S
N611   N707    1.368   .     S
N612   Zn629   2.022   .     S
N612   N791    1.309   1_455 S
N612   N798    1.368   1_455 S
N616   H52     1.030   1_565 S
N616   C29     1.431   1_565 S
N616   C24     1.447   1_565 S
N617   N791    1.368   1_455 S
N618   N702    1.368   .     S
O619   Zn629   2.013   .     S
O621   Zn630   2.013   .     S
O622   Zn630   2.024   .     S
O623   Zn629   2.024   .     S
O624   Zn629   2.009   .     S
O625   Zn630   2.009   .     S
O626   Zn630   2.009   .     S
O627   Zn629   2.009   .     S
O628   C18     1.413   1_565 S
C631   C658    1.422   .     S
C631   O712    1.293   .     A
C631   O709    1.280   .     A
C632   C643    1.381   .     A
C632   H674    1.085   .     S
C632   C634    1.385   .     A
C633   C635    1.405   .     A
C633   C661    1.426   .     S
C633   C662    1.385   .     A
C634   C636    1.405   .     A
C634   C660    1.426   .     S
C635   C637    1.402   .     A
C635   N703    1.423   .     S
C636   N704    1.423   .     S
C636   C638    1.402   .     A
C637   C644    1.417   .     A
C637   C639    1.418   .     A
C638   C645    1.417   .     A
C638   C640    1.418   .     A
C639   C641    1.410   .     A
C639   C1450   1.392   1_554 S
C640   C643    1.410   .     A
C640   C1449   1.392   .     S
C641   C657    1.394   .     A
C641   C662    1.381   .     A
C642   C659    1.422   .     S
C642   O713    1.293   .     A
C642   O711    1.280   .     A
C643   C653    1.394   .     A
C644   O718    1.396   .     S
C644   C1463   1.402   1_554 S
C645   O710    1.396   .     S
C645   C1467   1.402   .     S
C646   H698    1.106   .     S
C646   N703    1.451   .     S
C646   H697    1.107   .     S
C646   H699    1.111   .     S
C647   H666    1.106   .     S
C647   N704    1.451   .     S
C647   H665    1.111   .     S
C647   H664    1.107   .     S
C648   C649    1.523   .     S
C648   H1477   1.111   1_554 S
C649   H669    1.108   .     S
C649   H670    1.110   .     S
C649   H671    1.108   .     S
C650   C651    1.523   .     S
C650   H132    1.111   1_565 S
C650   H1483   1.111   .     S
C650   O170    1.413   1_565 S
C651   H675    1.108   .     S
C651   H676    1.110   .     S
C651   H677    1.108   .     S
C652   H681    1.104   .     S
C652   H139    1.101   1_565 S
C652   H140    1.111   1_565 S
C652   N165    1.447   1_565 S
C653   H685    1.082   .     S
C653   C1454   1.402   .     S
C654   H684    1.104   .     S
C655   N707    1.443   .     S
C655   H688    1.109   .     S
C655   H689    1.109   .     S
C656   N708    1.443   .     S
C656   H694    1.109   .     S
C656   H692    1.109   .     S
C656   H783    1.108   .     S
C657   H695    1.082   .     S
C657   C1455   1.402   1_554 S
C658   C119    1.364   1_565 S
C658   N165    1.431   1_565 S
C660   O716    1.289   .     A
C660   O714    1.288   .     A
C661   O715    1.288   .     A
C661   O717    1.289   .     A
C662   H663    1.085   .     S
H667   C1458   1.111   .     S
H668   C108    1.111   1_565 S
H673   C1460   1.111   1_554 S
H678   N165    1.030   1_565 S
H683   C114    1.101   1_565 S
H686   C114    1.111   1_565 S
H687   N707    1.027   .     S
H690   C745    1.108   .     S
H691   N708    1.027   .     S
H696   N703    1.028   .     S
H700   N704    1.028   .     S
N701   Zn720   2.022   .     S
N701   N792    1.309   .     S
N701   N797    1.368   .     S
N702   Zn719   2.022   .     S
N706   H142    1.030   1_565 S
N706   C119    1.431   1_565 S
N706   C114    1.447   1_565 S
N708   N792    1.368   .     S
O709   Zn719   2.013   .     S
O711   Zn720   2.013   .     S
O712   Zn720   2.024   .     S
O713   Zn719   2.024   .     S
O714   Zn719   2.009   .     S
O715   Zn720   2.009   .     S
O716   Zn720   2.009   .     S
O717   Zn719   2.009   .     S
O718   C108    1.413   1_565 S
C721   C748    1.422   .     S
C721   O802    1.293   .     A
C721   O799    1.280   .     A
C722   C733    1.381   .     A
C722   H764    1.085   .     S
C722   C724    1.385   .     A
C723   C725    1.405   .     A
C723   C751    1.426   .     S
C723   C752    1.385   .     A
C724   C726    1.405   .     A
C724   C750    1.426   .     S
C725   C727    1.402   .     A
C725   N793    1.423   .     S
C726   N794    1.423   .     S
C726   C728    1.402   .     A
C727   C734    1.417   .     A
C727   C729    1.418   .     A
C728   C735    1.417   .     A
C728   C730    1.418   .     A
C729   C731    1.410   .     A
C729   C1540   1.392   1_554 S
C730   C733    1.410   .     A
C730   C1539   1.392   .     S
C731   C747    1.394   .     A
C731   C752    1.381   .     A
C732   C749    1.422   .     S
C732   O803    1.293   .     A
C732   O801    1.280   .     A
C733   C743    1.394   .     A
C734   O808    1.396   .     S
C734   C1553   1.402   1_554 S
C735   O800    1.396   .     S
C735   C1557   1.402   .     S
C736   H788    1.106   .     S
C736   N793    1.451   .     S
C736   H787    1.107   .     S
C736   H789    1.111   .     S
C737   H756    1.106   .     S
C737   N794    1.451   .     S
C737   H755    1.111   .     S
C737   H754    1.107   .     S
C738   C739    1.523   .     S
C738   H1567   1.111   1_554 S
C739   H759    1.108   .     S
C739   H760    1.110   .     S
C739   H761    1.108   .     S
C740   C741    1.523   .     S
C740   H222    1.111   1_565 S
C740   H1573   1.111   .     S
C740   O260    1.413   1_565 S
C741   H765    1.108   .     S
C741   H766    1.110   .     S
C741   H767    1.108   .     S
C742   H771    1.104   .     S
C742   H229    1.101   1_565 S
C742   H230    1.111   1_565 S
C742   N255    1.447   1_565 S
C743   H775    1.082   .     S
C743   C1544   1.402   .     S
C744   H774    1.104   .     S
C745   N797    1.443   .     S
C745   H778    1.109   .     S
C745   H779    1.109   .     S
C746   N798    1.443   .     S
C746   H784    1.109   .     S
C746   H782    1.109   .     S
C746   H603    1.108   1_655 S
C747   H785    1.082   .     S
C747   C1545   1.402   1_554 S
C748   C209    1.364   1_565 S
C748   N255    1.431   1_565 S
C750   O806    1.289   .     A
C750   O804    1.288   .     A
C751   O805    1.288   .     A
C751   O807    1.289   .     A
C752   H753    1.085   .     S
H757   C1548   1.111   .     S
H758   C198    1.111   1_565 S
H763   C1550   1.111   1_554 S
H768   N255    1.030   1_565 S
H773   C204    1.101   1_565 S
H776   C204    1.111   1_565 S
H777   N797    1.027   .     S
H780   C565    1.108   1_655 S
H781   N798    1.027   .     S
H786   N793    1.028   .     S
H790   N794    1.028   .     S
N791   Zn810   2.022   .     S
N791   N612    1.309   1_655 S
N791   N617    1.368   1_655 S
N792   Zn809   2.022   .     S
N796   H232    1.030   1_565 S
N796   C209    1.431   1_565 S
N796   C204    1.447   1_565 S
N798   N612    1.368   1_655 S
O799   Zn809   2.013   .     S
O801   Zn810   2.013   .     S
O802   Zn810   2.024   .     S
O803   Zn809   2.024   .     S
O804   Zn809   2.009   .     S
O805   Zn810   2.009   .     S
O806   Zn810   2.009   .     S
O807   Zn809   2.009   .     S
O808   C198    1.413   1_565 S
C811   C838    1.422   .     S
C811   O892    1.293   .     A
C811   O889    1.280   .     A
C812   C823    1.381   .     A
C812   H854    1.085   .     S
C812   C814    1.385   .     A
C813   C815    1.405   .     A
C813   C841    1.426   .     S
C813   C842    1.385   .     A
C814   C816    1.405   .     A
C814   C840    1.426   .     S
C815   C817    1.402   .     A
C815   N883    1.423   .     S
C816   N884    1.423   .     S
C816   C818    1.402   .     A
C817   C824    1.417   .     A
C817   C819    1.418   .     A
C818   C825    1.417   .     A
C818   C820    1.418   .     A
C819   C821    1.410   .     A
C820   C823    1.410   .     A
C820   C9      1.392   1_556 S
C821   C837    1.394   .     A
C821   C842    1.381   .     A
C822   C839    1.422   .     S
C822   O893    1.293   .     A
C822   O891    1.280   .     A
C823   C833    1.394   .     A
C824   O898    1.396   .     S
C825   O890    1.396   .     S
C825   C27     1.402   1_556 S
C826   H878    1.106   .     S
C826   N883    1.451   .     S
C826   H877    1.107   .     S
C826   H879    1.111   .     S
C827   H846    1.106   .     S
C827   N884    1.451   .     S
C827   H845    1.111   .     S
C827   H844    1.107   .     S
C828   C829    1.523   .     S
C828   H1388   1.111   1_545 S
C828   O1438   1.413   1_545 S
C829   H849    1.108   .     S
C829   H850    1.110   .     S
C829   H851    1.108   .     S
C830   C831    1.523   .     S
C830   H1122   1.111   .     S
C830   H43     1.111   1_556 S
C830   O1160   1.413   .     S
C831   H855    1.108   .     S
C831   H856    1.110   .     S
C831   H857    1.108   .     S
C832   H861    1.104   .     S
C832   H1129   1.101   .     S
C832   H1130   1.111   .     S
C832   N1155   1.447   .     S
C833   H865    1.082   .     S
C833   C14     1.402   1_556 S
C834   H864    1.104   .     S
C834   H1403   1.101   1_545 S
C834   H1406   1.111   1_545 S
C834   N1426   1.447   1_545 S
C835   N887    1.443   .     S
C835   H868    1.109   .     S
C835   H869    1.109   .     S
C835   H1050   1.108   1_455 S
C836   N888    1.443   .     S
C836   H874    1.109   .     S
C836   H872    1.109   .     S
C836   H963    1.108   .     S
C837   H875    1.082   .     S
C838   C1109   1.364   .     S
C838   N1155   1.431   .     S
C839   C1378   1.364   1_545 S
C839   N1426   1.431   1_545 S
C840   O896    1.289   .     A
C840   O894    1.288   .     A
C841   O895    1.288   .     A
C841   O897    1.289   .     A
C842   H843    1.085   .     S
H847   C18     1.111   1_556 S
H848   C1098   1.111   .     S
H852   C1370   1.111   1_545 S
H858   N1155   1.030   .     S
H859   C1372   1.101   1_545 S
H860   C1372   1.111   1_545 S
H862   N1426   1.030   1_545 S
H863   C1104   1.101   .     S
H866   C1104   1.111   .     S
H867   N887    1.027   .     S
H870   C925    1.108   .     S
H871   N888    1.027   .     S
H873   C1016   1.108   1_455 S
H876   N883    1.028   .     S
H880   N884    1.028   .     S
N881   Zn900   2.022   .     S
N881   N972    1.309   .     S
N881   N977    1.368   .     S
N882   Zn899   2.022   .     S
N882   N1061   1.309   1_455 S
N882   N1068   1.368   1_455 S
N885   C1372   1.447   1_545 S
N885   C1378   1.431   1_545 S
N885   H1398   1.030   1_545 S
N886   H1132   1.030   .     S
N886   C1109   1.431   .     S
N886   C1104   1.447   .     S
N887   N1061   1.368   1_455 S
N888   N972    1.368   .     S
O889   Zn899   2.013   .     S
O890   C1370   1.413   1_545 S
O891   Zn900   2.013   .     S
O892   Zn900   2.024   .     S
O893   Zn899   2.024   .     S
O894   Zn899   2.009   .     S
O895   Zn900   2.009   .     S
O896   Zn900   2.009   .     S
O897   Zn899   2.009   .     S
O898   C1098   1.413   .     S
C901   C928    1.422   .     S
C901   O982    1.293   .     A
C901   O979    1.280   .     A
C902   C913    1.381   .     A
C902   H944    1.085   .     S
C902   C904    1.385   .     A
C903   C905    1.405   .     A
C903   C931    1.426   .     S
C903   C932    1.385   .     A
C904   C906    1.405   .     A
C904   C930    1.426   .     S
C905   C907    1.402   .     A
C905   N973    1.423   .     S
C906   N974    1.423   .     S
C906   C908    1.402   .     A
C907   C914    1.417   .     A
C907   C909    1.418   .     A
C908   C915    1.417   .     A
C908   C910    1.418   .     A
C909   C911    1.410   .     A
C910   C913    1.410   .     A
C910   C99     1.392   1_556 S
C911   C927    1.394   .     A
C911   C932    1.381   .     A
C912   C929    1.422   .     S
C912   O983    1.293   .     A
C912   O981    1.280   .     A
C913   C923    1.394   .     A
C914   O988    1.396   .     S
C915   O980    1.396   .     S
C915   C117    1.402   1_556 S
C916   H968    1.106   .     S
C916   N973    1.451   .     S
C916   H967    1.107   .     S
C916   H969    1.111   .     S
C917   H936    1.106   .     S
C917   N974    1.451   .     S
C917   H935    1.111   .     S
C917   H934    1.107   .     S
C918   C919    1.523   .     S
C918   H1478   1.111   1_545 S
C918   O1528   1.413   1_545 S
C919   H939    1.108   .     S
C919   H940    1.110   .     S
C919   H941    1.108   .     S
C920   C921    1.523   .     S
C920   H1212   1.111   .     S
C920   H133    1.111   1_556 S
C920   O1250   1.413   .     S
C921   H945    1.108   .     S
C921   H946    1.110   .     S
C921   H947    1.108   .     S
C922   H951    1.104   .     S
C922   H1219   1.101   .     S
C922   H1220   1.111   .     S
C922   N1245   1.447   .     S
C923   H955    1.082   .     S
C923   C104    1.402   1_556 S
C924   H954    1.104   .     S
C924   H1493   1.101   1_545 S
C924   H1496   1.111   1_545 S
C924   N1516   1.447   1_545 S
C925   N977    1.443   .     S
C925   H958    1.109   .     S
C925   H959    1.109   .     S
C926   N978    1.443   .     S
C926   H964    1.109   .     S
C926   H962    1.109   .     S
C926   H1053   1.108   .     S
C927   H965    1.082   .     S
C928   C1199   1.364   .     S
C928   N1245   1.431   .     S
C929   C1468   1.364   1_545 S
C929   N1516   1.431   1_545 S
C930   O986    1.289   .     A
C930   O984    1.288   .     A
C931   O985    1.288   .     A
C931   O987    1.289   .     A
C932   H933    1.085   .     S
H937   C108    1.111   1_556 S
H938   C1188   1.111   .     S
H942   C1460   1.111   1_545 S
H948   N1245   1.030   .     S
H949   C1462   1.101   1_545 S
H950   C1462   1.111   1_545 S
H952   N1516   1.030   1_545 S
H953   C1194   1.101   .     S
H956   C1194   1.111   .     S
H957   N977    1.027   .     S
H960   C1015   1.108   .     S
H961   N978    1.027   .     S
H966   N973    1.028   .     S
H970   N974    1.028   .     S
N971   Zn990   2.022   .     S
N971   N1062   1.309   .     S
N971   N1067   1.368   .     S
N972   Zn989   2.022   .     S
N975   C1462   1.447   1_545 S
N975   C1468   1.431   1_545 S
N975   H1488   1.030   1_545 S
N976   H1222   1.030   .     S
N976   C1199   1.431   .     S
N976   C1194   1.447   .     S
N978   N1062   1.368   .     S
O979   Zn989   2.013   .     S
O980   C1460   1.413   1_545 S
O981   Zn990   2.013   .     S
O982   Zn990   2.024   .     S
O983   Zn989   2.024   .     S
O984   Zn989   2.009   .     S
O985   Zn990   2.009   .     S
O986   Zn990   2.009   .     S
O987   Zn989   2.009   .     S
O988   C1188   1.413   .     S
C991   C1018   1.422   .     S
C991   O1072   1.293   .     A
C991   O1069   1.280   .     A
C992   C1003   1.381   .     A
C992   H1034   1.085   .     S
C992   C994    1.385   .     A
C993   C995    1.405   .     A
C993   C1021   1.426   .     S
C993   C1022   1.385   .     A
C994   C996    1.405   .     A
C994   C1020   1.426   .     S
C995   C997    1.402   .     A
C995   N1063   1.423   .     S
C996   N1064   1.423   .     S
C996   C998    1.402   .     A
C997   C1004   1.417   .     A
C997   C999    1.418   .     A
C998   C1005   1.417   .     A
C998   C1000   1.418   .     A
C999   C1001   1.410   .     A
C1000  C1003   1.410   .     A
C1000  C189    1.392   1_556 S
C1001  C1017   1.394   .     A
C1001  C1022   1.381   .     A
C1002  C1019   1.422   .     S
C1002  O1073   1.293   .     A
C1002  O1071   1.280   .     A
C1003  C1013   1.394   .     A
C1004  O1078   1.396   .     S
C1005  O1070   1.396   .     S
C1005  C207    1.402   1_556 S
C1006  H1058   1.106   .     S
C1006  N1063   1.451   .     S
C1006  H1057   1.107   .     S
C1006  H1059   1.111   .     S
C1007  H1026   1.106   .     S
C1007  N1064   1.451   .     S
C1007  H1025   1.111   .     S
C1007  H1024   1.107   .     S
C1008  C1009   1.523   .     S
C1008  H1568   1.111   1_545 S
C1008  O1618   1.413   1_545 S
C1009  H1029   1.108   .     S
C1009  H1030   1.110   .     S
C1009  H1031   1.108   .     S
C1010  C1011   1.523   .     S
C1010  H1302   1.111   .     S
C1010  H223    1.111   1_556 S
C1010  O1340   1.413   .     S
C1011  H1035   1.108   .     S
C1011  H1036   1.110   .     S
C1011  H1037   1.108   .     S
C1012  H1041   1.104   .     S
C1012  H1309   1.101   .     S
C1012  H1310   1.111   .     S
C1012  N1335   1.447   .     S
C1013  H1045   1.082   .     S
C1013  C194    1.402   1_556 S
C1014  H1044   1.104   .     S
C1014  H1583   1.101   1_545 S
C1014  H1586   1.111   1_545 S
C1014  N1606   1.447   1_545 S
C1015  N1067   1.443   .     S
C1015  H1048   1.109   .     S
C1015  H1049   1.109   .     S
C1016  N1068   1.443   .     S
C1016  H1054   1.109   .     S
C1016  H1052   1.109   .     S
C1016  H873    1.108   1_655 S
C1017  H1055   1.082   .     S
C1018  C1289   1.364   .     S
C1018  N1335   1.431   .     S
C1019  C1558   1.364   1_545 S
C1019  N1606   1.431   1_545 S
C1020  O1076   1.289   .     A
C1020  O1074   1.288   .     A
C1021  O1075   1.288   .     A
C1021  O1077   1.289   .     A
C1022  H1023   1.085   .     S
H1027  C198    1.111   1_556 S
H1028  C1278   1.111   .     S
H1032  C1550   1.111   1_545 S
H1038  N1335   1.030   .     S
H1039  C1552   1.101   1_545 S
H1040  C1552   1.111   1_545 S
H1042  N1606   1.030   1_545 S
H1043  C1284   1.101   .     S
H1046  C1284   1.111   .     S
H1047  N1067   1.027   .     S
H1050  C835    1.108   1_655 S
H1051  N1068   1.027   .     S
H1056  N1063   1.028   .     S
H1060  N1064   1.028   .     S
N1061  Zn1080  2.022   .     S
N1061  N882    1.309   1_655 S
N1061  N887    1.368   1_655 S
N1062  Zn1079  2.022   .     S
N1065  C1552   1.447   1_545 S
N1065  C1558   1.431   1_545 S
N1065  H1578   1.030   1_545 S
N1066  H1312   1.030   .     S
N1066  C1289   1.431   .     S
N1066  C1284   1.447   .     S
N1068  N882    1.368   1_655 S
O1069  Zn1079  2.013   .     S
O1070  C1550   1.413   1_545 S
O1071  Zn1080  2.013   .     S
O1072  Zn1080  2.024   .     S
O1073  Zn1079  2.024   .     S
O1074  Zn1079  2.009   .     S
O1075  Zn1080  2.009   .     S
O1076  Zn1080  2.009   .     S
O1077  Zn1079  2.009   .     S
O1078  C1278   1.413   .     S
C1081  C1108   1.422   .     S
C1081  O1162   1.293   .     A
C1081  O1159   1.280   .     A
C1082  C1093   1.381   .     A
C1082  H1124   1.085   .     S
C1082  C1084   1.385   .     A
C1083  C1085   1.405   .     A
C1083  C1111   1.426   .     S
C1083  C1112   1.385   .     A
C1084  C1086   1.405   .     A
C1084  C1110   1.426   .     S
C1085  C1087   1.402   .     A
C1085  N1153   1.423   .     S
C1086  N1154   1.423   .     S
C1086  C1088   1.402   .     A
C1087  C1094   1.417   .     A
C1087  C1089   1.418   .     A
C1088  C1095   1.417   .     A
C1088  C1090   1.418   .     A
C1089  C1091   1.410   .     A
C1090  C1093   1.410   .     A
C1090  C279    1.392   1_556 S
C1091  C1107   1.394   .     A
C1091  C1112   1.381   .     A
C1092  C1109   1.422   .     S
C1092  O1163   1.293   .     A
C1092  O1161   1.280   .     A
C1093  C1103   1.394   .     A
C1094  O1168   1.396   .     S
C1095  O1160   1.396   .     S
C1095  C297    1.402   1_556 S
C1096  H1148   1.106   .     S
C1096  N1153   1.451   .     S
C1096  H1147   1.107   .     S
C1096  H1149   1.111   .     S
C1097  H1116   1.106   .     S
C1097  N1154   1.451   .     S
C1097  H1115   1.111   .     S
C1097  H1114   1.107   .     S
C1098  C1099   1.523   .     S
C1099  H1119   1.108   .     S
C1099  H1120   1.110   .     S
C1099  H1121   1.108   .     S
C1100  C1101   1.523   .     S
C1100  H1392   1.111   .     S
C1100  H313    1.111   1_556 S
C1100  O1430   1.413   .     S
C1101  H1125   1.108   .     S
C1101  H1126   1.110   .     S
C1101  H1127   1.108   .     S
C1102  H1131   1.104   .     S
C1102  H1399   1.101   .     S
C1102  H1400   1.111   .     S
C1102  N1425   1.447   .     S
C1103  H1135   1.082   .     S
C1103  C284    1.402   1_556 S
C1104  H1134   1.104   .     S
C1105  N1157   1.443   .     S
C1105  H1138   1.109   .     S
C1105  H1139   1.109   .     S
C1105  H1320   1.108   1_455 S
C1106  N1158   1.443   .     S
C1106  H1144   1.109   .     S
C1106  H1142   1.109   .     S
C1106  H1233   1.108   .     S
C1107  H1145   1.082   .     S
C1108  C1379   1.364   .     S
C1108  N1425   1.431   .     S
C1110  O1166   1.289   .     A
C1110  O1164   1.288   .     A
C1111  O1165   1.288   .     A
C1111  O1167   1.289   .     A
C1112  H1113   1.085   .     S
H1117  C288    1.111   1_556 S
H1118  C1368   1.111   .     S
H1128  N1425   1.030   .     S
H1133  C1374   1.101   .     S
H1136  C1374   1.111   .     S
H1137  N1157   1.027   .     S
H1140  C1195   1.108   .     S
H1141  N1158   1.027   .     S
H1143  C1286   1.108   1_455 S
H1146  N1153   1.028   .     S
H1150  N1154   1.028   .     S
N1151  Zn1170  2.022   .     S
N1151  N1242   1.309   .     S
N1151  N1247   1.368   .     S
N1152  Zn1169  2.022   .     S
N1152  N1331   1.309   1_455 S
N1152  N1338   1.368   1_455 S
N1156  H1402   1.030   .     S
N1156  C1379   1.431   .     S
N1156  C1374   1.447   .     S
N1157  N1331   1.368   1_455 S
N1158  N1242   1.368   .     S
O1159  Zn1169  2.013   .     S
O1161  Zn1170  2.013   .     S
O1162  Zn1170  2.024   .     S
O1163  Zn1169  2.024   .     S
O1164  Zn1169  2.009   .     S
O1165  Zn1170  2.009   .     S
O1166  Zn1170  2.009   .     S
O1167  Zn1169  2.009   .     S
O1168  C1368   1.413   .     S
C1171  C1198   1.422   .     S
C1171  O1252   1.293   .     A
C1171  O1249   1.280   .     A
C1172  C1183   1.381   .     A
C1172  H1214   1.085   .     S
C1172  C1174   1.385   .     A
C1173  C1175   1.405   .     A
C1173  C1201   1.426   .     S
C1173  C1202   1.385   .     A
C1174  C1176   1.405   .     A
C1174  C1200   1.426   .     S
C1175  C1177   1.402   .     A
C1175  N1243   1.423   .     S
C1176  N1244   1.423   .     S
C1176  C1178   1.402   .     A
C1177  C1184   1.417   .     A
C1177  C1179   1.418   .     A
C1178  C1185   1.417   .     A
C1178  C1180   1.418   .     A
C1179  C1181   1.410   .     A
C1180  C1183   1.410   .     A
C1180  C369    1.392   1_556 S
C1181  C1197   1.394   .     A
C1181  C1202   1.381   .     A
C1182  C1199   1.422   .     S
C1182  O1253   1.293   .     A
C1182  O1251   1.280   .     A
C1183  C1193   1.394   .     A
C1184  O1258   1.396   .     S
C1185  O1250   1.396   .     S
C1185  C387    1.402   1_556 S
C1186  H1238   1.106   .     S
C1186  N1243   1.451   .     S
C1186  H1237   1.107   .     S
C1186  H1239   1.111   .     S
C1187  H1206   1.106   .     S
C1187  N1244   1.451   .     S
C1187  H1205   1.111   .     S
C1187  H1204   1.107   .     S
C1188  C1189   1.523   .     S
C1189  H1209   1.108   .     S
C1189  H1210   1.110   .     S
C1189  H1211   1.108   .     S
C1190  C1191   1.523   .     S
C1190  H1482   1.111   .     S
C1190  H403    1.111   1_556 S
C1190  O1520   1.413   .     S
C1191  H1215   1.108   .     S
C1191  H1216   1.110   .     S
C1191  H1217   1.108   .     S
C1192  H1221   1.104   .     S
C1192  H1489   1.101   .     S
C1192  H1490   1.111   .     S
C1192  N1515   1.447   .     S
C1193  H1225   1.082   .     S
C1193  C374    1.402   1_556 S
C1194  H1224   1.104   .     S
C1195  N1247   1.443   .     S
C1195  H1228   1.109   .     S
C1195  H1229   1.109   .     S
C1196  N1248   1.443   .     S
C1196  H1234   1.109   .     S
C1196  H1232   1.109   .     S
C1196  H1323   1.108   .     S
C1197  H1235   1.082   .     S
C1198  C1469   1.364   .     S
C1198  N1515   1.431   .     S
C1200  O1256   1.289   .     A
C1200  O1254   1.288   .     A
C1201  O1255   1.288   .     A
C1201  O1257   1.289   .     A
C1202  H1203   1.085   .     S
H1207  C378    1.111   1_556 S
H1208  C1458   1.111   .     S
H1218  N1515   1.030   .     S
H1223  C1464   1.101   .     S
H1226  C1464   1.111   .     S
H1227  N1247   1.027   .     S
H1230  C1285   1.108   .     S
H1231  N1248   1.027   .     S
H1236  N1243   1.028   .     S
H1240  N1244   1.028   .     S
N1241  Zn1260  2.022   .     S
N1241  N1332   1.309   .     S
N1241  N1337   1.368   .     S
N1242  Zn1259  2.022   .     S
N1246  H1492   1.030   .     S
N1246  C1469   1.431   .     S
N1246  C1464   1.447   .     S
N1248  N1332   1.368   .     S
O1249  Zn1259  2.013   .     S
O1251  Zn1260  2.013   .     S
O1252  Zn1260  2.024   .     S
O1253  Zn1259  2.024   .     S
O1254  Zn1259  2.009   .     S
O1255  Zn1260  2.009   .     S
O1256  Zn1260  2.009   .     S
O1257  Zn1259  2.009   .     S
O1258  C1458   1.413   .     S
C1261  C1288   1.422   .     S
C1261  O1342   1.293   .     A
C1261  O1339   1.280   .     A
C1262  C1273   1.381   .     A
C1262  H1304   1.085   .     S
C1262  C1264   1.385   .     A
C1263  C1265   1.405   .     A
C1263  C1291   1.426   .     S
C1263  C1292   1.385   .     A
C1264  C1266   1.405   .     A
C1264  C1290   1.426   .     S
C1265  C1267   1.402   .     A
C1265  N1333   1.423   .     S
C1266  N1334   1.423   .     S
C1266  C1268   1.402   .     A
C1267  C1274   1.417   .     A
C1267  C1269   1.418   .     A
C1268  C1275   1.417   .     A
C1268  C1270   1.418   .     A
C1269  C1271   1.410   .     A
C1270  C1273   1.410   .     A
C1270  C459    1.392   1_556 S
C1271  C1287   1.394   .     A
C1271  C1292   1.381   .     A
C1272  C1289   1.422   .     S
C1272  O1343   1.293   .     A
C1272  O1341   1.280   .     A
C1273  C1283   1.394   .     A
C1274  O1348   1.396   .     S
C1275  O1340   1.396   .     S
C1275  C477    1.402   1_556 S
C1276  H1328   1.106   .     S
C1276  N1333   1.451   .     S
C1276  H1327   1.107   .     S
C1276  H1329   1.111   .     S
C1277  H1296   1.106   .     S
C1277  N1334   1.451   .     S
C1277  H1295   1.111   .     S
C1277  H1294   1.107   .     S
C1278  C1279   1.523   .     S
C1279  H1299   1.108   .     S
C1279  H1300   1.110   .     S
C1279  H1301   1.108   .     S
C1280  C1281   1.523   .     S
C1280  H1572   1.111   .     S
C1280  H493    1.111   1_556 S
C1280  O1610   1.413   .     S
C1281  H1305   1.108   .     S
C1281  H1306   1.110   .     S
C1281  H1307   1.108   .     S
C1282  H1311   1.104   .     S
C1282  H1579   1.101   .     S
C1282  H1580   1.111   .     S
C1282  N1605   1.447   .     S
C1283  H1315   1.082   .     S
C1283  C464    1.402   1_556 S
C1284  H1314   1.104   .     S
C1285  N1337   1.443   .     S
C1285  H1318   1.109   .     S
C1285  H1319   1.109   .     S
C1286  N1338   1.443   .     S
C1286  H1324   1.109   .     S
C1286  H1322   1.109   .     S
C1286  H1143   1.108   1_655 S
C1287  H1325   1.082   .     S
C1288  C1559   1.364   .     S
C1288  N1605   1.431   .     S
C1290  O1346   1.289   .     A
C1290  O1344   1.288   .     A
C1291  O1345   1.288   .     A
C1291  O1347   1.289   .     A
C1292  H1293   1.085   .     S
H1297  C468    1.111   1_556 S
H1298  C1548   1.111   .     S
H1308  N1605   1.030   .     S
H1313  C1554   1.101   .     S
H1316  C1554   1.111   .     S
H1317  N1337   1.027   .     S
H1320  C1105   1.108   1_655 S
H1321  N1338   1.027   .     S
H1326  N1333   1.028   .     S
H1330  N1334   1.028   .     S
N1331  Zn1350  2.022   .     S
N1331  N1152   1.309   1_655 S
N1331  N1157   1.368   1_655 S
N1332  Zn1349  2.022   .     S
N1336  H1582   1.030   .     S
N1336  C1559   1.431   .     S
N1336  C1554   1.447   .     S
N1338  N1152   1.368   1_655 S
O1339  Zn1349  2.013   .     S
O1341  Zn1350  2.013   .     S
O1342  Zn1350  2.024   .     S
O1343  Zn1349  2.024   .     S
O1344  Zn1349  2.009   .     S
O1345  Zn1350  2.009   .     S
O1346  Zn1350  2.009   .     S
O1347  Zn1349  2.009   .     S
O1348  C1548   1.413   .     S
C1351  C1378   1.422   .     S
C1351  O1432   1.293   .     A
C1351  O1429   1.280   .     A
C1352  C1363   1.381   .     A
C1352  H1394   1.085   .     S
C1352  C1354   1.385   .     A
C1353  C1355   1.405   .     A
C1353  C1381   1.426   .     S
C1353  C1382   1.385   .     A
C1354  C1356   1.405   .     A
C1354  C1380   1.426   .     S
C1355  C1357   1.402   .     A
C1355  N1423   1.423   .     S
C1356  N1424   1.423   .     S
C1356  C1358   1.402   .     A
C1357  C1364   1.417   .     A
C1357  C1359   1.418   .     A
C1358  C1365   1.417   .     A
C1358  C1360   1.418   .     A
C1359  C1361   1.410   .     A
C1360  C1363   1.410   .     A
C1360  C549    1.392   1_556 S
C1361  C1377   1.394   .     A
C1361  C1382   1.381   .     A
C1362  C1379   1.422   .     S
C1362  O1433   1.293   .     A
C1362  O1431   1.280   .     A
C1363  C1373   1.394   .     A
C1364  O1438   1.396   .     S
C1365  O1430   1.396   .     S
C1365  C567    1.402   1_556 S
C1366  H1418   1.106   .     S
C1366  N1423   1.451   .     S
C1366  H1417   1.107   .     S
C1366  H1419   1.111   .     S
C1367  H1386   1.106   .     S
C1367  N1424   1.451   .     S
C1367  H1385   1.111   .     S
C1367  H1384   1.107   .     S
C1368  C1369   1.523   .     S
C1369  H1389   1.108   .     S
C1369  H1390   1.110   .     S
C1369  H1391   1.108   .     S
C1370  C1371   1.523   .     S
C1370  H852    1.111   1_565 S
C1370  H583    1.111   1_556 S
C1370  O890    1.413   1_565 S
C1371  H1395   1.108   .     S
C1371  H1396   1.110   .     S
C1371  H1397   1.108   .     S
C1372  H1401   1.104   .     S
C1372  H859    1.101   1_565 S
C1372  H860    1.111   1_565 S
C1372  N885    1.447   1_565 S
C1373  H1405   1.082   .     S
C1373  C554    1.402   1_556 S
C1374  H1404   1.104   .     S
C1375  N1427   1.443   .     S
C1375  H1408   1.109   .     S
C1375  H1409   1.109   .     S
C1375  H1590   1.108   1_455 S
C1376  N1428   1.443   .     S
C1376  H1414   1.109   .     S
C1376  H1412   1.109   .     S
C1376  H1503   1.108   .     S
C1377  H1415   1.082   .     S
C1378  C839    1.364   1_565 S
C1378  N885    1.431   1_565 S
C1380  O1436   1.289   .     A
C1380  O1434   1.288   .     A
C1381  O1435   1.288   .     A
C1381  O1437   1.289   .     A
C1382  H1383   1.085   .     S
H1387  C558    1.111   1_556 S
H1388  C828    1.111   1_565 S
H1398  N885    1.030   1_565 S
H1403  C834    1.101   1_565 S
H1406  C834    1.111   1_565 S
H1407  N1427   1.027   .     S
H1410  C1465   1.108   .     S
H1411  N1428   1.027   .     S
H1413  C1556   1.108   1_455 S
H1416  N1423   1.028   .     S
H1420  N1424   1.028   .     S
N1421  Zn1440  2.022   .     S
N1421  N1512   1.309   .     S
N1421  N1517   1.368   .     S
N1422  Zn1439  2.022   .     S
N1422  N1601   1.309   1_455 S
N1422  N1608   1.368   1_455 S
N1426  H862    1.030   1_565 S
N1426  C839    1.431   1_565 S
N1426  C834    1.447   1_565 S
N1427  N1601   1.368   1_455 S
N1428  N1512   1.368   .     S
O1429  Zn1439  2.013   .     S
O1431  Zn1440  2.013   .     S
O1432  Zn1440  2.024   .     S
O1433  Zn1439  2.024   .     S
O1434  Zn1439  2.009   .     S
O1435  Zn1440  2.009   .     S
O1436  Zn1440  2.009   .     S
O1437  Zn1439  2.009   .     S
O1438  C828    1.413   1_565 S
C1441  C1468   1.422   .     S
C1441  O1522   1.293   .     A
C1441  O1519   1.280   .     A
C1442  C1453   1.381   .     A
C1442  H1484   1.085   .     S
C1442  C1444   1.385   .     A
C1443  C1445   1.405   .     A
C1443  C1471   1.426   .     S
C1443  C1472   1.385   .     A
C1444  C1446   1.405   .     A
C1444  C1470   1.426   .     S
C1445  C1447   1.402   .     A
C1445  N1513   1.423   .     S
C1446  N1514   1.423   .     S
C1446  C1448   1.402   .     A
C1447  C1454   1.417   .     A
C1447  C1449   1.418   .     A
C1448  C1455   1.417   .     A
C1448  C1450   1.418   .     A
C1449  C1451   1.410   .     A
C1450  C1453   1.410   .     A
C1450  C639    1.392   1_556 S
C1451  C1467   1.394   .     A
C1451  C1472   1.381   .     A
C1452  C1469   1.422   .     S
C1452  O1523   1.293   .     A
C1452  O1521   1.280   .     A
C1453  C1463   1.394   .     A
C1454  O1528   1.396   .     S
C1455  O1520   1.396   .     S
C1455  C657    1.402   1_556 S
C1456  H1508   1.106   .     S
C1456  N1513   1.451   .     S
C1456  H1507   1.107   .     S
C1456  H1509   1.111   .     S
C1457  H1476   1.106   .     S
C1457  N1514   1.451   .     S
C1457  H1475   1.111   .     S
C1457  H1474   1.107   .     S
C1458  C1459   1.523   .     S
C1459  H1479   1.108   .     S
C1459  H1480   1.110   .     S
C1459  H1481   1.108   .     S
C1460  C1461   1.523   .     S
C1460  H942    1.111   1_565 S
C1460  H673    1.111   1_556 S
C1460  O980    1.413   1_565 S
C1461  H1485   1.108   .     S
C1461  H1486   1.110   .     S
C1461  H1487   1.108   .     S
C1462  H1491   1.104   .     S
C1462  H949    1.101   1_565 S
C1462  H950    1.111   1_565 S
C1462  N975    1.447   1_565 S
C1463  H1495   1.082   .     S
C1463  C644    1.402   1_556 S
C1464  H1494   1.104   .     S
C1465  N1517   1.443   .     S
C1465  H1498   1.109   .     S
C1465  H1499   1.109   .     S
C1466  N1518   1.443   .     S
C1466  H1504   1.109   .     S
C1466  H1502   1.109   .     S
C1466  H1593   1.108   .     S
C1467  H1505   1.082   .     S
C1468  C929    1.364   1_565 S
C1468  N975    1.431   1_565 S
C1470  O1526   1.289   .     A
C1470  O1524   1.288   .     A
C1471  O1525   1.288   .     A
C1471  O1527   1.289   .     A
C1472  H1473   1.085   .     S
H1477  C648    1.111   1_556 S
H1478  C918    1.111   1_565 S
H1488  N975    1.030   1_565 S
H1493  C924    1.101   1_565 S
H1496  C924    1.111   1_565 S
H1497  N1517   1.027   .     S
H1500  C1555   1.108   .     S
H1501  N1518   1.027   .     S
H1506  N1513   1.028   .     S
H1510  N1514   1.028   .     S
N1511  Zn1530  2.022   .     S
N1511  N1602   1.309   .     S
N1511  N1607   1.368   .     S
N1512  Zn1529  2.022   .     S
N1516  H952    1.030   1_565 S
N1516  C929    1.431   1_565 S
N1516  C924    1.447   1_565 S
N1518  N1602   1.368   .     S
O1519  Zn1529  2.013   .     S
O1521  Zn1530  2.013   .     S
O1522  Zn1530  2.024   .     S
O1523  Zn1529  2.024   .     S
O1524  Zn1529  2.009   .     S
O1525  Zn1530  2.009   .     S
O1526  Zn1530  2.009   .     S
O1527  Zn1529  2.009   .     S
O1528  C918    1.413   1_565 S
C1531  C1558   1.422   .     S
C1531  O1612   1.293   .     A
C1531  O1609   1.280   .     A
C1532  C1543   1.381   .     A
C1532  H1574   1.085   .     S
C1532  C1534   1.385   .     A
C1533  C1535   1.405   .     A
C1533  C1561   1.426   .     S
C1533  C1562   1.385   .     A
C1534  C1536   1.405   .     A
C1534  C1560   1.426   .     S
C1535  C1537   1.402   .     A
C1535  N1603   1.423   .     S
C1536  N1604   1.423   .     S
C1536  C1538   1.402   .     A
C1537  C1544   1.417   .     A
C1537  C1539   1.418   .     A
C1538  C1545   1.417   .     A
C1538  C1540   1.418   .     A
C1539  C1541   1.410   .     A
C1540  C1543   1.410   .     A
C1540  C729    1.392   1_556 S
C1541  C1557   1.394   .     A
C1541  C1562   1.381   .     A
C1542  C1559   1.422   .     S
C1542  O1613   1.293   .     A
C1542  O1611   1.280   .     A
C1543  C1553   1.394   .     A
C1544  O1618   1.396   .     S
C1545  O1610   1.396   .     S
C1545  C747    1.402   1_556 S
C1546  H1598   1.106   .     S
C1546  N1603   1.451   .     S
C1546  H1597   1.107   .     S
C1546  H1599   1.111   .     S
C1547  H1566   1.106   .     S
C1547  N1604   1.451   .     S
C1547  H1565   1.111   .     S
C1547  H1564   1.107   .     S
C1548  C1549   1.523   .     S
C1549  H1569   1.108   .     S
C1549  H1570   1.110   .     S
C1549  H1571   1.108   .     S
C1550  C1551   1.523   .     S
C1550  H1032   1.111   1_565 S
C1550  H763    1.111   1_556 S
C1550  O1070   1.413   1_565 S
C1551  H1575   1.108   .     S
C1551  H1576   1.110   .     S
C1551  H1577   1.108   .     S
C1552  H1581   1.104   .     S
C1552  H1039   1.101   1_565 S
C1552  H1040   1.111   1_565 S
C1552  N1065   1.447   1_565 S
C1553  H1585   1.082   .     S
C1553  C734    1.402   1_556 S
C1554  H1584   1.104   .     S
C1555  N1607   1.443   .     S
C1555  H1588   1.109   .     S
C1555  H1589   1.109   .     S
C1556  N1608   1.443   .     S
C1556  H1594   1.109   .     S
C1556  H1592   1.109   .     S
C1556  H1413   1.108   1_655 S
C1557  H1595   1.082   .     S
C1558  C1019   1.364   1_565 S
C1558  N1065   1.431   1_565 S
C1560  O1616   1.289   .     A
C1560  O1614   1.288   .     A
C1561  O1615   1.288   .     A
C1561  O1617   1.289   .     A
C1562  H1563   1.085   .     S
H1567  C738    1.111   1_556 S
H1568  C1008   1.111   1_565 S
H1578  N1065   1.030   1_565 S
H1583  C1014   1.101   1_565 S
H1586  C1014   1.111   1_565 S
H1587  N1607   1.027   .     S
H1590  C1375   1.108   1_655 S
H1591  N1608   1.027   .     S
H1596  N1603   1.028   .     S
H1600  N1604   1.028   .     S
N1601  Zn1620  2.022   .     S
N1601  N1422   1.309   1_655 S
N1601  N1427   1.368   1_655 S
N1602  Zn1619  2.022   .     S
N1606  H1042   1.030   1_565 S
N1606  C1019   1.431   1_565 S
N1606  C1014   1.447   1_565 S
N1608  N1422   1.368   1_655 S
O1609  Zn1619  2.013   .     S
O1611  Zn1620  2.013   .     S
O1612  Zn1620  2.024   .     S
O1613  Zn1619  2.024   .     S
O1614  Zn1619  2.009   .     S
O1615  Zn1620  2.009   .     S
O1616  Zn1620  2.009   .     S
O1617  Zn1619  2.009   .     S
O1618  C1008   1.413   1_565 S
