data_str_m3_o1_o18_pcu_sym.131
_audit_creation_date              2020-01-03
_audit_creation_method            'Materials Studio'
_symmetry_space_group_name_H-M    'P1'
_symmetry_Int_Tables_number       1
_symmetry_cell_setting            triclinic
loop_
_symmetry_equiv_pos_as_xyz
  x,y,z
_cell_length_a                    29.5958
_cell_length_b                    32.1634
_cell_length_c                    31.0229
_cell_angle_alpha                 90.2779
_cell_angle_beta                  67.6937
_cell_angle_gamma                 89.7978
loop_
_atom_site_label
_atom_site_type_symbol
_atom_site_fract_x
_atom_site_fract_y
_atom_site_fract_z
_atom_site_U_iso_or_equiv
_atom_site_adp_type
_atom_site_occupancy
C1     C     0.16660   0.24669   0.25008   0.00000  Uiso   1.00
C2     C     0.16674   0.08664   0.24990   0.00000  Uiso   1.00
C3     C     0.10643   0.16791   0.05395   0.00000  Uiso   1.00
C4     C     0.21195   0.21119   0.45605   0.00000  Uiso   1.00
C5     C     0.07176   0.16223   0.03385   0.00000  Uiso   1.00
C6     C     0.24619   0.21761   0.47661   0.00000  Uiso   1.00
C7     C     0.20510   0.31194   0.25593   0.00000  Uiso   1.00
C8     C     0.12828   0.02138   0.24398   0.00000  Uiso   1.00
C9     C     0.20523   0.02119   0.25576   0.00000  Uiso   1.00
C10    C     0.12815   0.31213   0.24415   0.00000  Uiso   1.00
C11    C     0.16679   0.04248   0.24983   0.00000  Uiso   1.00
C12    C     0.16657   0.29085   0.25010   0.00000  Uiso   1.00
C13    C     0.32126   0.14084   0.22077   0.00000  Uiso   1.00
C14    C     0.01207   0.19243   0.27930   0.00000  Uiso   1.00
C15    C     0.03582   0.14093   0.22082   0.00000  Uiso   1.00
C16    C     0.29753   0.19241   0.27918   0.00000  Uiso   1.00
C17    C     0.13610   0.16730   0.33802   0.00000  Uiso   1.00
C18    C     0.19719   0.16708   0.16202   0.00000  Uiso   1.00
C19    C     0.11668   0.16987   0.38876   0.00000  Uiso   1.00
C20    C     0.21564   0.17366   0.11191   0.00000  Uiso   1.00
C21    C     0.05280   0.15876   0.46406   0.00000  Uiso   1.00
C22    C     0.27019   0.20819   0.04301   0.00000  Uiso   1.00
C23    C     0.06818   0.16008   0.41574   0.00000  Uiso   1.00
C24    C     0.25912   0.19492   0.08859   0.00000  Uiso   1.00
C25    C     0.14846   0.18131   0.41023   0.00000  Uiso   1.00
C26    C     0.18411   0.16508   0.08941   0.00000  Uiso   1.00
C27    C     0.13373   0.18118   0.45865   0.00000  Uiso   1.00
C28    C     0.19137   0.18243   0.04615   0.00000  Uiso   1.00
C29    C     0.08570   0.16769   0.48582   0.00000  Uiso   1.00
C30    C     0.23634   0.20260   0.02153   0.00000  Uiso   1.00
C31    C     0.16707   0.19084   0.48007   0.00000  Uiso   1.00
C32    C     0.15496   0.17990   0.02704   0.00000  Uiso   1.00
H33    H     0.15306   0.14559   0.10721   0.00000  Uiso   1.00
H34    H     0.18580   0.18778   0.38826   0.00000  Uiso   1.00
H35    H     0.28354   0.20253   0.10605   0.00000  Uiso   1.00
H36    H     0.04286   0.15179   0.39950   0.00000  Uiso   1.00
H37    H     0.01564   0.14934   0.48409   0.00000  Uiso   1.00
H38    H     0.30434   0.22425   0.02546   0.00000  Uiso   1.00
H39    H     0.09403   0.16404   0.09116   0.00000  Uiso   1.00
H40    H     0.22032   0.22412   0.42189   0.00000  Uiso   1.00
H41    H     0.23494   0.29570   0.26079   0.00000  Uiso   1.00
H42    H     0.09843   0.03763   0.23912   0.00000  Uiso   1.00
H43    H     0.23513   0.03729   0.26049   0.00000  Uiso   1.00
H44    H     0.09824   0.29603   0.23941   0.00000  Uiso   1.00
H45    H     0.06358   0.12039   0.19759   0.00000  Uiso   1.00
H46    H     0.26977   0.21295   0.30242   0.00000  Uiso   1.00
N47    N     0.04759   0.16668   0.25001   0.00000  Uiso   1.00
N48    N     0.28574   0.16666   0.24999   0.00000  Uiso   1.00
O49    O     0.12846   0.22775   0.25001   0.00000  Uiso   1.00
O50    O     0.20488   0.10558   0.25000   0.00000  Uiso   1.00
O51    O     0.20490   0.22774   0.25000   0.00000  Uiso   1.00
O52    O     0.12843   0.10559   0.25000   0.00000  Uiso   1.00
O53    O     0.10661   0.16667   0.31613   0.00000  Uiso   1.00
O54    O     0.22672   0.16666   0.18388   0.00000  Uiso   1.00
O55    O     0.18305   0.16666   0.31612   0.00000  Uiso   1.00
O56    O     0.15028   0.16667   0.18388   0.00000  Uiso   1.00
Zn57   Zn    0.11562   0.16667   0.25000   0.00000  Uiso   1.00
Zn58   Zn    0.21771   0.16666   0.25000   0.00000  Uiso   1.00
O59    O     0.02488   0.14940   0.06017   0.00000  Uiso   1.00
H60    H     0.02096   0.14725   0.09325   0.00000  Uiso   1.00
O61    O     0.28951   0.23819   0.45327   0.00000  Uiso   1.00
H62    H     0.29037   0.24734   0.42251   0.00000  Uiso   1.00
C63    C     0.31014   0.11305   0.18976   0.00000  Uiso   1.00
N64    N     0.30131   0.09058   0.16481   0.00000  Uiso   1.00
C65    C     0.02319   0.21993   0.31054   0.00000  Uiso   1.00
N66    N     0.03215   0.24214   0.33563   0.00000  Uiso   1.00
C67    C     0.49994   0.24669   0.25008   0.00000  Uiso   1.00
C68    C     0.50007   0.08664   0.24990   0.00000  Uiso   1.00
C69    C     0.43976   0.16791   0.05395   0.00000  Uiso   1.00
C70    C     0.54528   0.21119   0.45605   0.00000  Uiso   1.00
C71    C     0.40510   0.16223   0.03385   0.00000  Uiso   1.00
C72    C     0.57953   0.21761   0.47661   0.00000  Uiso   1.00
C73    C     0.53843   0.31194   0.25593   0.00000  Uiso   1.00
C74    C     0.46161   0.02138   0.24398   0.00000  Uiso   1.00
C75    C     0.53856   0.02119   0.25576   0.00000  Uiso   1.00
C76    C     0.46148   0.31213   0.24415   0.00000  Uiso   1.00
C77    C     0.50013   0.04248   0.24983   0.00000  Uiso   1.00
C78    C     0.49990   0.29085   0.25010   0.00000  Uiso   1.00
C79    C     0.65459   0.14084   0.22077   0.00000  Uiso   1.00
C80    C     0.34540   0.19243   0.27930   0.00000  Uiso   1.00
C81    C     0.36915   0.14093   0.22082   0.00000  Uiso   1.00
C82    C     0.63086   0.19241   0.27918   0.00000  Uiso   1.00
C83    C     0.46944   0.16730   0.33802   0.00000  Uiso   1.00
C84    C     0.53052   0.16708   0.16202   0.00000  Uiso   1.00
C85    C     0.45001   0.16987   0.38876   0.00000  Uiso   1.00
C86    C     0.54897   0.17366   0.11191   0.00000  Uiso   1.00
C87    C     0.38613   0.15876   0.46406   0.00000  Uiso   1.00
C88    C     0.60353   0.20819   0.04301   0.00000  Uiso   1.00
C89    C     0.40152   0.16008   0.41574   0.00000  Uiso   1.00
C90    C     0.59245   0.19492   0.08859   0.00000  Uiso   1.00
C91    C     0.48179   0.18131   0.41023   0.00000  Uiso   1.00
C92    C     0.51744   0.16508   0.08941   0.00000  Uiso   1.00
C93    C     0.46706   0.18118   0.45865   0.00000  Uiso   1.00
C94    C     0.52470   0.18243   0.04615   0.00000  Uiso   1.00
C95    C     0.41903   0.16769   0.48582   0.00000  Uiso   1.00
C96    C     0.56968   0.20260   0.02153   0.00000  Uiso   1.00
C97    C     0.50040   0.19084   0.48007   0.00000  Uiso   1.00
C98    C     0.48829   0.17990   0.02704   0.00000  Uiso   1.00
H99    H     0.48639   0.14559   0.10721   0.00000  Uiso   1.00
H100   H     0.51914   0.18778   0.38826   0.00000  Uiso   1.00
H101   H     0.61687   0.20253   0.10605   0.00000  Uiso   1.00
H102   H     0.37619   0.15179   0.39950   0.00000  Uiso   1.00
H103   H     0.34897   0.14934   0.48409   0.00000  Uiso   1.00
H104   H     0.63767   0.22425   0.02546   0.00000  Uiso   1.00
H105   H     0.42736   0.16404   0.09116   0.00000  Uiso   1.00
H106   H     0.55365   0.22412   0.42189   0.00000  Uiso   1.00
H107   H     0.56828   0.29570   0.26079   0.00000  Uiso   1.00
H108   H     0.43177   0.03763   0.23912   0.00000  Uiso   1.00
H109   H     0.56847   0.03729   0.26049   0.00000  Uiso   1.00
H110   H     0.43158   0.29603   0.23941   0.00000  Uiso   1.00
H111   H     0.39691   0.12039   0.19759   0.00000  Uiso   1.00
H112   H     0.60310   0.21295   0.30242   0.00000  Uiso   1.00
N113   N     0.38093   0.16668   0.25001   0.00000  Uiso   1.00
N114   N     0.61907   0.16666   0.24999   0.00000  Uiso   1.00
O115   O     0.46179   0.22775   0.25001   0.00000  Uiso   1.00
O116   O     0.53821   0.10558   0.25000   0.00000  Uiso   1.00
O117   O     0.53823   0.22774   0.25000   0.00000  Uiso   1.00
O118   O     0.46177   0.10559   0.25000   0.00000  Uiso   1.00
O119   O     0.43994   0.16667   0.31613   0.00000  Uiso   1.00
O120   O     0.56006   0.16666   0.18388   0.00000  Uiso   1.00
O121   O     0.51639   0.16666   0.31612   0.00000  Uiso   1.00
O122   O     0.48361   0.16667   0.18388   0.00000  Uiso   1.00
Zn123  Zn    0.44896   0.16667   0.25000   0.00000  Uiso   1.00
Zn124  Zn    0.55104   0.16666   0.25000   0.00000  Uiso   1.00
O125   O     0.35821   0.14940   0.06017   0.00000  Uiso   1.00
H126   H     0.35429   0.14725   0.09325   0.00000  Uiso   1.00
O127   O     0.62285   0.23819   0.45327   0.00000  Uiso   1.00
H128   H     0.62371   0.24734   0.42251   0.00000  Uiso   1.00
C129   C     0.64347   0.11305   0.18976   0.00000  Uiso   1.00
N130   N     0.63464   0.09058   0.16481   0.00000  Uiso   1.00
C131   C     0.35652   0.21993   0.31054   0.00000  Uiso   1.00
N132   N     0.36548   0.24214   0.33563   0.00000  Uiso   1.00
C133   C     0.83327   0.24669   0.25008   0.00000  Uiso   1.00
C134   C     0.83341   0.08664   0.24990   0.00000  Uiso   1.00
C135   C     0.77310   0.16791   0.05395   0.00000  Uiso   1.00
C136   C     0.87862   0.21119   0.45605   0.00000  Uiso   1.00
C137   C     0.73843   0.16223   0.03385   0.00000  Uiso   1.00
C138   C     0.91286   0.21761   0.47661   0.00000  Uiso   1.00
C139   C     0.87177   0.31194   0.25593   0.00000  Uiso   1.00
C140   C     0.79494   0.02138   0.24398   0.00000  Uiso   1.00
C141   C     0.87189   0.02119   0.25576   0.00000  Uiso   1.00
C142   C     0.79482   0.31213   0.24415   0.00000  Uiso   1.00
C143   C     0.83346   0.04248   0.24983   0.00000  Uiso   1.00
C144   C     0.83324   0.29085   0.25010   0.00000  Uiso   1.00
C145   C     0.98792   0.14084   0.22077   0.00000  Uiso   1.00
C146   C     0.67873   0.19243   0.27930   0.00000  Uiso   1.00
C147   C     0.70248   0.14093   0.22082   0.00000  Uiso   1.00
C148   C     0.96419   0.19241   0.27918   0.00000  Uiso   1.00
C149   C     0.80277   0.16730   0.33802   0.00000  Uiso   1.00
C150   C     0.86385   0.16708   0.16202   0.00000  Uiso   1.00
C151   C     0.78335   0.16987   0.38876   0.00000  Uiso   1.00
C152   C     0.88230   0.17366   0.11191   0.00000  Uiso   1.00
C153   C     0.71946   0.15876   0.46406   0.00000  Uiso   1.00
C154   C     0.93686   0.20819   0.04301   0.00000  Uiso   1.00
C155   C     0.73485   0.16008   0.41574   0.00000  Uiso   1.00
C156   C     0.92579   0.19492   0.08859   0.00000  Uiso   1.00
C157   C     0.81513   0.18131   0.41023   0.00000  Uiso   1.00
C158   C     0.85078   0.16508   0.08941   0.00000  Uiso   1.00
C159   C     0.80040   0.18118   0.45865   0.00000  Uiso   1.00
C160   C     0.85804   0.18243   0.04615   0.00000  Uiso   1.00
C161   C     0.75236   0.16769   0.48582   0.00000  Uiso   1.00
C162   C     0.90301   0.20260   0.02153   0.00000  Uiso   1.00
C163   C     0.83373   0.19084   0.48007   0.00000  Uiso   1.00
C164   C     0.82162   0.17990   0.02704   0.00000  Uiso   1.00
H165   H     0.81972   0.14559   0.10721   0.00000  Uiso   1.00
H166   H     0.85247   0.18778   0.38826   0.00000  Uiso   1.00
H167   H     0.95021   0.20253   0.10605   0.00000  Uiso   1.00
H168   H     0.70953   0.15179   0.39950   0.00000  Uiso   1.00
H169   H     0.68230   0.14934   0.48409   0.00000  Uiso   1.00
H170   H     0.97101   0.22425   0.02546   0.00000  Uiso   1.00
H171   H     0.76070   0.16404   0.09116   0.00000  Uiso   1.00
H172   H     0.88699   0.22412   0.42189   0.00000  Uiso   1.00
H173   H     0.90161   0.29570   0.26079   0.00000  Uiso   1.00
H174   H     0.76510   0.03763   0.23912   0.00000  Uiso   1.00
H175   H     0.90180   0.03729   0.26049   0.00000  Uiso   1.00
H176   H     0.76491   0.29603   0.23941   0.00000  Uiso   1.00
H177   H     0.73024   0.12039   0.19759   0.00000  Uiso   1.00
H178   H     0.93644   0.21295   0.30242   0.00000  Uiso   1.00
N179   N     0.71426   0.16668   0.25001   0.00000  Uiso   1.00
N180   N     0.95241   0.16666   0.24999   0.00000  Uiso   1.00
O181   O     0.79512   0.22775   0.25001   0.00000  Uiso   1.00
O182   O     0.87154   0.10558   0.25000   0.00000  Uiso   1.00
O183   O     0.87157   0.22774   0.25000   0.00000  Uiso   1.00
O184   O     0.79510   0.10559   0.25000   0.00000  Uiso   1.00
O185   O     0.77328   0.16667   0.31613   0.00000  Uiso   1.00
O186   O     0.89339   0.16666   0.18388   0.00000  Uiso   1.00
O187   O     0.84972   0.16666   0.31612   0.00000  Uiso   1.00
O188   O     0.81695   0.16667   0.18388   0.00000  Uiso   1.00
Zn189  Zn    0.78229   0.16667   0.25000   0.00000  Uiso   1.00
Zn190  Zn    0.88438   0.16666   0.25000   0.00000  Uiso   1.00
O191   O     0.69155   0.14940   0.06017   0.00000  Uiso   1.00
H192   H     0.68763   0.14725   0.09325   0.00000  Uiso   1.00
O193   O     0.95618   0.23819   0.45327   0.00000  Uiso   1.00
H194   H     0.95704   0.24734   0.42251   0.00000  Uiso   1.00
C195   C     0.97680   0.11305   0.18976   0.00000  Uiso   1.00
N196   N     0.96797   0.09058   0.16481   0.00000  Uiso   1.00
C197   C     0.68986   0.21993   0.31054   0.00000  Uiso   1.00
N198   N     0.69882   0.24214   0.33563   0.00000  Uiso   1.00
C199   C     0.16660   0.58002   0.25008   0.00000  Uiso   1.00
C200   C     0.16674   0.41998   0.24990   0.00000  Uiso   1.00
C201   C     0.10643   0.50125   0.05395   0.00000  Uiso   1.00
C202   C     0.21195   0.54452   0.45605   0.00000  Uiso   1.00
C203   C     0.07176   0.49556   0.03385   0.00000  Uiso   1.00
C204   C     0.24619   0.55095   0.47661   0.00000  Uiso   1.00
C205   C     0.20510   0.64528   0.25593   0.00000  Uiso   1.00
C206   C     0.12828   0.35472   0.24398   0.00000  Uiso   1.00
C207   C     0.20523   0.35453   0.25576   0.00000  Uiso   1.00
C208   C     0.12815   0.64547   0.24415   0.00000  Uiso   1.00
C209   C     0.16679   0.37581   0.24983   0.00000  Uiso   1.00
C210   C     0.16657   0.62418   0.25010   0.00000  Uiso   1.00
C211   C     0.32126   0.47417   0.22077   0.00000  Uiso   1.00
C212   C     0.01207   0.52576   0.27930   0.00000  Uiso   1.00
C213   C     0.03582   0.47426   0.22082   0.00000  Uiso   1.00
C214   C     0.29753   0.52575   0.27918   0.00000  Uiso   1.00
C215   C     0.13610   0.50063   0.33802   0.00000  Uiso   1.00
C216   C     0.19719   0.50041   0.16202   0.00000  Uiso   1.00
C217   C     0.11668   0.50321   0.38876   0.00000  Uiso   1.00
C218   C     0.21564   0.50699   0.11191   0.00000  Uiso   1.00
C219   C     0.05280   0.49210   0.46406   0.00000  Uiso   1.00
C220   C     0.27019   0.54153   0.04301   0.00000  Uiso   1.00
C221   C     0.06818   0.49342   0.41574   0.00000  Uiso   1.00
C222   C     0.25912   0.52826   0.08859   0.00000  Uiso   1.00
C223   C     0.14846   0.51464   0.41023   0.00000  Uiso   1.00
C224   C     0.18411   0.49842   0.08941   0.00000  Uiso   1.00
C225   C     0.13373   0.51451   0.45865   0.00000  Uiso   1.00
C226   C     0.19137   0.51577   0.04615   0.00000  Uiso   1.00
C227   C     0.08570   0.50102   0.48582   0.00000  Uiso   1.00
C228   C     0.23634   0.53593   0.02153   0.00000  Uiso   1.00
C229   C     0.16707   0.52417   0.48007   0.00000  Uiso   1.00
C230   C     0.15496   0.51323   0.02704   0.00000  Uiso   1.00
H231   H     0.15306   0.47893   0.10721   0.00000  Uiso   1.00
H232   H     0.18580   0.52111   0.38826   0.00000  Uiso   1.00
H233   H     0.28354   0.53586   0.10605   0.00000  Uiso   1.00
H234   H     0.04286   0.48513   0.39950   0.00000  Uiso   1.00
H235   H     0.01564   0.48267   0.48409   0.00000  Uiso   1.00
H236   H     0.30434   0.55758   0.02546   0.00000  Uiso   1.00
H237   H     0.09403   0.49737   0.09116   0.00000  Uiso   1.00
H238   H     0.22032   0.55746   0.42189   0.00000  Uiso   1.00
H239   H     0.23494   0.62903   0.26079   0.00000  Uiso   1.00
H240   H     0.09843   0.37096   0.23912   0.00000  Uiso   1.00
H241   H     0.23513   0.37062   0.26049   0.00000  Uiso   1.00
H242   H     0.09824   0.62937   0.23941   0.00000  Uiso   1.00
H243   H     0.06358   0.45372   0.19759   0.00000  Uiso   1.00
H244   H     0.26977   0.54628   0.30242   0.00000  Uiso   1.00
N245   N     0.04759   0.50001   0.25001   0.00000  Uiso   1.00
N246   N     0.28574   0.49999   0.24999   0.00000  Uiso   1.00
O247   O     0.12846   0.56108   0.25001   0.00000  Uiso   1.00
O248   O     0.20488   0.43892   0.25000   0.00000  Uiso   1.00
O249   O     0.20490   0.56107   0.25000   0.00000  Uiso   1.00
O250   O     0.12843   0.43893   0.25000   0.00000  Uiso   1.00
O251   O     0.10661   0.50001   0.31613   0.00000  Uiso   1.00
O252   O     0.22672   0.49999   0.18388   0.00000  Uiso   1.00
O253   O     0.18305   0.50000   0.31612   0.00000  Uiso   1.00
O254   O     0.15028   0.50000   0.18388   0.00000  Uiso   1.00
Zn255  Zn    0.11562   0.50001   0.25000   0.00000  Uiso   1.00
Zn256  Zn    0.21771   0.49999   0.25000   0.00000  Uiso   1.00
O257   O     0.02488   0.48274   0.06017   0.00000  Uiso   1.00
H258   H     0.02096   0.48058   0.09325   0.00000  Uiso   1.00
O259   O     0.28951   0.57153   0.45327   0.00000  Uiso   1.00
H260   H     0.29037   0.58067   0.42251   0.00000  Uiso   1.00
C261   C     0.31014   0.44639   0.18976   0.00000  Uiso   1.00
N262   N     0.30131   0.42391   0.16481   0.00000  Uiso   1.00
C263   C     0.02319   0.55326   0.31054   0.00000  Uiso   1.00
N264   N     0.03215   0.57547   0.33563   0.00000  Uiso   1.00
C265   C     0.49994   0.58002   0.25008   0.00000  Uiso   1.00
C266   C     0.50007   0.41998   0.24990   0.00000  Uiso   1.00
C267   C     0.43976   0.50125   0.05395   0.00000  Uiso   1.00
C268   C     0.54528   0.54452   0.45605   0.00000  Uiso   1.00
C269   C     0.40510   0.49556   0.03385   0.00000  Uiso   1.00
C270   C     0.57953   0.55095   0.47661   0.00000  Uiso   1.00
C271   C     0.53843   0.64528   0.25593   0.00000  Uiso   1.00
C272   C     0.46161   0.35472   0.24398   0.00000  Uiso   1.00
C273   C     0.53856   0.35453   0.25576   0.00000  Uiso   1.00
C274   C     0.46148   0.64547   0.24415   0.00000  Uiso   1.00
C275   C     0.50013   0.37581   0.24983   0.00000  Uiso   1.00
C276   C     0.49990   0.62418   0.25010   0.00000  Uiso   1.00
C277   C     0.65459   0.47417   0.22077   0.00000  Uiso   1.00
C278   C     0.34540   0.52576   0.27930   0.00000  Uiso   1.00
C279   C     0.36915   0.47426   0.22082   0.00000  Uiso   1.00
C280   C     0.63086   0.52575   0.27918   0.00000  Uiso   1.00
C281   C     0.46944   0.50063   0.33802   0.00000  Uiso   1.00
C282   C     0.53052   0.50041   0.16202   0.00000  Uiso   1.00
C283   C     0.45001   0.50321   0.38876   0.00000  Uiso   1.00
C284   C     0.54897   0.50699   0.11191   0.00000  Uiso   1.00
C285   C     0.38613   0.49210   0.46406   0.00000  Uiso   1.00
C286   C     0.60353   0.54153   0.04301   0.00000  Uiso   1.00
C287   C     0.40152   0.49342   0.41574   0.00000  Uiso   1.00
C288   C     0.59245   0.52826   0.08859   0.00000  Uiso   1.00
C289   C     0.48179   0.51464   0.41023   0.00000  Uiso   1.00
C290   C     0.51744   0.49842   0.08941   0.00000  Uiso   1.00
C291   C     0.46706   0.51451   0.45865   0.00000  Uiso   1.00
C292   C     0.52470   0.51577   0.04615   0.00000  Uiso   1.00
C293   C     0.41903   0.50102   0.48582   0.00000  Uiso   1.00
C294   C     0.56968   0.53593   0.02153   0.00000  Uiso   1.00
C295   C     0.50040   0.52417   0.48007   0.00000  Uiso   1.00
C296   C     0.48829   0.51323   0.02704   0.00000  Uiso   1.00
H297   H     0.48639   0.47893   0.10721   0.00000  Uiso   1.00
H298   H     0.51914   0.52111   0.38826   0.00000  Uiso   1.00
H299   H     0.61687   0.53586   0.10605   0.00000  Uiso   1.00
H300   H     0.37619   0.48513   0.39950   0.00000  Uiso   1.00
H301   H     0.34897   0.48267   0.48409   0.00000  Uiso   1.00
H302   H     0.63767   0.55758   0.02546   0.00000  Uiso   1.00
H303   H     0.42736   0.49737   0.09116   0.00000  Uiso   1.00
H304   H     0.55365   0.55746   0.42189   0.00000  Uiso   1.00
H305   H     0.56828   0.62903   0.26079   0.00000  Uiso   1.00
H306   H     0.43177   0.37096   0.23912   0.00000  Uiso   1.00
H307   H     0.56847   0.37062   0.26049   0.00000  Uiso   1.00
H308   H     0.43158   0.62937   0.23941   0.00000  Uiso   1.00
H309   H     0.39691   0.45372   0.19759   0.00000  Uiso   1.00
H310   H     0.60310   0.54628   0.30242   0.00000  Uiso   1.00
N311   N     0.38093   0.50001   0.25001   0.00000  Uiso   1.00
N312   N     0.61907   0.49999   0.24999   0.00000  Uiso   1.00
O313   O     0.46179   0.56108   0.25001   0.00000  Uiso   1.00
O314   O     0.53821   0.43892   0.25000   0.00000  Uiso   1.00
O315   O     0.53823   0.56107   0.25000   0.00000  Uiso   1.00
O316   O     0.46177   0.43893   0.25000   0.00000  Uiso   1.00
O317   O     0.43994   0.50001   0.31613   0.00000  Uiso   1.00
O318   O     0.56006   0.49999   0.18388   0.00000  Uiso   1.00
O319   O     0.51639   0.50000   0.31612   0.00000  Uiso   1.00
O320   O     0.48361   0.50000   0.18388   0.00000  Uiso   1.00
Zn321  Zn    0.44896   0.50001   0.25000   0.00000  Uiso   1.00
Zn322  Zn    0.55104   0.49999   0.25000   0.00000  Uiso   1.00
O323   O     0.35821   0.48274   0.06017   0.00000  Uiso   1.00
H324   H     0.35429   0.48058   0.09325   0.00000  Uiso   1.00
O325   O     0.62285   0.57153   0.45327   0.00000  Uiso   1.00
H326   H     0.62371   0.58067   0.42251   0.00000  Uiso   1.00
C327   C     0.64347   0.44639   0.18976   0.00000  Uiso   1.00
N328   N     0.63464   0.42391   0.16481   0.00000  Uiso   1.00
C329   C     0.35652   0.55326   0.31054   0.00000  Uiso   1.00
N330   N     0.36548   0.57547   0.33563   0.00000  Uiso   1.00
C331   C     0.83327   0.58002   0.25008   0.00000  Uiso   1.00
C332   C     0.83341   0.41998   0.24990   0.00000  Uiso   1.00
C333   C     0.77310   0.50125   0.05395   0.00000  Uiso   1.00
C334   C     0.87862   0.54452   0.45605   0.00000  Uiso   1.00
C335   C     0.73843   0.49556   0.03385   0.00000  Uiso   1.00
C336   C     0.91286   0.55095   0.47661   0.00000  Uiso   1.00
C337   C     0.87177   0.64528   0.25593   0.00000  Uiso   1.00
C338   C     0.79494   0.35472   0.24398   0.00000  Uiso   1.00
C339   C     0.87189   0.35453   0.25576   0.00000  Uiso   1.00
C340   C     0.79482   0.64547   0.24415   0.00000  Uiso   1.00
C341   C     0.83346   0.37581   0.24983   0.00000  Uiso   1.00
C342   C     0.83324   0.62418   0.25010   0.00000  Uiso   1.00
C343   C     0.98792   0.47417   0.22077   0.00000  Uiso   1.00
C344   C     0.67873   0.52576   0.27930   0.00000  Uiso   1.00
C345   C     0.70248   0.47426   0.22082   0.00000  Uiso   1.00
C346   C     0.96419   0.52575   0.27918   0.00000  Uiso   1.00
C347   C     0.80277   0.50063   0.33802   0.00000  Uiso   1.00
C348   C     0.86385   0.50041   0.16202   0.00000  Uiso   1.00
C349   C     0.78335   0.50321   0.38876   0.00000  Uiso   1.00
C350   C     0.88230   0.50699   0.11191   0.00000  Uiso   1.00
C351   C     0.71946   0.49210   0.46406   0.00000  Uiso   1.00
C352   C     0.93686   0.54153   0.04301   0.00000  Uiso   1.00
C353   C     0.73485   0.49342   0.41574   0.00000  Uiso   1.00
C354   C     0.92579   0.52826   0.08859   0.00000  Uiso   1.00
C355   C     0.81513   0.51464   0.41023   0.00000  Uiso   1.00
C356   C     0.85078   0.49842   0.08941   0.00000  Uiso   1.00
C357   C     0.80040   0.51451   0.45865   0.00000  Uiso   1.00
C358   C     0.85804   0.51577   0.04615   0.00000  Uiso   1.00
C359   C     0.75236   0.50102   0.48582   0.00000  Uiso   1.00
C360   C     0.90301   0.53593   0.02153   0.00000  Uiso   1.00
C361   C     0.83373   0.52417   0.48007   0.00000  Uiso   1.00
C362   C     0.82162   0.51323   0.02704   0.00000  Uiso   1.00
H363   H     0.81972   0.47893   0.10721   0.00000  Uiso   1.00
H364   H     0.85247   0.52111   0.38826   0.00000  Uiso   1.00
H365   H     0.95021   0.53586   0.10605   0.00000  Uiso   1.00
H366   H     0.70953   0.48513   0.39950   0.00000  Uiso   1.00
H367   H     0.68230   0.48267   0.48409   0.00000  Uiso   1.00
H368   H     0.97101   0.55758   0.02546   0.00000  Uiso   1.00
H369   H     0.76070   0.49737   0.09116   0.00000  Uiso   1.00
H370   H     0.88699   0.55746   0.42189   0.00000  Uiso   1.00
H371   H     0.90161   0.62903   0.26079   0.00000  Uiso   1.00
H372   H     0.76510   0.37096   0.23912   0.00000  Uiso   1.00
H373   H     0.90180   0.37062   0.26049   0.00000  Uiso   1.00
H374   H     0.76491   0.62937   0.23941   0.00000  Uiso   1.00
H375   H     0.73024   0.45372   0.19759   0.00000  Uiso   1.00
H376   H     0.93644   0.54628   0.30242   0.00000  Uiso   1.00
N377   N     0.71426   0.50001   0.25001   0.00000  Uiso   1.00
N378   N     0.95241   0.49999   0.24999   0.00000  Uiso   1.00
O379   O     0.79512   0.56108   0.25001   0.00000  Uiso   1.00
O380   O     0.87154   0.43892   0.25000   0.00000  Uiso   1.00
O381   O     0.87157   0.56107   0.25000   0.00000  Uiso   1.00
O382   O     0.79510   0.43893   0.25000   0.00000  Uiso   1.00
O383   O     0.77328   0.50001   0.31613   0.00000  Uiso   1.00
O384   O     0.89339   0.49999   0.18388   0.00000  Uiso   1.00
O385   O     0.84972   0.50000   0.31612   0.00000  Uiso   1.00
O386   O     0.81695   0.50000   0.18388   0.00000  Uiso   1.00
Zn387  Zn    0.78229   0.50001   0.25000   0.00000  Uiso   1.00
Zn388  Zn    0.88438   0.49999   0.25000   0.00000  Uiso   1.00
O389   O     0.69155   0.48274   0.06017   0.00000  Uiso   1.00
H390   H     0.68763   0.48058   0.09325   0.00000  Uiso   1.00
O391   O     0.95618   0.57153   0.45327   0.00000  Uiso   1.00
H392   H     0.95704   0.58067   0.42251   0.00000  Uiso   1.00
C393   C     0.97680   0.44639   0.18976   0.00000  Uiso   1.00
N394   N     0.96797   0.42391   0.16481   0.00000  Uiso   1.00
C395   C     0.68986   0.55326   0.31054   0.00000  Uiso   1.00
N396   N     0.69882   0.57547   0.33563   0.00000  Uiso   1.00
C397   C     0.16660   0.91336   0.25008   0.00000  Uiso   1.00
C398   C     0.16674   0.75331   0.24990   0.00000  Uiso   1.00
C399   C     0.10643   0.83458   0.05395   0.00000  Uiso   1.00
C400   C     0.21195   0.87786   0.45605   0.00000  Uiso   1.00
C401   C     0.07176   0.82890   0.03385   0.00000  Uiso   1.00
C402   C     0.24619   0.88428   0.47661   0.00000  Uiso   1.00
C403   C     0.20510   0.97861   0.25593   0.00000  Uiso   1.00
C404   C     0.12828   0.68805   0.24398   0.00000  Uiso   1.00
C405   C     0.20523   0.68786   0.25576   0.00000  Uiso   1.00
C406   C     0.12815   0.97880   0.24415   0.00000  Uiso   1.00
C407   C     0.16679   0.70914   0.24983   0.00000  Uiso   1.00
C408   C     0.16657   0.95752   0.25010   0.00000  Uiso   1.00
C409   C     0.32126   0.80751   0.22077   0.00000  Uiso   1.00
C410   C     0.01207   0.85910   0.27930   0.00000  Uiso   1.00
C411   C     0.03582   0.80760   0.22082   0.00000  Uiso   1.00
C412   C     0.29753   0.85908   0.27918   0.00000  Uiso   1.00
C413   C     0.13610   0.83397   0.33802   0.00000  Uiso   1.00
C414   C     0.19719   0.83374   0.16202   0.00000  Uiso   1.00
C415   C     0.11668   0.83654   0.38876   0.00000  Uiso   1.00
C416   C     0.21564   0.84033   0.11191   0.00000  Uiso   1.00
C417   C     0.05280   0.82543   0.46406   0.00000  Uiso   1.00
C418   C     0.27019   0.87486   0.04301   0.00000  Uiso   1.00
C419   C     0.06818   0.82675   0.41574   0.00000  Uiso   1.00
C420   C     0.25912   0.86159   0.08859   0.00000  Uiso   1.00
C421   C     0.14846   0.84798   0.41023   0.00000  Uiso   1.00
C422   C     0.18411   0.83175   0.08941   0.00000  Uiso   1.00
C423   C     0.13373   0.84785   0.45865   0.00000  Uiso   1.00
C424   C     0.19137   0.84910   0.04615   0.00000  Uiso   1.00
C425   C     0.08570   0.83435   0.48582   0.00000  Uiso   1.00
C426   C     0.23634   0.86926   0.02153   0.00000  Uiso   1.00
C427   C     0.16707   0.85751   0.48007   0.00000  Uiso   1.00
C428   C     0.15496   0.84657   0.02704   0.00000  Uiso   1.00
H429   H     0.15306   0.81226   0.10721   0.00000  Uiso   1.00
H430   H     0.18580   0.85444   0.38826   0.00000  Uiso   1.00
H431   H     0.28354   0.86919   0.10605   0.00000  Uiso   1.00
H432   H     0.04286   0.81846   0.39950   0.00000  Uiso   1.00
H433   H     0.01564   0.81601   0.48409   0.00000  Uiso   1.00
H434   H     0.30434   0.89092   0.02546   0.00000  Uiso   1.00
H435   H     0.09403   0.83070   0.09116   0.00000  Uiso   1.00
H436   H     0.22032   0.89079   0.42189   0.00000  Uiso   1.00
H437   H     0.23494   0.96237   0.26079   0.00000  Uiso   1.00
H438   H     0.09843   0.70429   0.23912   0.00000  Uiso   1.00
H439   H     0.23513   0.70396   0.26049   0.00000  Uiso   1.00
H440   H     0.09824   0.96270   0.23941   0.00000  Uiso   1.00
H441   H     0.06358   0.78706   0.19759   0.00000  Uiso   1.00
H442   H     0.26977   0.87961   0.30242   0.00000  Uiso   1.00
N443   N     0.04759   0.83334   0.25001   0.00000  Uiso   1.00
N444   N     0.28574   0.83332   0.24999   0.00000  Uiso   1.00
O445   O     0.12846   0.89442   0.25001   0.00000  Uiso   1.00
O446   O     0.20488   0.77225   0.25000   0.00000  Uiso   1.00
O447   O     0.20490   0.89441   0.25000   0.00000  Uiso   1.00
O448   O     0.12843   0.77226   0.25000   0.00000  Uiso   1.00
O449   O     0.10661   0.83334   0.31613   0.00000  Uiso   1.00
O450   O     0.22672   0.83333   0.18388   0.00000  Uiso   1.00
O451   O     0.18305   0.83333   0.31612   0.00000  Uiso   1.00
O452   O     0.15028   0.83334   0.18388   0.00000  Uiso   1.00
Zn453  Zn    0.11562   0.83334   0.25000   0.00000  Uiso   1.00
Zn454  Zn    0.21771   0.83333   0.25000   0.00000  Uiso   1.00
O455   O     0.02488   0.81607   0.06017   0.00000  Uiso   1.00
H456   H     0.02096   0.81392   0.09325   0.00000  Uiso   1.00
O457   O     0.28951   0.90486   0.45327   0.00000  Uiso   1.00
H458   H     0.29037   0.91400   0.42251   0.00000  Uiso   1.00
C459   C     0.31014   0.77972   0.18976   0.00000  Uiso   1.00
N460   N     0.30131   0.75724   0.16481   0.00000  Uiso   1.00
C461   C     0.02319   0.88660   0.31054   0.00000  Uiso   1.00
N462   N     0.03215   0.90881   0.33563   0.00000  Uiso   1.00
C463   C     0.49994   0.91336   0.25008   0.00000  Uiso   1.00
C464   C     0.50007   0.75331   0.24990   0.00000  Uiso   1.00
C465   C     0.43976   0.83458   0.05395   0.00000  Uiso   1.00
C466   C     0.54528   0.87786   0.45605   0.00000  Uiso   1.00
C467   C     0.40510   0.82890   0.03385   0.00000  Uiso   1.00
C468   C     0.57953   0.88428   0.47661   0.00000  Uiso   1.00
C469   C     0.53843   0.97861   0.25593   0.00000  Uiso   1.00
C470   C     0.46161   0.68805   0.24398   0.00000  Uiso   1.00
C471   C     0.53856   0.68786   0.25576   0.00000  Uiso   1.00
C472   C     0.46148   0.97880   0.24415   0.00000  Uiso   1.00
C473   C     0.50013   0.70914   0.24983   0.00000  Uiso   1.00
C474   C     0.49990   0.95752   0.25010   0.00000  Uiso   1.00
C475   C     0.65459   0.80751   0.22077   0.00000  Uiso   1.00
C476   C     0.34540   0.85910   0.27930   0.00000  Uiso   1.00
C477   C     0.36915   0.80760   0.22082   0.00000  Uiso   1.00
C478   C     0.63086   0.85908   0.27918   0.00000  Uiso   1.00
C479   C     0.46944   0.83397   0.33802   0.00000  Uiso   1.00
C480   C     0.53052   0.83374   0.16202   0.00000  Uiso   1.00
C481   C     0.45001   0.83654   0.38876   0.00000  Uiso   1.00
C482   C     0.54897   0.84033   0.11191   0.00000  Uiso   1.00
C483   C     0.38613   0.82543   0.46406   0.00000  Uiso   1.00
C484   C     0.60353   0.87486   0.04301   0.00000  Uiso   1.00
C485   C     0.40152   0.82675   0.41574   0.00000  Uiso   1.00
C486   C     0.59245   0.86159   0.08859   0.00000  Uiso   1.00
C487   C     0.48179   0.84798   0.41023   0.00000  Uiso   1.00
C488   C     0.51744   0.83175   0.08941   0.00000  Uiso   1.00
C489   C     0.46706   0.84785   0.45865   0.00000  Uiso   1.00
C490   C     0.52470   0.84910   0.04615   0.00000  Uiso   1.00
C491   C     0.41903   0.83435   0.48582   0.00000  Uiso   1.00
C492   C     0.56968   0.86926   0.02153   0.00000  Uiso   1.00
C493   C     0.50040   0.85751   0.48007   0.00000  Uiso   1.00
C494   C     0.48829   0.84657   0.02704   0.00000  Uiso   1.00
H495   H     0.48639   0.81226   0.10721   0.00000  Uiso   1.00
H496   H     0.51914   0.85444   0.38826   0.00000  Uiso   1.00
H497   H     0.61687   0.86919   0.10605   0.00000  Uiso   1.00
H498   H     0.37619   0.81846   0.39950   0.00000  Uiso   1.00
H499   H     0.34897   0.81601   0.48409   0.00000  Uiso   1.00
H500   H     0.63767   0.89092   0.02546   0.00000  Uiso   1.00
H501   H     0.42736   0.83070   0.09116   0.00000  Uiso   1.00
H502   H     0.55365   0.89079   0.42189   0.00000  Uiso   1.00
H503   H     0.56828   0.96237   0.26079   0.00000  Uiso   1.00
H504   H     0.43177   0.70429   0.23912   0.00000  Uiso   1.00
H505   H     0.56847   0.70396   0.26049   0.00000  Uiso   1.00
H506   H     0.43158   0.96270   0.23941   0.00000  Uiso   1.00
H507   H     0.39691   0.78706   0.19759   0.00000  Uiso   1.00
H508   H     0.60310   0.87961   0.30242   0.00000  Uiso   1.00
N509   N     0.38093   0.83334   0.25001   0.00000  Uiso   1.00
N510   N     0.61907   0.83332   0.24999   0.00000  Uiso   1.00
O511   O     0.46179   0.89442   0.25001   0.00000  Uiso   1.00
O512   O     0.53821   0.77225   0.25000   0.00000  Uiso   1.00
O513   O     0.53823   0.89441   0.25000   0.00000  Uiso   1.00
O514   O     0.46177   0.77226   0.25000   0.00000  Uiso   1.00
O515   O     0.43994   0.83334   0.31613   0.00000  Uiso   1.00
O516   O     0.56006   0.83333   0.18388   0.00000  Uiso   1.00
O517   O     0.51639   0.83333   0.31612   0.00000  Uiso   1.00
O518   O     0.48361   0.83334   0.18388   0.00000  Uiso   1.00
Zn519  Zn    0.44896   0.83334   0.25000   0.00000  Uiso   1.00
Zn520  Zn    0.55104   0.83333   0.25000   0.00000  Uiso   1.00
O521   O     0.35821   0.81607   0.06017   0.00000  Uiso   1.00
H522   H     0.35429   0.81392   0.09325   0.00000  Uiso   1.00
O523   O     0.62285   0.90486   0.45327   0.00000  Uiso   1.00
H524   H     0.62371   0.91400   0.42251   0.00000  Uiso   1.00
C525   C     0.64347   0.77972   0.18976   0.00000  Uiso   1.00
N526   N     0.63464   0.75724   0.16481   0.00000  Uiso   1.00
C527   C     0.35652   0.88660   0.31054   0.00000  Uiso   1.00
N528   N     0.36548   0.90881   0.33563   0.00000  Uiso   1.00
C529   C     0.83327   0.91336   0.25008   0.00000  Uiso   1.00
C530   C     0.83341   0.75331   0.24990   0.00000  Uiso   1.00
C531   C     0.77310   0.83458   0.05395   0.00000  Uiso   1.00
C532   C     0.87862   0.87786   0.45605   0.00000  Uiso   1.00
C533   C     0.73843   0.82890   0.03385   0.00000  Uiso   1.00
C534   C     0.91286   0.88428   0.47661   0.00000  Uiso   1.00
C535   C     0.87177   0.97861   0.25593   0.00000  Uiso   1.00
C536   C     0.79494   0.68805   0.24398   0.00000  Uiso   1.00
C537   C     0.87189   0.68786   0.25576   0.00000  Uiso   1.00
C538   C     0.79482   0.97880   0.24415   0.00000  Uiso   1.00
C539   C     0.83346   0.70914   0.24983   0.00000  Uiso   1.00
C540   C     0.83324   0.95752   0.25010   0.00000  Uiso   1.00
C541   C     0.98792   0.80751   0.22077   0.00000  Uiso   1.00
C542   C     0.67873   0.85910   0.27930   0.00000  Uiso   1.00
C543   C     0.70248   0.80760   0.22082   0.00000  Uiso   1.00
C544   C     0.96419   0.85908   0.27918   0.00000  Uiso   1.00
C545   C     0.80277   0.83397   0.33802   0.00000  Uiso   1.00
C546   C     0.86385   0.83374   0.16202   0.00000  Uiso   1.00
C547   C     0.78335   0.83654   0.38876   0.00000  Uiso   1.00
C548   C     0.88230   0.84033   0.11191   0.00000  Uiso   1.00
C549   C     0.71946   0.82543   0.46406   0.00000  Uiso   1.00
C550   C     0.93686   0.87486   0.04301   0.00000  Uiso   1.00
C551   C     0.73485   0.82675   0.41574   0.00000  Uiso   1.00
C552   C     0.92579   0.86159   0.08859   0.00000  Uiso   1.00
C553   C     0.81513   0.84798   0.41023   0.00000  Uiso   1.00
C554   C     0.85078   0.83175   0.08941   0.00000  Uiso   1.00
C555   C     0.80040   0.84785   0.45865   0.00000  Uiso   1.00
C556   C     0.85804   0.84910   0.04615   0.00000  Uiso   1.00
C557   C     0.75236   0.83435   0.48582   0.00000  Uiso   1.00
C558   C     0.90301   0.86926   0.02153   0.00000  Uiso   1.00
C559   C     0.83373   0.85751   0.48007   0.00000  Uiso   1.00
C560   C     0.82162   0.84657   0.02704   0.00000  Uiso   1.00
H561   H     0.81972   0.81226   0.10721   0.00000  Uiso   1.00
H562   H     0.85247   0.85444   0.38826   0.00000  Uiso   1.00
H563   H     0.95021   0.86919   0.10605   0.00000  Uiso   1.00
H564   H     0.70953   0.81846   0.39950   0.00000  Uiso   1.00
H565   H     0.68230   0.81601   0.48409   0.00000  Uiso   1.00
H566   H     0.97101   0.89092   0.02546   0.00000  Uiso   1.00
H567   H     0.76070   0.83070   0.09116   0.00000  Uiso   1.00
H568   H     0.88699   0.89079   0.42189   0.00000  Uiso   1.00
H569   H     0.90161   0.96237   0.26079   0.00000  Uiso   1.00
H570   H     0.76510   0.70429   0.23912   0.00000  Uiso   1.00
H571   H     0.90180   0.70396   0.26049   0.00000  Uiso   1.00
H572   H     0.76491   0.96270   0.23941   0.00000  Uiso   1.00
H573   H     0.73024   0.78706   0.19759   0.00000  Uiso   1.00
H574   H     0.93644   0.87961   0.30242   0.00000  Uiso   1.00
N575   N     0.71426   0.83334   0.25001   0.00000  Uiso   1.00
N576   N     0.95241   0.83332   0.24999   0.00000  Uiso   1.00
O577   O     0.79512   0.89442   0.25001   0.00000  Uiso   1.00
O578   O     0.87154   0.77225   0.25000   0.00000  Uiso   1.00
O579   O     0.87157   0.89441   0.25000   0.00000  Uiso   1.00
O580   O     0.79510   0.77226   0.25000   0.00000  Uiso   1.00
O581   O     0.77328   0.83334   0.31613   0.00000  Uiso   1.00
O582   O     0.89339   0.83333   0.18388   0.00000  Uiso   1.00
O583   O     0.84972   0.83333   0.31612   0.00000  Uiso   1.00
O584   O     0.81695   0.83334   0.18388   0.00000  Uiso   1.00
Zn585  Zn    0.78229   0.83334   0.25000   0.00000  Uiso   1.00
Zn586  Zn    0.88438   0.83333   0.25000   0.00000  Uiso   1.00
O587   O     0.69155   0.81607   0.06017   0.00000  Uiso   1.00
H588   H     0.68763   0.81392   0.09325   0.00000  Uiso   1.00
O589   O     0.95618   0.90486   0.45327   0.00000  Uiso   1.00
H590   H     0.95704   0.91400   0.42251   0.00000  Uiso   1.00
C591   C     0.97680   0.77972   0.18976   0.00000  Uiso   1.00
N592   N     0.96797   0.75724   0.16481   0.00000  Uiso   1.00
C593   C     0.68986   0.88660   0.31054   0.00000  Uiso   1.00
N594   N     0.69882   0.90881   0.33563   0.00000  Uiso   1.00
C595   C     0.16660   0.24669   0.75008   0.00000  Uiso   1.00
C596   C     0.16674   0.08664   0.74990   0.00000  Uiso   1.00
C597   C     0.10643   0.16791   0.55395   0.00000  Uiso   1.00
C598   C     0.21195   0.21119   0.95605   0.00000  Uiso   1.00
C599   C     0.07176   0.16223   0.53385   0.00000  Uiso   1.00
C600   C     0.24619   0.21761   0.97661   0.00000  Uiso   1.00
C601   C     0.20510   0.31194   0.75593   0.00000  Uiso   1.00
C602   C     0.12828   0.02138   0.74398   0.00000  Uiso   1.00
C603   C     0.20523   0.02119   0.75576   0.00000  Uiso   1.00
C604   C     0.12815   0.31213   0.74415   0.00000  Uiso   1.00
C605   C     0.16679   0.04248   0.74983   0.00000  Uiso   1.00
C606   C     0.16657   0.29085   0.75010   0.00000  Uiso   1.00
C607   C     0.32126   0.14084   0.72077   0.00000  Uiso   1.00
C608   C     0.01207   0.19243   0.77930   0.00000  Uiso   1.00
C609   C     0.03582   0.14093   0.72082   0.00000  Uiso   1.00
C610   C     0.29753   0.19241   0.77918   0.00000  Uiso   1.00
C611   C     0.13610   0.16730   0.83802   0.00000  Uiso   1.00
C612   C     0.19719   0.16708   0.66202   0.00000  Uiso   1.00
C613   C     0.11668   0.16987   0.88876   0.00000  Uiso   1.00
C614   C     0.21564   0.17366   0.61191   0.00000  Uiso   1.00
C615   C     0.05280   0.15876   0.96406   0.00000  Uiso   1.00
C616   C     0.27019   0.20819   0.54301   0.00000  Uiso   1.00
C617   C     0.06818   0.16008   0.91574   0.00000  Uiso   1.00
C618   C     0.25912   0.19492   0.58859   0.00000  Uiso   1.00
C619   C     0.14846   0.18131   0.91023   0.00000  Uiso   1.00
C620   C     0.18411   0.16508   0.58941   0.00000  Uiso   1.00
C621   C     0.13373   0.18118   0.95865   0.00000  Uiso   1.00
C622   C     0.19137   0.18243   0.54615   0.00000  Uiso   1.00
C623   C     0.08570   0.16769   0.98582   0.00000  Uiso   1.00
C624   C     0.23634   0.20260   0.52153   0.00000  Uiso   1.00
C625   C     0.16707   0.19084   0.98007   0.00000  Uiso   1.00
C626   C     0.15496   0.17990   0.52704   0.00000  Uiso   1.00
H627   H     0.15306   0.14559   0.60721   0.00000  Uiso   1.00
H628   H     0.18580   0.18778   0.88826   0.00000  Uiso   1.00
H629   H     0.28354   0.20253   0.60605   0.00000  Uiso   1.00
H630   H     0.04286   0.15179   0.89950   0.00000  Uiso   1.00
H631   H     0.01564   0.14934   0.98409   0.00000  Uiso   1.00
H632   H     0.30434   0.22425   0.52546   0.00000  Uiso   1.00
H633   H     0.09403   0.16404   0.59116   0.00000  Uiso   1.00
H634   H     0.22032   0.22412   0.92189   0.00000  Uiso   1.00
H635   H     0.23494   0.29570   0.76079   0.00000  Uiso   1.00
H636   H     0.09843   0.03763   0.73912   0.00000  Uiso   1.00
H637   H     0.23513   0.03729   0.76049   0.00000  Uiso   1.00
H638   H     0.09824   0.29603   0.73941   0.00000  Uiso   1.00
H639   H     0.06358   0.12039   0.69759   0.00000  Uiso   1.00
H640   H     0.26977   0.21295   0.80242   0.00000  Uiso   1.00
N641   N     0.04759   0.16668   0.75001   0.00000  Uiso   1.00
N642   N     0.28574   0.16666   0.74999   0.00000  Uiso   1.00
O643   O     0.12846   0.22775   0.75001   0.00000  Uiso   1.00
O644   O     0.20488   0.10558   0.75000   0.00000  Uiso   1.00
O645   O     0.20490   0.22774   0.75000   0.00000  Uiso   1.00
O646   O     0.12843   0.10559   0.75000   0.00000  Uiso   1.00
O647   O     0.10661   0.16667   0.81613   0.00000  Uiso   1.00
O648   O     0.22672   0.16666   0.68388   0.00000  Uiso   1.00
O649   O     0.18305   0.16666   0.81612   0.00000  Uiso   1.00
O650   O     0.15028   0.16667   0.68388   0.00000  Uiso   1.00
Zn651  Zn    0.11562   0.16667   0.75000   0.00000  Uiso   1.00
Zn652  Zn    0.21771   0.16666   0.75000   0.00000  Uiso   1.00
O653   O     0.02488   0.14940   0.56017   0.00000  Uiso   1.00
H654   H     0.02096   0.14725   0.59325   0.00000  Uiso   1.00
O655   O     0.28951   0.23819   0.95327   0.00000  Uiso   1.00
H656   H     0.29037   0.24734   0.92251   0.00000  Uiso   1.00
C657   C     0.31014   0.11305   0.68976   0.00000  Uiso   1.00
N658   N     0.30131   0.09058   0.66481   0.00000  Uiso   1.00
C659   C     0.02319   0.21993   0.81054   0.00000  Uiso   1.00
N660   N     0.03215   0.24214   0.83563   0.00000  Uiso   1.00
C661   C     0.49994   0.24669   0.75008   0.00000  Uiso   1.00
C662   C     0.50007   0.08664   0.74990   0.00000  Uiso   1.00
C663   C     0.43976   0.16791   0.55395   0.00000  Uiso   1.00
C664   C     0.54528   0.21119   0.95605   0.00000  Uiso   1.00
C665   C     0.40510   0.16223   0.53385   0.00000  Uiso   1.00
C666   C     0.57953   0.21761   0.97661   0.00000  Uiso   1.00
C667   C     0.53843   0.31194   0.75593   0.00000  Uiso   1.00
C668   C     0.46161   0.02138   0.74398   0.00000  Uiso   1.00
C669   C     0.53856   0.02119   0.75576   0.00000  Uiso   1.00
C670   C     0.46148   0.31213   0.74415   0.00000  Uiso   1.00
C671   C     0.50013   0.04248   0.74983   0.00000  Uiso   1.00
C672   C     0.49990   0.29085   0.75010   0.00000  Uiso   1.00
C673   C     0.65459   0.14084   0.72077   0.00000  Uiso   1.00
C674   C     0.34540   0.19243   0.77930   0.00000  Uiso   1.00
C675   C     0.36915   0.14093   0.72082   0.00000  Uiso   1.00
C676   C     0.63086   0.19241   0.77918   0.00000  Uiso   1.00
C677   C     0.46944   0.16730   0.83802   0.00000  Uiso   1.00
C678   C     0.53052   0.16708   0.66202   0.00000  Uiso   1.00
C679   C     0.45001   0.16987   0.88876   0.00000  Uiso   1.00
C680   C     0.54897   0.17366   0.61191   0.00000  Uiso   1.00
C681   C     0.38613   0.15876   0.96406   0.00000  Uiso   1.00
C682   C     0.60353   0.20819   0.54301   0.00000  Uiso   1.00
C683   C     0.40152   0.16008   0.91574   0.00000  Uiso   1.00
C684   C     0.59245   0.19492   0.58859   0.00000  Uiso   1.00
C685   C     0.48179   0.18131   0.91023   0.00000  Uiso   1.00
C686   C     0.51744   0.16508   0.58941   0.00000  Uiso   1.00
C687   C     0.46706   0.18118   0.95865   0.00000  Uiso   1.00
C688   C     0.52470   0.18243   0.54615   0.00000  Uiso   1.00
C689   C     0.41903   0.16769   0.98582   0.00000  Uiso   1.00
C690   C     0.56968   0.20260   0.52153   0.00000  Uiso   1.00
C691   C     0.50040   0.19084   0.98007   0.00000  Uiso   1.00
C692   C     0.48829   0.17990   0.52704   0.00000  Uiso   1.00
H693   H     0.48639   0.14559   0.60721   0.00000  Uiso   1.00
H694   H     0.51914   0.18778   0.88826   0.00000  Uiso   1.00
H695   H     0.61687   0.20253   0.60605   0.00000  Uiso   1.00
H696   H     0.37619   0.15179   0.89950   0.00000  Uiso   1.00
H697   H     0.34897   0.14934   0.98409   0.00000  Uiso   1.00
H698   H     0.63767   0.22425   0.52546   0.00000  Uiso   1.00
H699   H     0.42736   0.16404   0.59116   0.00000  Uiso   1.00
H700   H     0.55365   0.22412   0.92189   0.00000  Uiso   1.00
H701   H     0.56828   0.29570   0.76079   0.00000  Uiso   1.00
H702   H     0.43177   0.03763   0.73912   0.00000  Uiso   1.00
H703   H     0.56847   0.03729   0.76049   0.00000  Uiso   1.00
H704   H     0.43158   0.29603   0.73941   0.00000  Uiso   1.00
H705   H     0.39691   0.12039   0.69759   0.00000  Uiso   1.00
H706   H     0.60310   0.21295   0.80242   0.00000  Uiso   1.00
N707   N     0.38093   0.16668   0.75001   0.00000  Uiso   1.00
N708   N     0.61907   0.16666   0.74999   0.00000  Uiso   1.00
O709   O     0.46179   0.22775   0.75001   0.00000  Uiso   1.00
O710   O     0.53821   0.10558   0.75000   0.00000  Uiso   1.00
O711   O     0.53823   0.22774   0.75000   0.00000  Uiso   1.00
O712   O     0.46177   0.10559   0.75000   0.00000  Uiso   1.00
O713   O     0.43994   0.16667   0.81613   0.00000  Uiso   1.00
O714   O     0.56006   0.16666   0.68388   0.00000  Uiso   1.00
O715   O     0.51639   0.16666   0.81612   0.00000  Uiso   1.00
O716   O     0.48361   0.16667   0.68388   0.00000  Uiso   1.00
Zn717  Zn    0.44896   0.16667   0.75000   0.00000  Uiso   1.00
Zn718  Zn    0.55104   0.16666   0.75000   0.00000  Uiso   1.00
O719   O     0.35821   0.14940   0.56017   0.00000  Uiso   1.00
H720   H     0.35429   0.14725   0.59325   0.00000  Uiso   1.00
O721   O     0.62285   0.23819   0.95327   0.00000  Uiso   1.00
H722   H     0.62371   0.24734   0.92251   0.00000  Uiso   1.00
C723   C     0.64347   0.11305   0.68976   0.00000  Uiso   1.00
N724   N     0.63464   0.09058   0.66481   0.00000  Uiso   1.00
C725   C     0.35652   0.21993   0.81054   0.00000  Uiso   1.00
N726   N     0.36548   0.24214   0.83563   0.00000  Uiso   1.00
C727   C     0.83327   0.24669   0.75008   0.00000  Uiso   1.00
C728   C     0.83341   0.08664   0.74990   0.00000  Uiso   1.00
C729   C     0.77310   0.16791   0.55395   0.00000  Uiso   1.00
C730   C     0.87862   0.21119   0.95605   0.00000  Uiso   1.00
C731   C     0.73843   0.16223   0.53385   0.00000  Uiso   1.00
C732   C     0.91286   0.21761   0.97661   0.00000  Uiso   1.00
C733   C     0.87177   0.31194   0.75593   0.00000  Uiso   1.00
C734   C     0.79494   0.02138   0.74398   0.00000  Uiso   1.00
C735   C     0.87189   0.02119   0.75576   0.00000  Uiso   1.00
C736   C     0.79482   0.31213   0.74415   0.00000  Uiso   1.00
C737   C     0.83346   0.04248   0.74983   0.00000  Uiso   1.00
C738   C     0.83324   0.29085   0.75010   0.00000  Uiso   1.00
C739   C     0.98792   0.14084   0.72077   0.00000  Uiso   1.00
C740   C     0.67873   0.19243   0.77930   0.00000  Uiso   1.00
C741   C     0.70248   0.14093   0.72082   0.00000  Uiso   1.00
C742   C     0.96419   0.19241   0.77918   0.00000  Uiso   1.00
C743   C     0.80277   0.16730   0.83802   0.00000  Uiso   1.00
C744   C     0.86385   0.16708   0.66202   0.00000  Uiso   1.00
C745   C     0.78335   0.16987   0.88876   0.00000  Uiso   1.00
C746   C     0.88230   0.17366   0.61191   0.00000  Uiso   1.00
C747   C     0.71946   0.15876   0.96406   0.00000  Uiso   1.00
C748   C     0.93686   0.20819   0.54301   0.00000  Uiso   1.00
C749   C     0.73485   0.16008   0.91574   0.00000  Uiso   1.00
C750   C     0.92579   0.19492   0.58859   0.00000  Uiso   1.00
C751   C     0.81513   0.18131   0.91023   0.00000  Uiso   1.00
C752   C     0.85078   0.16508   0.58941   0.00000  Uiso   1.00
C753   C     0.80040   0.18118   0.95865   0.00000  Uiso   1.00
C754   C     0.85804   0.18243   0.54615   0.00000  Uiso   1.00
C755   C     0.75236   0.16769   0.98582   0.00000  Uiso   1.00
C756   C     0.90301   0.20260   0.52153   0.00000  Uiso   1.00
C757   C     0.83373   0.19084   0.98007   0.00000  Uiso   1.00
C758   C     0.82162   0.17990   0.52704   0.00000  Uiso   1.00
H759   H     0.81972   0.14559   0.60721   0.00000  Uiso   1.00
H760   H     0.85247   0.18778   0.88826   0.00000  Uiso   1.00
H761   H     0.95021   0.20253   0.60605   0.00000  Uiso   1.00
H762   H     0.70953   0.15179   0.89950   0.00000  Uiso   1.00
H763   H     0.68230   0.14934   0.98409   0.00000  Uiso   1.00
H764   H     0.97101   0.22425   0.52546   0.00000  Uiso   1.00
H765   H     0.76070   0.16404   0.59116   0.00000  Uiso   1.00
H766   H     0.88699   0.22412   0.92189   0.00000  Uiso   1.00
H767   H     0.90161   0.29570   0.76079   0.00000  Uiso   1.00
H768   H     0.76510   0.03763   0.73912   0.00000  Uiso   1.00
H769   H     0.90180   0.03729   0.76049   0.00000  Uiso   1.00
H770   H     0.76491   0.29603   0.73941   0.00000  Uiso   1.00
H771   H     0.73024   0.12039   0.69759   0.00000  Uiso   1.00
H772   H     0.93644   0.21295   0.80242   0.00000  Uiso   1.00
N773   N     0.71426   0.16668   0.75001   0.00000  Uiso   1.00
N774   N     0.95241   0.16666   0.74999   0.00000  Uiso   1.00
O775   O     0.79512   0.22775   0.75001   0.00000  Uiso   1.00
O776   O     0.87154   0.10558   0.75000   0.00000  Uiso   1.00
O777   O     0.87157   0.22774   0.75000   0.00000  Uiso   1.00
O778   O     0.79510   0.10559   0.75000   0.00000  Uiso   1.00
O779   O     0.77328   0.16667   0.81613   0.00000  Uiso   1.00
O780   O     0.89339   0.16666   0.68388   0.00000  Uiso   1.00
O781   O     0.84972   0.16666   0.81612   0.00000  Uiso   1.00
O782   O     0.81695   0.16667   0.68388   0.00000  Uiso   1.00
Zn783  Zn    0.78229   0.16667   0.75000   0.00000  Uiso   1.00
Zn784  Zn    0.88438   0.16666   0.75000   0.00000  Uiso   1.00
O785   O     0.69155   0.14940   0.56017   0.00000  Uiso   1.00
H786   H     0.68763   0.14725   0.59325   0.00000  Uiso   1.00
O787   O     0.95618   0.23819   0.95327   0.00000  Uiso   1.00
H788   H     0.95704   0.24734   0.92251   0.00000  Uiso   1.00
C789   C     0.97680   0.11305   0.68976   0.00000  Uiso   1.00
N790   N     0.96797   0.09058   0.66481   0.00000  Uiso   1.00
C791   C     0.68986   0.21993   0.81054   0.00000  Uiso   1.00
N792   N     0.69882   0.24214   0.83563   0.00000  Uiso   1.00
C793   C     0.16660   0.58002   0.75008   0.00000  Uiso   1.00
C794   C     0.16674   0.41998   0.74990   0.00000  Uiso   1.00
C795   C     0.10643   0.50125   0.55395   0.00000  Uiso   1.00
C796   C     0.21195   0.54452   0.95605   0.00000  Uiso   1.00
C797   C     0.07176   0.49556   0.53385   0.00000  Uiso   1.00
C798   C     0.24619   0.55095   0.97661   0.00000  Uiso   1.00
C799   C     0.20510   0.64528   0.75593   0.00000  Uiso   1.00
C800   C     0.12828   0.35472   0.74398   0.00000  Uiso   1.00
C801   C     0.20523   0.35453   0.75576   0.00000  Uiso   1.00
C802   C     0.12815   0.64547   0.74415   0.00000  Uiso   1.00
C803   C     0.16679   0.37581   0.74983   0.00000  Uiso   1.00
C804   C     0.16657   0.62418   0.75010   0.00000  Uiso   1.00
C805   C     0.32126   0.47417   0.72077   0.00000  Uiso   1.00
C806   C     0.01207   0.52576   0.77930   0.00000  Uiso   1.00
C807   C     0.03582   0.47426   0.72082   0.00000  Uiso   1.00
C808   C     0.29753   0.52575   0.77918   0.00000  Uiso   1.00
C809   C     0.13610   0.50063   0.83802   0.00000  Uiso   1.00
C810   C     0.19719   0.50041   0.66202   0.00000  Uiso   1.00
C811   C     0.11668   0.50321   0.88876   0.00000  Uiso   1.00
C812   C     0.21564   0.50699   0.61191   0.00000  Uiso   1.00
C813   C     0.05280   0.49210   0.96406   0.00000  Uiso   1.00
C814   C     0.27019   0.54153   0.54301   0.00000  Uiso   1.00
C815   C     0.06818   0.49342   0.91574   0.00000  Uiso   1.00
C816   C     0.25912   0.52826   0.58859   0.00000  Uiso   1.00
C817   C     0.14846   0.51464   0.91023   0.00000  Uiso   1.00
C818   C     0.18411   0.49842   0.58941   0.00000  Uiso   1.00
C819   C     0.13373   0.51451   0.95865   0.00000  Uiso   1.00
C820   C     0.19137   0.51577   0.54615   0.00000  Uiso   1.00
C821   C     0.08570   0.50102   0.98582   0.00000  Uiso   1.00
C822   C     0.23634   0.53593   0.52153   0.00000  Uiso   1.00
C823   C     0.16707   0.52417   0.98007   0.00000  Uiso   1.00
C824   C     0.15496   0.51323   0.52704   0.00000  Uiso   1.00
H825   H     0.15306   0.47893   0.60721   0.00000  Uiso   1.00
H826   H     0.18580   0.52111   0.88826   0.00000  Uiso   1.00
H827   H     0.28354   0.53586   0.60605   0.00000  Uiso   1.00
H828   H     0.04286   0.48513   0.89950   0.00000  Uiso   1.00
H829   H     0.01564   0.48267   0.98409   0.00000  Uiso   1.00
H830   H     0.30434   0.55758   0.52546   0.00000  Uiso   1.00
H831   H     0.09403   0.49737   0.59116   0.00000  Uiso   1.00
H832   H     0.22032   0.55746   0.92189   0.00000  Uiso   1.00
H833   H     0.23494   0.62903   0.76079   0.00000  Uiso   1.00
H834   H     0.09843   0.37096   0.73912   0.00000  Uiso   1.00
H835   H     0.23513   0.37062   0.76049   0.00000  Uiso   1.00
H836   H     0.09824   0.62937   0.73941   0.00000  Uiso   1.00
H837   H     0.06358   0.45372   0.69759   0.00000  Uiso   1.00
H838   H     0.26977   0.54628   0.80242   0.00000  Uiso   1.00
N839   N     0.04759   0.50001   0.75001   0.00000  Uiso   1.00
N840   N     0.28574   0.49999   0.74999   0.00000  Uiso   1.00
O841   O     0.12846   0.56108   0.75001   0.00000  Uiso   1.00
O842   O     0.20488   0.43892   0.75000   0.00000  Uiso   1.00
O843   O     0.20490   0.56107   0.75000   0.00000  Uiso   1.00
O844   O     0.12843   0.43893   0.75000   0.00000  Uiso   1.00
O845   O     0.10661   0.50001   0.81613   0.00000  Uiso   1.00
O846   O     0.22672   0.49999   0.68388   0.00000  Uiso   1.00
O847   O     0.18305   0.50000   0.81612   0.00000  Uiso   1.00
O848   O     0.15028   0.50000   0.68388   0.00000  Uiso   1.00
Zn849  Zn    0.11562   0.50001   0.75000   0.00000  Uiso   1.00
Zn850  Zn    0.21771   0.49999   0.75000   0.00000  Uiso   1.00
O851   O     0.02488   0.48274   0.56017   0.00000  Uiso   1.00
H852   H     0.02096   0.48058   0.59325   0.00000  Uiso   1.00
O853   O     0.28951   0.57153   0.95327   0.00000  Uiso   1.00
H854   H     0.29037   0.58067   0.92251   0.00000  Uiso   1.00
C855   C     0.31014   0.44639   0.68976   0.00000  Uiso   1.00
N856   N     0.30131   0.42391   0.66481   0.00000  Uiso   1.00
C857   C     0.02319   0.55326   0.81054   0.00000  Uiso   1.00
N858   N     0.03215   0.57547   0.83563   0.00000  Uiso   1.00
C859   C     0.49994   0.58002   0.75008   0.00000  Uiso   1.00
C860   C     0.50007   0.41998   0.74990   0.00000  Uiso   1.00
C861   C     0.43976   0.50125   0.55395   0.00000  Uiso   1.00
C862   C     0.54528   0.54452   0.95605   0.00000  Uiso   1.00
C863   C     0.40510   0.49556   0.53385   0.00000  Uiso   1.00
C864   C     0.57953   0.55095   0.97661   0.00000  Uiso   1.00
C865   C     0.53843   0.64528   0.75593   0.00000  Uiso   1.00
C866   C     0.46161   0.35472   0.74398   0.00000  Uiso   1.00
C867   C     0.53856   0.35453   0.75576   0.00000  Uiso   1.00
C868   C     0.46148   0.64547   0.74415   0.00000  Uiso   1.00
C869   C     0.50013   0.37581   0.74983   0.00000  Uiso   1.00
C870   C     0.49990   0.62418   0.75010   0.00000  Uiso   1.00
C871   C     0.65459   0.47417   0.72077   0.00000  Uiso   1.00
C872   C     0.34540   0.52576   0.77930   0.00000  Uiso   1.00
C873   C     0.36915   0.47426   0.72082   0.00000  Uiso   1.00
C874   C     0.63086   0.52575   0.77918   0.00000  Uiso   1.00
C875   C     0.46944   0.50063   0.83802   0.00000  Uiso   1.00
C876   C     0.53052   0.50041   0.66202   0.00000  Uiso   1.00
C877   C     0.45001   0.50321   0.88876   0.00000  Uiso   1.00
C878   C     0.54897   0.50699   0.61191   0.00000  Uiso   1.00
C879   C     0.38613   0.49210   0.96406   0.00000  Uiso   1.00
C880   C     0.60353   0.54153   0.54301   0.00000  Uiso   1.00
C881   C     0.40152   0.49342   0.91574   0.00000  Uiso   1.00
C882   C     0.59245   0.52826   0.58859   0.00000  Uiso   1.00
C883   C     0.48179   0.51464   0.91023   0.00000  Uiso   1.00
C884   C     0.51744   0.49842   0.58941   0.00000  Uiso   1.00
C885   C     0.46706   0.51451   0.95865   0.00000  Uiso   1.00
C886   C     0.52470   0.51577   0.54615   0.00000  Uiso   1.00
C887   C     0.41903   0.50102   0.98582   0.00000  Uiso   1.00
C888   C     0.56968   0.53593   0.52153   0.00000  Uiso   1.00
C889   C     0.50040   0.52417   0.98007   0.00000  Uiso   1.00
C890   C     0.48829   0.51323   0.52704   0.00000  Uiso   1.00
H891   H     0.48639   0.47893   0.60721   0.00000  Uiso   1.00
H892   H     0.51914   0.52111   0.88826   0.00000  Uiso   1.00
H893   H     0.61687   0.53586   0.60605   0.00000  Uiso   1.00
H894   H     0.37619   0.48513   0.89950   0.00000  Uiso   1.00
H895   H     0.34897   0.48267   0.98409   0.00000  Uiso   1.00
H896   H     0.63767   0.55758   0.52546   0.00000  Uiso   1.00
H897   H     0.42736   0.49737   0.59116   0.00000  Uiso   1.00
H898   H     0.55365   0.55746   0.92189   0.00000  Uiso   1.00
H899   H     0.56828   0.62903   0.76079   0.00000  Uiso   1.00
H900   H     0.43177   0.37096   0.73912   0.00000  Uiso   1.00
H901   H     0.56847   0.37062   0.76049   0.00000  Uiso   1.00
H902   H     0.43158   0.62937   0.73941   0.00000  Uiso   1.00
H903   H     0.39691   0.45372   0.69759   0.00000  Uiso   1.00
H904   H     0.60310   0.54628   0.80242   0.00000  Uiso   1.00
N905   N     0.38093   0.50001   0.75001   0.00000  Uiso   1.00
N906   N     0.61907   0.49999   0.74999   0.00000  Uiso   1.00
O907   O     0.46179   0.56108   0.75001   0.00000  Uiso   1.00
O908   O     0.53821   0.43892   0.75000   0.00000  Uiso   1.00
O909   O     0.53823   0.56107   0.75000   0.00000  Uiso   1.00
O910   O     0.46177   0.43893   0.75000   0.00000  Uiso   1.00
O911   O     0.43994   0.50001   0.81613   0.00000  Uiso   1.00
O912   O     0.56006   0.49999   0.68388   0.00000  Uiso   1.00
O913   O     0.51639   0.50000   0.81612   0.00000  Uiso   1.00
O914   O     0.48361   0.50000   0.68388   0.00000  Uiso   1.00
Zn915  Zn    0.44896   0.50001   0.75000   0.00000  Uiso   1.00
Zn916  Zn    0.55104   0.49999   0.75000   0.00000  Uiso   1.00
O917   O     0.35821   0.48274   0.56017   0.00000  Uiso   1.00
H918   H     0.35429   0.48058   0.59325   0.00000  Uiso   1.00
O919   O     0.62285   0.57153   0.95327   0.00000  Uiso   1.00
H920   H     0.62371   0.58067   0.92251   0.00000  Uiso   1.00
C921   C     0.64347   0.44639   0.68976   0.00000  Uiso   1.00
N922   N     0.63464   0.42391   0.66481   0.00000  Uiso   1.00
C923   C     0.35652   0.55326   0.81054   0.00000  Uiso   1.00
N924   N     0.36548   0.57547   0.83563   0.00000  Uiso   1.00
C925   C     0.83327   0.58002   0.75008   0.00000  Uiso   1.00
C926   C     0.83341   0.41998   0.74990   0.00000  Uiso   1.00
C927   C     0.77310   0.50125   0.55395   0.00000  Uiso   1.00
C928   C     0.87862   0.54452   0.95605   0.00000  Uiso   1.00
C929   C     0.73843   0.49556   0.53385   0.00000  Uiso   1.00
C930   C     0.91286   0.55095   0.97661   0.00000  Uiso   1.00
C931   C     0.87177   0.64528   0.75593   0.00000  Uiso   1.00
C932   C     0.79494   0.35472   0.74398   0.00000  Uiso   1.00
C933   C     0.87189   0.35453   0.75576   0.00000  Uiso   1.00
C934   C     0.79482   0.64547   0.74415   0.00000  Uiso   1.00
C935   C     0.83346   0.37581   0.74983   0.00000  Uiso   1.00
C936   C     0.83324   0.62418   0.75010   0.00000  Uiso   1.00
C937   C     0.98792   0.47417   0.72077   0.00000  Uiso   1.00
C938   C     0.67873   0.52576   0.77930   0.00000  Uiso   1.00
C939   C     0.70248   0.47426   0.72082   0.00000  Uiso   1.00
C940   C     0.96419   0.52575   0.77918   0.00000  Uiso   1.00
C941   C     0.80277   0.50063   0.83802   0.00000  Uiso   1.00
C942   C     0.86385   0.50041   0.66202   0.00000  Uiso   1.00
C943   C     0.78335   0.50321   0.88876   0.00000  Uiso   1.00
C944   C     0.88230   0.50699   0.61191   0.00000  Uiso   1.00
C945   C     0.71946   0.49210   0.96406   0.00000  Uiso   1.00
C946   C     0.93686   0.54153   0.54301   0.00000  Uiso   1.00
C947   C     0.73485   0.49342   0.91574   0.00000  Uiso   1.00
C948   C     0.92579   0.52826   0.58859   0.00000  Uiso   1.00
C949   C     0.81513   0.51464   0.91023   0.00000  Uiso   1.00
C950   C     0.85078   0.49842   0.58941   0.00000  Uiso   1.00
C951   C     0.80040   0.51451   0.95865   0.00000  Uiso   1.00
C952   C     0.85804   0.51577   0.54615   0.00000  Uiso   1.00
C953   C     0.75236   0.50102   0.98582   0.00000  Uiso   1.00
C954   C     0.90301   0.53593   0.52153   0.00000  Uiso   1.00
C955   C     0.83373   0.52417   0.98007   0.00000  Uiso   1.00
C956   C     0.82162   0.51323   0.52704   0.00000  Uiso   1.00
H957   H     0.81972   0.47893   0.60721   0.00000  Uiso   1.00
H958   H     0.85247   0.52111   0.88826   0.00000  Uiso   1.00
H959   H     0.95021   0.53586   0.60605   0.00000  Uiso   1.00
H960   H     0.70953   0.48513   0.89950   0.00000  Uiso   1.00
H961   H     0.68230   0.48267   0.98409   0.00000  Uiso   1.00
H962   H     0.97101   0.55758   0.52546   0.00000  Uiso   1.00
H963   H     0.76070   0.49737   0.59116   0.00000  Uiso   1.00
H964   H     0.88699   0.55746   0.92189   0.00000  Uiso   1.00
H965   H     0.90161   0.62903   0.76079   0.00000  Uiso   1.00
H966   H     0.76510   0.37096   0.73912   0.00000  Uiso   1.00
H967   H     0.90180   0.37062   0.76049   0.00000  Uiso   1.00
H968   H     0.76491   0.62937   0.73941   0.00000  Uiso   1.00
H969   H     0.73024   0.45372   0.69759   0.00000  Uiso   1.00
H970   H     0.93644   0.54628   0.80242   0.00000  Uiso   1.00
N971   N     0.71426   0.50001   0.75001   0.00000  Uiso   1.00
N972   N     0.95241   0.49999   0.74999   0.00000  Uiso   1.00
O973   O     0.79512   0.56108   0.75001   0.00000  Uiso   1.00
O974   O     0.87154   0.43892   0.75000   0.00000  Uiso   1.00
O975   O     0.87157   0.56107   0.75000   0.00000  Uiso   1.00
O976   O     0.79510   0.43893   0.75000   0.00000  Uiso   1.00
O977   O     0.77328   0.50001   0.81613   0.00000  Uiso   1.00
O978   O     0.89339   0.49999   0.68388   0.00000  Uiso   1.00
O979   O     0.84972   0.50000   0.81612   0.00000  Uiso   1.00
O980   O     0.81695   0.50000   0.68388   0.00000  Uiso   1.00
Zn981  Zn    0.78229   0.50001   0.75000   0.00000  Uiso   1.00
Zn982  Zn    0.88438   0.49999   0.75000   0.00000  Uiso   1.00
O983   O     0.69155   0.48274   0.56017   0.00000  Uiso   1.00
H984   H     0.68763   0.48058   0.59325   0.00000  Uiso   1.00
O985   O     0.95618   0.57153   0.95327   0.00000  Uiso   1.00
H986   H     0.95704   0.58067   0.92251   0.00000  Uiso   1.00
C987   C     0.97680   0.44639   0.68976   0.00000  Uiso   1.00
N988   N     0.96797   0.42391   0.66481   0.00000  Uiso   1.00
C989   C     0.68986   0.55326   0.81054   0.00000  Uiso   1.00
N990   N     0.69882   0.57547   0.83563   0.00000  Uiso   1.00
C991   C     0.16660   0.91336   0.75008   0.00000  Uiso   1.00
C992   C     0.16674   0.75331   0.74990   0.00000  Uiso   1.00
C993   C     0.10643   0.83458   0.55395   0.00000  Uiso   1.00
C994   C     0.21195   0.87786   0.95605   0.00000  Uiso   1.00
C995   C     0.07176   0.82890   0.53385   0.00000  Uiso   1.00
C996   C     0.24619   0.88428   0.97661   0.00000  Uiso   1.00
C997   C     0.20510   0.97861   0.75593   0.00000  Uiso   1.00
C998   C     0.12828   0.68805   0.74398   0.00000  Uiso   1.00
C999   C     0.20523   0.68786   0.75576   0.00000  Uiso   1.00
C1000  C     0.12815   0.97880   0.74415   0.00000  Uiso   1.00
C1001  C     0.16679   0.70914   0.74983   0.00000  Uiso   1.00
C1002  C     0.16657   0.95752   0.75010   0.00000  Uiso   1.00
C1003  C     0.32126   0.80751   0.72077   0.00000  Uiso   1.00
C1004  C     0.01207   0.85910   0.77930   0.00000  Uiso   1.00
C1005  C     0.03582   0.80760   0.72082   0.00000  Uiso   1.00
C1006  C     0.29753   0.85908   0.77918   0.00000  Uiso   1.00
C1007  C     0.13610   0.83397   0.83802   0.00000  Uiso   1.00
C1008  C     0.19719   0.83374   0.66202   0.00000  Uiso   1.00
C1009  C     0.11668   0.83654   0.88876   0.00000  Uiso   1.00
C1010  C     0.21564   0.84033   0.61191   0.00000  Uiso   1.00
C1011  C     0.05280   0.82543   0.96406   0.00000  Uiso   1.00
C1012  C     0.27019   0.87486   0.54301   0.00000  Uiso   1.00
C1013  C     0.06818   0.82675   0.91574   0.00000  Uiso   1.00
C1014  C     0.25912   0.86159   0.58859   0.00000  Uiso   1.00
C1015  C     0.14846   0.84798   0.91023   0.00000  Uiso   1.00
C1016  C     0.18411   0.83175   0.58941   0.00000  Uiso   1.00
C1017  C     0.13373   0.84785   0.95865   0.00000  Uiso   1.00
C1018  C     0.19137   0.84910   0.54615   0.00000  Uiso   1.00
C1019  C     0.08570   0.83435   0.98582   0.00000  Uiso   1.00
C1020  C     0.23634   0.86926   0.52153   0.00000  Uiso   1.00
C1021  C     0.16707   0.85751   0.98007   0.00000  Uiso   1.00
C1022  C     0.15496   0.84657   0.52704   0.00000  Uiso   1.00
H1023  H     0.15306   0.81226   0.60721   0.00000  Uiso   1.00
H1024  H     0.18580   0.85444   0.88826   0.00000  Uiso   1.00
H1025  H     0.28354   0.86919   0.60605   0.00000  Uiso   1.00
H1026  H     0.04286   0.81846   0.89950   0.00000  Uiso   1.00
H1027  H     0.01564   0.81601   0.98409   0.00000  Uiso   1.00
H1028  H     0.30434   0.89092   0.52546   0.00000  Uiso   1.00
H1029  H     0.09403   0.83070   0.59116   0.00000  Uiso   1.00
H1030  H     0.22032   0.89079   0.92189   0.00000  Uiso   1.00
H1031  H     0.23494   0.96237   0.76079   0.00000  Uiso   1.00
H1032  H     0.09843   0.70429   0.73912   0.00000  Uiso   1.00
H1033  H     0.23513   0.70396   0.76049   0.00000  Uiso   1.00
H1034  H     0.09824   0.96270   0.73941   0.00000  Uiso   1.00
H1035  H     0.06358   0.78706   0.69759   0.00000  Uiso   1.00
H1036  H     0.26977   0.87961   0.80242   0.00000  Uiso   1.00
N1037  N     0.04759   0.83334   0.75001   0.00000  Uiso   1.00
N1038  N     0.28574   0.83332   0.74999   0.00000  Uiso   1.00
O1039  O     0.12846   0.89442   0.75001   0.00000  Uiso   1.00
O1040  O     0.20488   0.77225   0.75000   0.00000  Uiso   1.00
O1041  O     0.20490   0.89441   0.75000   0.00000  Uiso   1.00
O1042  O     0.12843   0.77226   0.75000   0.00000  Uiso   1.00
O1043  O     0.10661   0.83334   0.81613   0.00000  Uiso   1.00
O1044  O     0.22672   0.83333   0.68388   0.00000  Uiso   1.00
O1045  O     0.18305   0.83333   0.81612   0.00000  Uiso   1.00
O1046  O     0.15028   0.83334   0.68388   0.00000  Uiso   1.00
Zn1047 Zn    0.11562   0.83334   0.75000   0.00000  Uiso   1.00
Zn1048 Zn    0.21771   0.83333   0.75000   0.00000  Uiso   1.00
O1049  O     0.02488   0.81607   0.56017   0.00000  Uiso   1.00
H1050  H     0.02096   0.81392   0.59325   0.00000  Uiso   1.00
O1051  O     0.28951   0.90486   0.95327   0.00000  Uiso   1.00
H1052  H     0.29037   0.91400   0.92251   0.00000  Uiso   1.00
C1053  C     0.31014   0.77972   0.68976   0.00000  Uiso   1.00
N1054  N     0.30131   0.75724   0.66481   0.00000  Uiso   1.00
C1055  C     0.02319   0.88660   0.81054   0.00000  Uiso   1.00
N1056  N     0.03215   0.90881   0.83563   0.00000  Uiso   1.00
C1057  C     0.49994   0.91336   0.75008   0.00000  Uiso   1.00
C1058  C     0.50007   0.75331   0.74990   0.00000  Uiso   1.00
C1059  C     0.43976   0.83458   0.55395   0.00000  Uiso   1.00
C1060  C     0.54528   0.87786   0.95605   0.00000  Uiso   1.00
C1061  C     0.40510   0.82890   0.53385   0.00000  Uiso   1.00
C1062  C     0.57953   0.88428   0.97661   0.00000  Uiso   1.00
C1063  C     0.53843   0.97861   0.75593   0.00000  Uiso   1.00
C1064  C     0.46161   0.68805   0.74398   0.00000  Uiso   1.00
C1065  C     0.53856   0.68786   0.75576   0.00000  Uiso   1.00
C1066  C     0.46148   0.97880   0.74415   0.00000  Uiso   1.00
C1067  C     0.50013   0.70914   0.74983   0.00000  Uiso   1.00
C1068  C     0.49990   0.95752   0.75010   0.00000  Uiso   1.00
C1069  C     0.65459   0.80751   0.72077   0.00000  Uiso   1.00
C1070  C     0.34540   0.85910   0.77930   0.00000  Uiso   1.00
C1071  C     0.36915   0.80760   0.72082   0.00000  Uiso   1.00
C1072  C     0.63086   0.85908   0.77918   0.00000  Uiso   1.00
C1073  C     0.46944   0.83397   0.83802   0.00000  Uiso   1.00
C1074  C     0.53052   0.83374   0.66202   0.00000  Uiso   1.00
C1075  C     0.45001   0.83654   0.88876   0.00000  Uiso   1.00
C1076  C     0.54897   0.84033   0.61191   0.00000  Uiso   1.00
C1077  C     0.38613   0.82543   0.96406   0.00000  Uiso   1.00
C1078  C     0.60353   0.87486   0.54301   0.00000  Uiso   1.00
C1079  C     0.40152   0.82675   0.91574   0.00000  Uiso   1.00
C1080  C     0.59245   0.86159   0.58859   0.00000  Uiso   1.00
C1081  C     0.48179   0.84798   0.91023   0.00000  Uiso   1.00
C1082  C     0.51744   0.83175   0.58941   0.00000  Uiso   1.00
C1083  C     0.46706   0.84785   0.95865   0.00000  Uiso   1.00
C1084  C     0.52470   0.84910   0.54615   0.00000  Uiso   1.00
C1085  C     0.41903   0.83435   0.98582   0.00000  Uiso   1.00
C1086  C     0.56968   0.86926   0.52153   0.00000  Uiso   1.00
C1087  C     0.50040   0.85751   0.98007   0.00000  Uiso   1.00
C1088  C     0.48829   0.84657   0.52704   0.00000  Uiso   1.00
H1089  H     0.48639   0.81226   0.60721   0.00000  Uiso   1.00
H1090  H     0.51914   0.85444   0.88826   0.00000  Uiso   1.00
H1091  H     0.61687   0.86919   0.60605   0.00000  Uiso   1.00
H1092  H     0.37619   0.81846   0.89950   0.00000  Uiso   1.00
H1093  H     0.34897   0.81601   0.98409   0.00000  Uiso   1.00
H1094  H     0.63767   0.89092   0.52546   0.00000  Uiso   1.00
H1095  H     0.42736   0.83070   0.59116   0.00000  Uiso   1.00
H1096  H     0.55365   0.89079   0.92189   0.00000  Uiso   1.00
H1097  H     0.56828   0.96237   0.76079   0.00000  Uiso   1.00
H1098  H     0.43177   0.70429   0.73912   0.00000  Uiso   1.00
H1099  H     0.56847   0.70396   0.76049   0.00000  Uiso   1.00
H1100  H     0.43158   0.96270   0.73941   0.00000  Uiso   1.00
H1101  H     0.39691   0.78706   0.69759   0.00000  Uiso   1.00
H1102  H     0.60310   0.87961   0.80242   0.00000  Uiso   1.00
N1103  N     0.38093   0.83334   0.75001   0.00000  Uiso   1.00
N1104  N     0.61907   0.83332   0.74999   0.00000  Uiso   1.00
O1105  O     0.46179   0.89442   0.75001   0.00000  Uiso   1.00
O1106  O     0.53821   0.77225   0.75000   0.00000  Uiso   1.00
O1107  O     0.53823   0.89441   0.75000   0.00000  Uiso   1.00
O1108  O     0.46177   0.77226   0.75000   0.00000  Uiso   1.00
O1109  O     0.43994   0.83334   0.81613   0.00000  Uiso   1.00
O1110  O     0.56006   0.83333   0.68388   0.00000  Uiso   1.00
O1111  O     0.51639   0.83333   0.81612   0.00000  Uiso   1.00
O1112  O     0.48361   0.83334   0.68388   0.00000  Uiso   1.00
Zn1113 Zn    0.44896   0.83334   0.75000   0.00000  Uiso   1.00
Zn1114 Zn    0.55104   0.83333   0.75000   0.00000  Uiso   1.00
O1115  O     0.35821   0.81607   0.56017   0.00000  Uiso   1.00
H1116  H     0.35429   0.81392   0.59325   0.00000  Uiso   1.00
O1117  O     0.62285   0.90486   0.95327   0.00000  Uiso   1.00
H1118  H     0.62371   0.91400   0.92251   0.00000  Uiso   1.00
C1119  C     0.64347   0.77972   0.68976   0.00000  Uiso   1.00
N1120  N     0.63464   0.75724   0.66481   0.00000  Uiso   1.00
C1121  C     0.35652   0.88660   0.81054   0.00000  Uiso   1.00
N1122  N     0.36548   0.90881   0.83563   0.00000  Uiso   1.00
C1123  C     0.83327   0.91336   0.75008   0.00000  Uiso   1.00
C1124  C     0.83341   0.75331   0.74990   0.00000  Uiso   1.00
C1125  C     0.77310   0.83458   0.55395   0.00000  Uiso   1.00
C1126  C     0.87862   0.87786   0.95605   0.00000  Uiso   1.00
C1127  C     0.73843   0.82890   0.53385   0.00000  Uiso   1.00
C1128  C     0.91286   0.88428   0.97661   0.00000  Uiso   1.00
C1129  C     0.87177   0.97861   0.75593   0.00000  Uiso   1.00
C1130  C     0.79494   0.68805   0.74398   0.00000  Uiso   1.00
C1131  C     0.87189   0.68786   0.75576   0.00000  Uiso   1.00
C1132  C     0.79482   0.97880   0.74415   0.00000  Uiso   1.00
C1133  C     0.83346   0.70914   0.74983   0.00000  Uiso   1.00
C1134  C     0.83324   0.95752   0.75010   0.00000  Uiso   1.00
C1135  C     0.98792   0.80751   0.72077   0.00000  Uiso   1.00
C1136  C     0.67873   0.85910   0.77930   0.00000  Uiso   1.00
C1137  C     0.70248   0.80760   0.72082   0.00000  Uiso   1.00
C1138  C     0.96419   0.85908   0.77918   0.00000  Uiso   1.00
C1139  C     0.80277   0.83397   0.83802   0.00000  Uiso   1.00
C1140  C     0.86385   0.83374   0.66202   0.00000  Uiso   1.00
C1141  C     0.78335   0.83654   0.88876   0.00000  Uiso   1.00
C1142  C     0.88230   0.84033   0.61191   0.00000  Uiso   1.00
C1143  C     0.71946   0.82543   0.96406   0.00000  Uiso   1.00
C1144  C     0.93686   0.87486   0.54301   0.00000  Uiso   1.00
C1145  C     0.73485   0.82675   0.91574   0.00000  Uiso   1.00
C1146  C     0.92579   0.86159   0.58859   0.00000  Uiso   1.00
C1147  C     0.81513   0.84798   0.91023   0.00000  Uiso   1.00
C1148  C     0.85078   0.83175   0.58941   0.00000  Uiso   1.00
C1149  C     0.80040   0.84785   0.95865   0.00000  Uiso   1.00
C1150  C     0.85804   0.84910   0.54615   0.00000  Uiso   1.00
C1151  C     0.75236   0.83435   0.98582   0.00000  Uiso   1.00
C1152  C     0.90301   0.86926   0.52153   0.00000  Uiso   1.00
C1153  C     0.83373   0.85751   0.98007   0.00000  Uiso   1.00
C1154  C     0.82162   0.84657   0.52704   0.00000  Uiso   1.00
H1155  H     0.81972   0.81226   0.60721   0.00000  Uiso   1.00
H1156  H     0.85247   0.85444   0.88826   0.00000  Uiso   1.00
H1157  H     0.95021   0.86919   0.60605   0.00000  Uiso   1.00
H1158  H     0.70953   0.81846   0.89950   0.00000  Uiso   1.00
H1159  H     0.68230   0.81601   0.98409   0.00000  Uiso   1.00
H1160  H     0.97101   0.89092   0.52546   0.00000  Uiso   1.00
H1161  H     0.76070   0.83070   0.59116   0.00000  Uiso   1.00
H1162  H     0.88699   0.89079   0.92189   0.00000  Uiso   1.00
H1163  H     0.90161   0.96237   0.76079   0.00000  Uiso   1.00
H1164  H     0.76510   0.70429   0.73912   0.00000  Uiso   1.00
H1165  H     0.90180   0.70396   0.76049   0.00000  Uiso   1.00
H1166  H     0.76491   0.96270   0.73941   0.00000  Uiso   1.00
H1167  H     0.73024   0.78706   0.69759   0.00000  Uiso   1.00
H1168  H     0.93644   0.87961   0.80242   0.00000  Uiso   1.00
N1169  N     0.71426   0.83334   0.75001   0.00000  Uiso   1.00
N1170  N     0.95241   0.83332   0.74999   0.00000  Uiso   1.00
O1171  O     0.79512   0.89442   0.75001   0.00000  Uiso   1.00
O1172  O     0.87154   0.77225   0.75000   0.00000  Uiso   1.00
O1173  O     0.87157   0.89441   0.75000   0.00000  Uiso   1.00
O1174  O     0.79510   0.77226   0.75000   0.00000  Uiso   1.00
O1175  O     0.77328   0.83334   0.81613   0.00000  Uiso   1.00
O1176  O     0.89339   0.83333   0.68388   0.00000  Uiso   1.00
O1177  O     0.84972   0.83333   0.81612   0.00000  Uiso   1.00
O1178  O     0.81695   0.83334   0.68388   0.00000  Uiso   1.00
Zn1179 Zn    0.78229   0.83334   0.75000   0.00000  Uiso   1.00
Zn1180 Zn    0.88438   0.83333   0.75000   0.00000  Uiso   1.00
O1181  O     0.69155   0.81607   0.56017   0.00000  Uiso   1.00
H1182  H     0.68763   0.81392   0.59325   0.00000  Uiso   1.00
O1183  O     0.95618   0.90486   0.95327   0.00000  Uiso   1.00
H1184  H     0.95704   0.91400   0.92251   0.00000  Uiso   1.00
C1185  C     0.97680   0.77972   0.68976   0.00000  Uiso   1.00
N1186  N     0.96797   0.75724   0.66481   0.00000  Uiso   1.00
C1187  C     0.68986   0.88660   0.81054   0.00000  Uiso   1.00
N1188  N     0.69882   0.90881   0.83563   0.00000  Uiso   1.00
loop_
_geom_bond_atom_site_label_1
_geom_bond_atom_site_label_2
_geom_bond_distance
_geom_bond_site_symmetry_2
_ccdc_geom_bond_type
C1     O51     1.284   .     A
C1     C12     1.420   .     S
C1     O49     1.285   .     A
C2     O52     1.284   .     A
C2     C11     1.420   .     S
C2     O50     1.285   .     A
C3     C5      1.400   .     A
C3     H39     1.078   .     S
C3     C32     1.416   .     A
C4     C6      1.403   .     A
C4     C31     1.417   .     A
C4     H40     1.079   .     S
C5     O59     1.382   .     S
C5     C623    1.399   1_554 S
C6     O61     1.383   .     S
C6     C624    1.400   .     S
C7     C12     1.398   .     A
C7     H41     1.084   .     S
C7     C207    1.370   .     S
C8     C11     1.398   .     A
C8     H42     1.084   .     S
C8     C406    1.370   1_545 S
C9     C11     1.397   .     A
C9     H43     1.084   .     S
C9     C403    1.370   1_545 S
C10    C12     1.397   .     A
C10    H44     1.084   .     S
C10    C206    1.370   .     S
C13    N48     1.371   .     A
C13    C63     1.437   .     S
C13    C81     1.418   .     S
C14    N47     1.371   .     A
C14    C65     1.437   .     S
C14    C148    1.418   1_455 S
C15    N47     1.364   .     A
C15    H45     1.083   .     S
C15    C145    1.418   1_455 S
C16    N48     1.365   .     A
C16    H46     1.083   .     S
C16    C80     1.418   .     S
C17    O55     1.295   .     A
C17    C19     1.458   .     S
C17    O53     1.294   .     A
C18    O56     1.293   .     A
C18    O54     1.294   .     A
C18    C20     1.456   .     S
C19    C23     1.398   .     A
C19    C25     1.393   .     A
C20    C24     1.397   .     A
C20    C26     1.389   .     A
C21    C29     1.409   .     A
C21    H37     1.083   .     S
C21    C23     1.392   .     A
C22    C24     1.394   .     A
C22    C30     1.410   .     A
C22    H38     1.083   .     S
C23    H36     1.083   .     S
C24    H35     1.083   .     S
C25    H34     1.077   .     S
C25    C27     1.396   .     A
C26    H33     1.079   .     S
C26    C28     1.396   .     A
C27    C29     1.420   .     A
C27    C31     1.418   .     A
C28    C30     1.419   .     A
C28    C32     1.416   .     A
C29    C599    1.399   .     S
C30    C600    1.400   1_554 S
C31    C626    1.409   .     S
C32    C625    1.409   1_554 S
N47    Zn57    2.013   .     S
N48    Zn58    2.013   .     S
O49    Zn57    2.002   .     S
O50    Zn58    2.002   .     S
O51    Zn58    1.999   .     S
O52    Zn57    1.999   .     S
O53    Zn57    1.966   .     S
O54    Zn58    1.966   .     S
O55    Zn58    1.914   .     S
O56    Zn57    1.914   .     S
O59    H60     0.991   .     S
O61    H62     0.991   .     S
C63    N64     1.157   .     T
C65    N66     1.157   .     T
C67    O117    1.284   .     A
C67    C78     1.420   .     S
C67    O115    1.285   .     A
C68    O118    1.284   .     A
C68    C77     1.420   .     S
C68    O116    1.285   .     A
C69    C71     1.400   .     A
C69    H105    1.078   .     S
C69    C98     1.416   .     A
C70    C72     1.403   .     A
C70    C97     1.417   .     A
C70    H106    1.079   .     S
C71    O125    1.382   .     S
C71    C689    1.399   1_554 S
C72    O127    1.383   .     S
C72    C690    1.400   .     S
C73    C78     1.398   .     A
C73    H107    1.084   .     S
C73    C273    1.370   .     S
C74    C77     1.398   .     A
C74    H108    1.084   .     S
C74    C472    1.370   1_545 S
C75    C77     1.397   .     A
C75    H109    1.084   .     S
C75    C469    1.370   1_545 S
C76    C78     1.397   .     A
C76    H110    1.084   .     S
C76    C272    1.370   .     S
C79    N114    1.371   .     A
C79    C129    1.437   .     S
C79    C147    1.418   .     S
C80    N113    1.371   .     A
C80    C131    1.437   .     S
C81    N113    1.364   .     A
C81    H111    1.083   .     S
C82    N114    1.365   .     A
C82    H112    1.083   .     S
C82    C146    1.418   .     S
C83    O121    1.295   .     A
C83    C85     1.458   .     S
C83    O119    1.294   .     A
C84    O122    1.293   .     A
C84    O120    1.294   .     A
C84    C86     1.456   .     S
C85    C89     1.398   .     A
C85    C91     1.393   .     A
C86    C90     1.397   .     A
C86    C92     1.389   .     A
C87    C95     1.409   .     A
C87    H103    1.083   .     S
C87    C89     1.392   .     A
C88    C90     1.394   .     A
C88    C96     1.410   .     A
C88    H104    1.083   .     S
C89    H102    1.083   .     S
C90    H101    1.083   .     S
C91    H100    1.077   .     S
C91    C93     1.396   .     A
C92    H99     1.079   .     S
C92    C94     1.396   .     A
C93    C95     1.420   .     A
C93    C97     1.418   .     A
C94    C96     1.419   .     A
C94    C98     1.416   .     A
C95    C665    1.399   .     S
C96    C666    1.400   1_554 S
C97    C692    1.409   .     S
C98    C691    1.409   1_554 S
N113   Zn123   2.013   .     S
N114   Zn124   2.013   .     S
O115   Zn123   2.002   .     S
O116   Zn124   2.002   .     S
O117   Zn124   1.999   .     S
O118   Zn123   1.999   .     S
O119   Zn123   1.966   .     S
O120   Zn124   1.966   .     S
O121   Zn124   1.914   .     S
O122   Zn123   1.914   .     S
O125   H126    0.991   .     S
O127   H128    0.991   .     S
C129   N130    1.157   .     T
C131   N132    1.157   .     T
C133   O183    1.284   .     A
C133   C144    1.420   .     S
C133   O181    1.285   .     A
C134   O184    1.284   .     A
C134   C143    1.420   .     S
C134   O182    1.285   .     A
C135   C137    1.400   .     A
C135   H171    1.078   .     S
C135   C164    1.416   .     A
C136   C138    1.403   .     A
C136   C163    1.417   .     A
C136   H172    1.079   .     S
C137   O191    1.382   .     S
C137   C755    1.399   1_554 S
C138   O193    1.383   .     S
C138   C756    1.400   .     S
C139   C144    1.398   .     A
C139   H173    1.084   .     S
C139   C339    1.370   .     S
C140   C143    1.398   .     A
C140   H174    1.084   .     S
C140   C538    1.370   1_545 S
C141   C143    1.397   .     A
C141   H175    1.084   .     S
C141   C535    1.370   1_545 S
C142   C144    1.397   .     A
C142   H176    1.084   .     S
C142   C338    1.370   .     S
C145   N180    1.371   .     A
C145   C195    1.437   .     S
C145   C15     1.418   1_655 S
C146   N179    1.371   .     A
C146   C197    1.437   .     S
C147   N179    1.364   .     A
C147   H177    1.083   .     S
C148   N180    1.365   .     A
C148   H178    1.083   .     S
C148   C14     1.418   1_655 S
C149   O187    1.295   .     A
C149   C151    1.458   .     S
C149   O185    1.294   .     A
C150   O188    1.293   .     A
C150   O186    1.294   .     A
C150   C152    1.456   .     S
C151   C155    1.398   .     A
C151   C157    1.393   .     A
C152   C156    1.397   .     A
C152   C158    1.389   .     A
C153   C161    1.409   .     A
C153   H169    1.083   .     S
C153   C155    1.392   .     A
C154   C156    1.394   .     A
C154   C162    1.410   .     A
C154   H170    1.083   .     S
C155   H168    1.083   .     S
C156   H167    1.083   .     S
C157   H166    1.077   .     S
C157   C159    1.396   .     A
C158   H165    1.079   .     S
C158   C160    1.396   .     A
C159   C161    1.420   .     A
C159   C163    1.418   .     A
C160   C162    1.419   .     A
C160   C164    1.416   .     A
C161   C731    1.399   .     S
C162   C732    1.400   1_554 S
C163   C758    1.409   .     S
C164   C757    1.409   1_554 S
N179   Zn189   2.013   .     S
N180   Zn190   2.013   .     S
O181   Zn189   2.002   .     S
O182   Zn190   2.002   .     S
O183   Zn190   1.999   .     S
O184   Zn189   1.999   .     S
O185   Zn189   1.966   .     S
O186   Zn190   1.966   .     S
O187   Zn190   1.914   .     S
O188   Zn189   1.914   .     S
O191   H192    0.991   .     S
O193   H194    0.991   .     S
C195   N196    1.157   .     T
C197   N198    1.157   .     T
C199   O249    1.284   .     A
C199   C210    1.420   .     S
C199   O247    1.285   .     A
C200   O250    1.284   .     A
C200   C209    1.420   .     S
C200   O248    1.285   .     A
C201   C203    1.400   .     A
C201   H237    1.078   .     S
C201   C230    1.416   .     A
C202   C204    1.403   .     A
C202   C229    1.417   .     A
C202   H238    1.079   .     S
C203   O257    1.382   .     S
C203   C821    1.399   1_554 S
C204   O259    1.383   .     S
C204   C822    1.400   .     S
C205   C210    1.398   .     A
C205   H239    1.084   .     S
C205   C405    1.370   .     S
C206   C209    1.398   .     A
C206   H240    1.084   .     S
C207   C209    1.397   .     A
C207   H241    1.084   .     S
C208   C210    1.397   .     A
C208   H242    1.084   .     S
C208   C404    1.370   .     S
C211   N246    1.371   .     A
C211   C261    1.437   .     S
C211   C279    1.418   .     S
C212   N245    1.371   .     A
C212   C263    1.437   .     S
C212   C346    1.418   1_455 S
C213   N245    1.364   .     A
C213   H243    1.083   .     S
C213   C343    1.418   1_455 S
C214   N246    1.365   .     A
C214   H244    1.083   .     S
C214   C278    1.418   .     S
C215   O253    1.295   .     A
C215   C217    1.458   .     S
C215   O251    1.294   .     A
C216   O254    1.293   .     A
C216   O252    1.294   .     A
C216   C218    1.456   .     S
C217   C221    1.398   .     A
C217   C223    1.393   .     A
C218   C222    1.397   .     A
C218   C224    1.389   .     A
C219   C227    1.409   .     A
C219   H235    1.083   .     S
C219   C221    1.392   .     A
C220   C222    1.394   .     A
C220   C228    1.410   .     A
C220   H236    1.083   .     S
C221   H234    1.083   .     S
C222   H233    1.083   .     S
C223   H232    1.077   .     S
C223   C225    1.396   .     A
C224   H231    1.079   .     S
C224   C226    1.396   .     A
C225   C227    1.420   .     A
C225   C229    1.418   .     A
C226   C228    1.419   .     A
C226   C230    1.416   .     A
C227   C797    1.399   .     S
C228   C798    1.400   1_554 S
C229   C824    1.409   .     S
C230   C823    1.409   1_554 S
N245   Zn255   2.013   .     S
N246   Zn256   2.013   .     S
O247   Zn255   2.002   .     S
O248   Zn256   2.002   .     S
O249   Zn256   1.999   .     S
O250   Zn255   1.999   .     S
O251   Zn255   1.966   .     S
O252   Zn256   1.966   .     S
O253   Zn256   1.914   .     S
O254   Zn255   1.914   .     S
O257   H258    0.991   .     S
O259   H260    0.991   .     S
C261   N262    1.157   .     T
C263   N264    1.157   .     T
C265   O315    1.284   .     A
C265   C276    1.420   .     S
C265   O313    1.285   .     A
C266   O316    1.284   .     A
C266   C275    1.420   .     S
C266   O314    1.285   .     A
C267   C269    1.400   .     A
C267   H303    1.078   .     S
C267   C296    1.416   .     A
C268   C270    1.403   .     A
C268   C295    1.417   .     A
C268   H304    1.079   .     S
C269   O323    1.382   .     S
C269   C887    1.399   1_554 S
C270   O325    1.383   .     S
C270   C888    1.400   .     S
C271   C276    1.398   .     A
C271   H305    1.084   .     S
C271   C471    1.370   .     S
C272   C275    1.398   .     A
C272   H306    1.084   .     S
C273   C275    1.397   .     A
C273   H307    1.084   .     S
C274   C276    1.397   .     A
C274   H308    1.084   .     S
C274   C470    1.370   .     S
C277   N312    1.371   .     A
C277   C327    1.437   .     S
C277   C345    1.418   .     S
C278   N311    1.371   .     A
C278   C329    1.437   .     S
C279   N311    1.364   .     A
C279   H309    1.083   .     S
C280   N312    1.365   .     A
C280   H310    1.083   .     S
C280   C344    1.418   .     S
C281   O319    1.295   .     A
C281   C283    1.458   .     S
C281   O317    1.294   .     A
C282   O320    1.293   .     A
C282   O318    1.294   .     A
C282   C284    1.456   .     S
C283   C287    1.398   .     A
C283   C289    1.393   .     A
C284   C288    1.397   .     A
C284   C290    1.389   .     A
C285   C293    1.409   .     A
C285   H301    1.083   .     S
C285   C287    1.392   .     A
C286   C288    1.394   .     A
C286   C294    1.410   .     A
C286   H302    1.083   .     S
C287   H300    1.083   .     S
C288   H299    1.083   .     S
C289   H298    1.077   .     S
C289   C291    1.396   .     A
C290   H297    1.079   .     S
C290   C292    1.396   .     A
C291   C293    1.420   .     A
C291   C295    1.418   .     A
C292   C294    1.419   .     A
C292   C296    1.416   .     A
C293   C863    1.399   .     S
C294   C864    1.400   1_554 S
C295   C890    1.409   .     S
C296   C889    1.409   1_554 S
N311   Zn321   2.013   .     S
N312   Zn322   2.013   .     S
O313   Zn321   2.002   .     S
O314   Zn322   2.002   .     S
O315   Zn322   1.999   .     S
O316   Zn321   1.999   .     S
O317   Zn321   1.966   .     S
O318   Zn322   1.966   .     S
O319   Zn322   1.914   .     S
O320   Zn321   1.914   .     S
O323   H324    0.991   .     S
O325   H326    0.991   .     S
C327   N328    1.157   .     T
C329   N330    1.157   .     T
C331   O381    1.284   .     A
C331   C342    1.420   .     S
C331   O379    1.285   .     A
C332   O382    1.284   .     A
C332   C341    1.420   .     S
C332   O380    1.285   .     A
C333   C335    1.400   .     A
C333   H369    1.078   .     S
C333   C362    1.416   .     A
C334   C336    1.403   .     A
C334   C361    1.417   .     A
C334   H370    1.079   .     S
C335   O389    1.382   .     S
C335   C953    1.399   1_554 S
C336   O391    1.383   .     S
C336   C954    1.400   .     S
C337   C342    1.398   .     A
C337   H371    1.084   .     S
C337   C537    1.370   .     S
C338   C341    1.398   .     A
C338   H372    1.084   .     S
C339   C341    1.397   .     A
C339   H373    1.084   .     S
C340   C342    1.397   .     A
C340   H374    1.084   .     S
C340   C536    1.370   .     S
C343   N378    1.371   .     A
C343   C393    1.437   .     S
C343   C213    1.418   1_655 S
C344   N377    1.371   .     A
C344   C395    1.437   .     S
C345   N377    1.364   .     A
C345   H375    1.083   .     S
C346   N378    1.365   .     A
C346   H376    1.083   .     S
C346   C212    1.418   1_655 S
C347   O385    1.295   .     A
C347   C349    1.458   .     S
C347   O383    1.294   .     A
C348   O386    1.293   .     A
C348   O384    1.294   .     A
C348   C350    1.456   .     S
C349   C353    1.398   .     A
C349   C355    1.393   .     A
C350   C354    1.397   .     A
C350   C356    1.389   .     A
C351   C359    1.409   .     A
C351   H367    1.083   .     S
C351   C353    1.392   .     A
C352   C354    1.394   .     A
C352   C360    1.410   .     A
C352   H368    1.083   .     S
C353   H366    1.083   .     S
C354   H365    1.083   .     S
C355   H364    1.077   .     S
C355   C357    1.396   .     A
C356   H363    1.079   .     S
C356   C358    1.396   .     A
C357   C359    1.420   .     A
C357   C361    1.418   .     A
C358   C360    1.419   .     A
C358   C362    1.416   .     A
C359   C929    1.399   .     S
C360   C930    1.400   1_554 S
C361   C956    1.409   .     S
C362   C955    1.409   1_554 S
N377   Zn387   2.013   .     S
N378   Zn388   2.013   .     S
O379   Zn387   2.002   .     S
O380   Zn388   2.002   .     S
O381   Zn388   1.999   .     S
O382   Zn387   1.999   .     S
O383   Zn387   1.966   .     S
O384   Zn388   1.966   .     S
O385   Zn388   1.914   .     S
O386   Zn387   1.914   .     S
O389   H390    0.991   .     S
O391   H392    0.991   .     S
C393   N394    1.157   .     T
C395   N396    1.157   .     T
C397   O447    1.284   .     A
C397   C408    1.420   .     S
C397   O445    1.285   .     A
C398   O448    1.284   .     A
C398   C407    1.420   .     S
C398   O446    1.285   .     A
C399   C401    1.400   .     A
C399   H435    1.078   .     S
C399   C428    1.416   .     A
C400   C402    1.403   .     A
C400   C427    1.417   .     A
C400   H436    1.079   .     S
C401   O455    1.382   .     S
C401   C1019   1.399   1_554 S
C402   O457    1.383   .     S
C402   C1020   1.400   .     S
C403   C408    1.398   .     A
C403   H437    1.084   .     S
C403   C9      1.370   1_565 S
C404   C407    1.398   .     A
C404   H438    1.084   .     S
C405   C407    1.397   .     A
C405   H439    1.084   .     S
C406   C408    1.397   .     A
C406   H440    1.084   .     S
C406   C8      1.370   1_565 S
C409   N444    1.371   .     A
C409   C459    1.437   .     S
C409   C477    1.418   .     S
C410   N443    1.371   .     A
C410   C461    1.437   .     S
C410   C544    1.418   1_455 S
C411   N443    1.364   .     A
C411   H441    1.083   .     S
C411   C541    1.418   1_455 S
C412   N444    1.365   .     A
C412   H442    1.083   .     S
C412   C476    1.418   .     S
C413   O451    1.295   .     A
C413   C415    1.458   .     S
C413   O449    1.294   .     A
C414   O452    1.293   .     A
C414   O450    1.294   .     A
C414   C416    1.456   .     S
C415   C419    1.398   .     A
C415   C421    1.393   .     A
C416   C420    1.397   .     A
C416   C422    1.389   .     A
C417   C425    1.409   .     A
C417   H433    1.083   .     S
C417   C419    1.392   .     A
C418   C420    1.394   .     A
C418   C426    1.410   .     A
C418   H434    1.083   .     S
C419   H432    1.083   .     S
C420   H431    1.083   .     S
C421   H430    1.077   .     S
C421   C423    1.396   .     A
C422   H429    1.079   .     S
C422   C424    1.396   .     A
C423   C425    1.420   .     A
C423   C427    1.418   .     A
C424   C426    1.419   .     A
C424   C428    1.416   .     A
C425   C995    1.399   .     S
C426   C996    1.400   1_554 S
C427   C1022   1.409   .     S
C428   C1021   1.409   1_554 S
N443   Zn453   2.013   .     S
N444   Zn454   2.013   .     S
O445   Zn453   2.002   .     S
O446   Zn454   2.002   .     S
O447   Zn454   1.999   .     S
O448   Zn453   1.999   .     S
O449   Zn453   1.966   .     S
O450   Zn454   1.966   .     S
O451   Zn454   1.914   .     S
O452   Zn453   1.914   .     S
O455   H456    0.991   .     S
O457   H458    0.991   .     S
C459   N460    1.157   .     T
C461   N462    1.157   .     T
C463   O513    1.284   .     A
C463   C474    1.420   .     S
C463   O511    1.285   .     A
C464   O514    1.284   .     A
C464   C473    1.420   .     S
C464   O512    1.285   .     A
C465   C467    1.400   .     A
C465   H501    1.078   .     S
C465   C494    1.416   .     A
C466   C468    1.403   .     A
C466   C493    1.417   .     A
C466   H502    1.079   .     S
C467   O521    1.382   .     S
C467   C1085   1.399   1_554 S
C468   O523    1.383   .     S
C468   C1086   1.400   .     S
C469   C474    1.398   .     A
C469   H503    1.084   .     S
C469   C75     1.370   1_565 S
C470   C473    1.398   .     A
C470   H504    1.084   .     S
C471   C473    1.397   .     A
C471   H505    1.084   .     S
C472   C474    1.397   .     A
C472   H506    1.084   .     S
C472   C74     1.370   1_565 S
C475   N510    1.371   .     A
C475   C525    1.437   .     S
C475   C543    1.418   .     S
C476   N509    1.371   .     A
C476   C527    1.437   .     S
C477   N509    1.364   .     A
C477   H507    1.083   .     S
C478   N510    1.365   .     A
C478   H508    1.083   .     S
C478   C542    1.418   .     S
C479   O517    1.295   .     A
C479   C481    1.458   .     S
C479   O515    1.294   .     A
C480   O518    1.293   .     A
C480   O516    1.294   .     A
C480   C482    1.456   .     S
C481   C485    1.398   .     A
C481   C487    1.393   .     A
C482   C486    1.397   .     A
C482   C488    1.389   .     A
C483   C491    1.409   .     A
C483   H499    1.083   .     S
C483   C485    1.392   .     A
C484   C486    1.394   .     A
C484   C492    1.410   .     A
C484   H500    1.083   .     S
C485   H498    1.083   .     S
C486   H497    1.083   .     S
C487   H496    1.077   .     S
C487   C489    1.396   .     A
C488   H495    1.079   .     S
C488   C490    1.396   .     A
C489   C491    1.420   .     A
C489   C493    1.418   .     A
C490   C492    1.419   .     A
C490   C494    1.416   .     A
C491   C1061   1.399   .     S
C492   C1062   1.400   1_554 S
C493   C1088   1.409   .     S
C494   C1087   1.409   1_554 S
N509   Zn519   2.013   .     S
N510   Zn520   2.013   .     S
O511   Zn519   2.002   .     S
O512   Zn520   2.002   .     S
O513   Zn520   1.999   .     S
O514   Zn519   1.999   .     S
O515   Zn519   1.966   .     S
O516   Zn520   1.966   .     S
O517   Zn520   1.914   .     S
O518   Zn519   1.914   .     S
O521   H522    0.991   .     S
O523   H524    0.991   .     S
C525   N526    1.157   .     T
C527   N528    1.157   .     T
C529   O579    1.284   .     A
C529   C540    1.420   .     S
C529   O577    1.285   .     A
C530   O580    1.284   .     A
C530   C539    1.420   .     S
C530   O578    1.285   .     A
C531   C533    1.400   .     A
C531   H567    1.078   .     S
C531   C560    1.416   .     A
C532   C534    1.403   .     A
C532   C559    1.417   .     A
C532   H568    1.079   .     S
C533   O587    1.382   .     S
C533   C1151   1.399   1_554 S
C534   O589    1.383   .     S
C534   C1152   1.400   .     S
C535   C540    1.398   .     A
C535   H569    1.084   .     S
C535   C141    1.370   1_565 S
C536   C539    1.398   .     A
C536   H570    1.084   .     S
C537   C539    1.397   .     A
C537   H571    1.084   .     S
C538   C540    1.397   .     A
C538   H572    1.084   .     S
C538   C140    1.370   1_565 S
C541   N576    1.371   .     A
C541   C591    1.437   .     S
C541   C411    1.418   1_655 S
C542   N575    1.371   .     A
C542   C593    1.437   .     S
C543   N575    1.364   .     A
C543   H573    1.083   .     S
C544   N576    1.365   .     A
C544   H574    1.083   .     S
C544   C410    1.418   1_655 S
C545   O583    1.295   .     A
C545   C547    1.458   .     S
C545   O581    1.294   .     A
C546   O584    1.293   .     A
C546   O582    1.294   .     A
C546   C548    1.456   .     S
C547   C551    1.398   .     A
C547   C553    1.393   .     A
C548   C552    1.397   .     A
C548   C554    1.389   .     A
C549   C557    1.409   .     A
C549   H565    1.083   .     S
C549   C551    1.392   .     A
C550   C552    1.394   .     A
C550   C558    1.410   .     A
C550   H566    1.083   .     S
C551   H564    1.083   .     S
C552   H563    1.083   .     S
C553   H562    1.077   .     S
C553   C555    1.396   .     A
C554   H561    1.079   .     S
C554   C556    1.396   .     A
C555   C557    1.420   .     A
C555   C559    1.418   .     A
C556   C558    1.419   .     A
C556   C560    1.416   .     A
C557   C1127   1.399   .     S
C558   C1128   1.400   1_554 S
C559   C1154   1.409   .     S
C560   C1153   1.409   1_554 S
N575   Zn585   2.013   .     S
N576   Zn586   2.013   .     S
O577   Zn585   2.002   .     S
O578   Zn586   2.002   .     S
O579   Zn586   1.999   .     S
O580   Zn585   1.999   .     S
O581   Zn585   1.966   .     S
O582   Zn586   1.966   .     S
O583   Zn586   1.914   .     S
O584   Zn585   1.914   .     S
O587   H588    0.991   .     S
O589   H590    0.991   .     S
C591   N592    1.157   .     T
C593   N594    1.157   .     T
C595   O645    1.284   .     A
C595   C606    1.420   .     S
C595   O643    1.285   .     A
C596   O646    1.284   .     A
C596   C605    1.420   .     S
C596   O644    1.285   .     A
C597   C599    1.400   .     A
C597   H633    1.078   .     S
C597   C626    1.416   .     A
C598   C600    1.403   .     A
C598   C625    1.417   .     A
C598   H634    1.079   .     S
C599   O653    1.382   .     S
C600   O655    1.383   .     S
C600   C30     1.400   1_556 S
C601   C606    1.398   .     A
C601   H635    1.084   .     S
C601   C801    1.370   .     S
C602   C605    1.398   .     A
C602   H636    1.084   .     S
C602   C1000   1.370   1_545 S
C603   C605    1.397   .     A
C603   H637    1.084   .     S
C603   C997    1.370   1_545 S
C604   C606    1.397   .     A
C604   H638    1.084   .     S
C604   C800    1.370   .     S
C607   N642    1.371   .     A
C607   C657    1.437   .     S
C607   C675    1.418   .     S
C608   N641    1.371   .     A
C608   C659    1.437   .     S
C608   C742    1.418   1_455 S
C609   N641    1.364   .     A
C609   H639    1.083   .     S
C609   C739    1.418   1_455 S
C610   N642    1.365   .     A
C610   H640    1.083   .     S
C610   C674    1.418   .     S
C611   O649    1.295   .     A
C611   C613    1.458   .     S
C611   O647    1.294   .     A
C612   O650    1.293   .     A
C612   O648    1.294   .     A
C612   C614    1.456   .     S
C613   C617    1.398   .     A
C613   C619    1.393   .     A
C614   C618    1.397   .     A
C614   C620    1.389   .     A
C615   C623    1.409   .     A
C615   H631    1.083   .     S
C615   C617    1.392   .     A
C616   C618    1.394   .     A
C616   C624    1.410   .     A
C616   H632    1.083   .     S
C617   H630    1.083   .     S
C618   H629    1.083   .     S
C619   H628    1.077   .     S
C619   C621    1.396   .     A
C620   H627    1.079   .     S
C620   C622    1.396   .     A
C621   C623    1.420   .     A
C621   C625    1.418   .     A
C622   C624    1.419   .     A
C622   C626    1.416   .     A
C623   C5      1.399   1_556 S
C625   C32     1.409   1_556 S
N641   Zn651   2.013   .     S
N642   Zn652   2.013   .     S
O643   Zn651   2.002   .     S
O644   Zn652   2.002   .     S
O645   Zn652   1.999   .     S
O646   Zn651   1.999   .     S
O647   Zn651   1.966   .     S
O648   Zn652   1.966   .     S
O649   Zn652   1.914   .     S
O650   Zn651   1.914   .     S
O653   H654    0.991   .     S
O655   H656    0.991   .     S
C657   N658    1.157   .     T
C659   N660    1.157   .     T
C661   O711    1.284   .     A
C661   C672    1.420   .     S
C661   O709    1.285   .     A
C662   O712    1.284   .     A
C662   C671    1.420   .     S
C662   O710    1.285   .     A
C663   C665    1.400   .     A
C663   H699    1.078   .     S
C663   C692    1.416   .     A
C664   C666    1.403   .     A
C664   C691    1.417   .     A
C664   H700    1.079   .     S
C665   O719    1.382   .     S
C666   O721    1.383   .     S
C666   C96     1.400   1_556 S
C667   C672    1.398   .     A
C667   H701    1.084   .     S
C667   C867    1.370   .     S
C668   C671    1.398   .     A
C668   H702    1.084   .     S
C668   C1066   1.370   1_545 S
C669   C671    1.397   .     A
C669   H703    1.084   .     S
C669   C1063   1.370   1_545 S
C670   C672    1.397   .     A
C670   H704    1.084   .     S
C670   C866    1.370   .     S
C673   N708    1.371   .     A
C673   C723    1.437   .     S
C673   C741    1.418   .     S
C674   N707    1.371   .     A
C674   C725    1.437   .     S
C675   N707    1.364   .     A
C675   H705    1.083   .     S
C676   N708    1.365   .     A
C676   H706    1.083   .     S
C676   C740    1.418   .     S
C677   O715    1.295   .     A
C677   C679    1.458   .     S
C677   O713    1.294   .     A
C678   O716    1.293   .     A
C678   O714    1.294   .     A
C678   C680    1.456   .     S
C679   C683    1.398   .     A
C679   C685    1.393   .     A
C680   C684    1.397   .     A
C680   C686    1.389   .     A
C681   C689    1.409   .     A
C681   H697    1.083   .     S
C681   C683    1.392   .     A
C682   C684    1.394   .     A
C682   C690    1.410   .     A
C682   H698    1.083   .     S
C683   H696    1.083   .     S
C684   H695    1.083   .     S
C685   H694    1.077   .     S
C685   C687    1.396   .     A
C686   H693    1.079   .     S
C686   C688    1.396   .     A
C687   C689    1.420   .     A
C687   C691    1.418   .     A
C688   C690    1.419   .     A
C688   C692    1.416   .     A
C689   C71     1.399   1_556 S
C691   C98     1.409   1_556 S
N707   Zn717   2.013   .     S
N708   Zn718   2.013   .     S
O709   Zn717   2.002   .     S
O710   Zn718   2.002   .     S
O711   Zn718   1.999   .     S
O712   Zn717   1.999   .     S
O713   Zn717   1.966   .     S
O714   Zn718   1.966   .     S
O715   Zn718   1.914   .     S
O716   Zn717   1.914   .     S
O719   H720    0.991   .     S
O721   H722    0.991   .     S
C723   N724    1.157   .     T
C725   N726    1.157   .     T
C727   O777    1.284   .     A
C727   C738    1.420   .     S
C727   O775    1.285   .     A
C728   O778    1.284   .     A
C728   C737    1.420   .     S
C728   O776    1.285   .     A
C729   C731    1.400   .     A
C729   H765    1.078   .     S
C729   C758    1.416   .     A
C730   C732    1.403   .     A
C730   C757    1.417   .     A
C730   H766    1.079   .     S
C731   O785    1.382   .     S
C732   O787    1.383   .     S
C732   C162    1.400   1_556 S
C733   C738    1.398   .     A
C733   H767    1.084   .     S
C733   C933    1.370   .     S
C734   C737    1.398   .     A
C734   H768    1.084   .     S
C734   C1132   1.370   1_545 S
C735   C737    1.397   .     A
C735   H769    1.084   .     S
C735   C1129   1.370   1_545 S
C736   C738    1.397   .     A
C736   H770    1.084   .     S
C736   C932    1.370   .     S
C739   N774    1.371   .     A
C739   C789    1.437   .     S
C739   C609    1.418   1_655 S
C740   N773    1.371   .     A
C740   C791    1.437   .     S
C741   N773    1.364   .     A
C741   H771    1.083   .     S
C742   N774    1.365   .     A
C742   H772    1.083   .     S
C742   C608    1.418   1_655 S
C743   O781    1.295   .     A
C743   C745    1.458   .     S
C743   O779    1.294   .     A
C744   O782    1.293   .     A
C744   O780    1.294   .     A
C744   C746    1.456   .     S
C745   C749    1.398   .     A
C745   C751    1.393   .     A
C746   C750    1.397   .     A
C746   C752    1.389   .     A
C747   C755    1.409   .     A
C747   H763    1.083   .     S
C747   C749    1.392   .     A
C748   C750    1.394   .     A
C748   C756    1.410   .     A
C748   H764    1.083   .     S
C749   H762    1.083   .     S
C750   H761    1.083   .     S
C751   H760    1.077   .     S
C751   C753    1.396   .     A
C752   H759    1.079   .     S
C752   C754    1.396   .     A
C753   C755    1.420   .     A
C753   C757    1.418   .     A
C754   C756    1.419   .     A
C754   C758    1.416   .     A
C755   C137    1.399   1_556 S
C757   C164    1.409   1_556 S
N773   Zn783   2.013   .     S
N774   Zn784   2.013   .     S
O775   Zn783   2.002   .     S
O776   Zn784   2.002   .     S
O777   Zn784   1.999   .     S
O778   Zn783   1.999   .     S
O779   Zn783   1.966   .     S
O780   Zn784   1.966   .     S
O781   Zn784   1.914   .     S
O782   Zn783   1.914   .     S
O785   H786    0.991   .     S
O787   H788    0.991   .     S
C789   N790    1.157   .     T
C791   N792    1.157   .     T
C793   O843    1.284   .     A
C793   C804    1.420   .     S
C793   O841    1.285   .     A
C794   O844    1.284   .     A
C794   C803    1.420   .     S
C794   O842    1.285   .     A
C795   C797    1.400   .     A
C795   H831    1.078   .     S
C795   C824    1.416   .     A
C796   C798    1.403   .     A
C796   C823    1.417   .     A
C796   H832    1.079   .     S
C797   O851    1.382   .     S
C798   O853    1.383   .     S
C798   C228    1.400   1_556 S
C799   C804    1.398   .     A
C799   H833    1.084   .     S
C799   C999    1.370   .     S
C800   C803    1.398   .     A
C800   H834    1.084   .     S
C801   C803    1.397   .     A
C801   H835    1.084   .     S
C802   C804    1.397   .     A
C802   H836    1.084   .     S
C802   C998    1.370   .     S
C805   N840    1.371   .     A
C805   C855    1.437   .     S
C805   C873    1.418   .     S
C806   N839    1.371   .     A
C806   C857    1.437   .     S
C806   C940    1.418   1_455 S
C807   N839    1.364   .     A
C807   H837    1.083   .     S
C807   C937    1.418   1_455 S
C808   N840    1.365   .     A
C808   H838    1.083   .     S
C808   C872    1.418   .     S
C809   O847    1.295   .     A
C809   C811    1.458   .     S
C809   O845    1.294   .     A
C810   O848    1.293   .     A
C810   O846    1.294   .     A
C810   C812    1.456   .     S
C811   C815    1.398   .     A
C811   C817    1.393   .     A
C812   C816    1.397   .     A
C812   C818    1.389   .     A
C813   C821    1.409   .     A
C813   H829    1.083   .     S
C813   C815    1.392   .     A
C814   C816    1.394   .     A
C814   C822    1.410   .     A
C814   H830    1.083   .     S
C815   H828    1.083   .     S
C816   H827    1.083   .     S
C817   H826    1.077   .     S
C817   C819    1.396   .     A
C818   H825    1.079   .     S
C818   C820    1.396   .     A
C819   C821    1.420   .     A
C819   C823    1.418   .     A
C820   C822    1.419   .     A
C820   C824    1.416   .     A
C821   C203    1.399   1_556 S
C823   C230    1.409   1_556 S
N839   Zn849   2.013   .     S
N840   Zn850   2.013   .     S
O841   Zn849   2.002   .     S
O842   Zn850   2.002   .     S
O843   Zn850   1.999   .     S
O844   Zn849   1.999   .     S
O845   Zn849   1.966   .     S
O846   Zn850   1.966   .     S
O847   Zn850   1.914   .     S
O848   Zn849   1.914   .     S
O851   H852    0.991   .     S
O853   H854    0.991   .     S
C855   N856    1.157   .     T
C857   N858    1.157   .     T
C859   O909    1.284   .     A
C859   C870    1.420   .     S
C859   O907    1.285   .     A
C860   O910    1.284   .     A
C860   C869    1.420   .     S
C860   O908    1.285   .     A
C861   C863    1.400   .     A
C861   H897    1.078   .     S
C861   C890    1.416   .     A
C862   C864    1.403   .     A
C862   C889    1.417   .     A
C862   H898    1.079   .     S
C863   O917    1.382   .     S
C864   O919    1.383   .     S
C864   C294    1.400   1_556 S
C865   C870    1.398   .     A
C865   H899    1.084   .     S
C865   C1065   1.370   .     S
C866   C869    1.398   .     A
C866   H900    1.084   .     S
C867   C869    1.397   .     A
C867   H901    1.084   .     S
C868   C870    1.397   .     A
C868   H902    1.084   .     S
C868   C1064   1.370   .     S
C871   N906    1.371   .     A
C871   C921    1.437   .     S
C871   C939    1.418   .     S
C872   N905    1.371   .     A
C872   C923    1.437   .     S
C873   N905    1.364   .     A
C873   H903    1.083   .     S
C874   N906    1.365   .     A
C874   H904    1.083   .     S
C874   C938    1.418   .     S
C875   O913    1.295   .     A
C875   C877    1.458   .     S
C875   O911    1.294   .     A
C876   O914    1.293   .     A
C876   O912    1.294   .     A
C876   C878    1.456   .     S
C877   C881    1.398   .     A
C877   C883    1.393   .     A
C878   C882    1.397   .     A
C878   C884    1.389   .     A
C879   C887    1.409   .     A
C879   H895    1.083   .     S
C879   C881    1.392   .     A
C880   C882    1.394   .     A
C880   C888    1.410   .     A
C880   H896    1.083   .     S
C881   H894    1.083   .     S
C882   H893    1.083   .     S
C883   H892    1.077   .     S
C883   C885    1.396   .     A
C884   H891    1.079   .     S
C884   C886    1.396   .     A
C885   C887    1.420   .     A
C885   C889    1.418   .     A
C886   C888    1.419   .     A
C886   C890    1.416   .     A
C887   C269    1.399   1_556 S
C889   C296    1.409   1_556 S
N905   Zn915   2.013   .     S
N906   Zn916   2.013   .     S
O907   Zn915   2.002   .     S
O908   Zn916   2.002   .     S
O909   Zn916   1.999   .     S
O910   Zn915   1.999   .     S
O911   Zn915   1.966   .     S
O912   Zn916   1.966   .     S
O913   Zn916   1.914   .     S
O914   Zn915   1.914   .     S
O917   H918    0.991   .     S
O919   H920    0.991   .     S
C921   N922    1.157   .     T
C923   N924    1.157   .     T
C925   O975    1.284   .     A
C925   C936    1.420   .     S
C925   O973    1.285   .     A
C926   O976    1.284   .     A
C926   C935    1.420   .     S
C926   O974    1.285   .     A
C927   C929    1.400   .     A
C927   H963    1.078   .     S
C927   C956    1.416   .     A
C928   C930    1.403   .     A
C928   C955    1.417   .     A
C928   H964    1.079   .     S
C929   O983    1.382   .     S
C930   O985    1.383   .     S
C930   C360    1.400   1_556 S
C931   C936    1.398   .     A
C931   H965    1.084   .     S
C931   C1131   1.370   .     S
C932   C935    1.398   .     A
C932   H966    1.084   .     S
C933   C935    1.397   .     A
C933   H967    1.084   .     S
C934   C936    1.397   .     A
C934   H968    1.084   .     S
C934   C1130   1.370   .     S
C937   N972    1.371   .     A
C937   C987    1.437   .     S
C937   C807    1.418   1_655 S
C938   N971    1.371   .     A
C938   C989    1.437   .     S
C939   N971    1.364   .     A
C939   H969    1.083   .     S
C940   N972    1.365   .     A
C940   H970    1.083   .     S
C940   C806    1.418   1_655 S
C941   O979    1.295   .     A
C941   C943    1.458   .     S
C941   O977    1.294   .     A
C942   O980    1.293   .     A
C942   O978    1.294   .     A
C942   C944    1.456   .     S
C943   C947    1.398   .     A
C943   C949    1.393   .     A
C944   C948    1.397   .     A
C944   C950    1.389   .     A
C945   C953    1.409   .     A
C945   H961    1.083   .     S
C945   C947    1.392   .     A
C946   C948    1.394   .     A
C946   C954    1.410   .     A
C946   H962    1.083   .     S
C947   H960    1.083   .     S
C948   H959    1.083   .     S
C949   H958    1.077   .     S
C949   C951    1.396   .     A
C950   H957    1.079   .     S
C950   C952    1.396   .     A
C951   C953    1.420   .     A
C951   C955    1.418   .     A
C952   C954    1.419   .     A
C952   C956    1.416   .     A
C953   C335    1.399   1_556 S
C955   C362    1.409   1_556 S
N971   Zn981   2.013   .     S
N972   Zn982   2.013   .     S
O973   Zn981   2.002   .     S
O974   Zn982   2.002   .     S
O975   Zn982   1.999   .     S
O976   Zn981   1.999   .     S
O977   Zn981   1.966   .     S
O978   Zn982   1.966   .     S
O979   Zn982   1.914   .     S
O980   Zn981   1.914   .     S
O983   H984    0.991   .     S
O985   H986    0.991   .     S
C987   N988    1.157   .     T
C989   N990    1.157   .     T
C991   O1041   1.284   .     A
C991   C1002   1.420   .     S
C991   O1039   1.285   .     A
C992   O1042   1.284   .     A
C992   C1001   1.420   .     S
C992   O1040   1.285   .     A
C993   C995    1.400   .     A
C993   H1029   1.078   .     S
C993   C1022   1.416   .     A
C994   C996    1.403   .     A
C994   C1021   1.417   .     A
C994   H1030   1.079   .     S
C995   O1049   1.382   .     S
C996   O1051   1.383   .     S
C996   C426    1.400   1_556 S
C997   C1002   1.398   .     A
C997   H1031   1.084   .     S
C997   C603    1.370   1_565 S
C998   C1001   1.398   .     A
C998   H1032   1.084   .     S
C999   C1001   1.397   .     A
C999   H1033   1.084   .     S
C1000  C1002   1.397   .     A
C1000  H1034   1.084   .     S
C1000  C602    1.370   1_565 S
C1003  N1038   1.371   .     A
C1003  C1053   1.437   .     S
C1003  C1071   1.418   .     S
C1004  N1037   1.371   .     A
C1004  C1055   1.437   .     S
C1004  C1138   1.418   1_455 S
C1005  N1037   1.364   .     A
C1005  H1035   1.083   .     S
C1005  C1135   1.418   1_455 S
C1006  N1038   1.365   .     A
C1006  H1036   1.083   .     S
C1006  C1070   1.418   .     S
C1007  O1045   1.295   .     A
C1007  C1009   1.458   .     S
C1007  O1043   1.294   .     A
C1008  O1046   1.293   .     A
C1008  O1044   1.294   .     A
C1008  C1010   1.456   .     S
C1009  C1013   1.398   .     A
C1009  C1015   1.393   .     A
C1010  C1014   1.397   .     A
C1010  C1016   1.389   .     A
C1011  C1019   1.409   .     A
C1011  H1027   1.083   .     S
C1011  C1013   1.392   .     A
C1012  C1014   1.394   .     A
C1012  C1020   1.410   .     A
C1012  H1028   1.083   .     S
C1013  H1026   1.083   .     S
C1014  H1025   1.083   .     S
C1015  H1024   1.077   .     S
C1015  C1017   1.396   .     A
C1016  H1023   1.079   .     S
C1016  C1018   1.396   .     A
C1017  C1019   1.420   .     A
C1017  C1021   1.418   .     A
C1018  C1020   1.419   .     A
C1018  C1022   1.416   .     A
C1019  C401    1.399   1_556 S
C1021  C428    1.409   1_556 S
N1037  Zn1047  2.013   .     S
N1038  Zn1048  2.013   .     S
O1039  Zn1047  2.002   .     S
O1040  Zn1048  2.002   .     S
O1041  Zn1048  1.999   .     S
O1042  Zn1047  1.999   .     S
O1043  Zn1047  1.966   .     S
O1044  Zn1048  1.966   .     S
O1045  Zn1048  1.914   .     S
O1046  Zn1047  1.914   .     S
O1049  H1050   0.991   .     S
O1051  H1052   0.991   .     S
C1053  N1054   1.157   .     T
C1055  N1056   1.157   .     T
C1057  O1107   1.284   .     A
C1057  C1068   1.420   .     S
C1057  O1105   1.285   .     A
C1058  O1108   1.284   .     A
C1058  C1067   1.420   .     S
C1058  O1106   1.285   .     A
C1059  C1061   1.400   .     A
C1059  H1095   1.078   .     S
C1059  C1088   1.416   .     A
C1060  C1062   1.403   .     A
C1060  C1087   1.417   .     A
C1060  H1096   1.079   .     S
C1061  O1115   1.382   .     S
C1062  O1117   1.383   .     S
C1062  C492    1.400   1_556 S
C1063  C1068   1.398   .     A
C1063  H1097   1.084   .     S
C1063  C669    1.370   1_565 S
C1064  C1067   1.398   .     A
C1064  H1098   1.084   .     S
C1065  C1067   1.397   .     A
C1065  H1099   1.084   .     S
C1066  C1068   1.397   .     A
C1066  H1100   1.084   .     S
C1066  C668    1.370   1_565 S
C1069  N1104   1.371   .     A
C1069  C1119   1.437   .     S
C1069  C1137   1.418   .     S
C1070  N1103   1.371   .     A
C1070  C1121   1.437   .     S
C1071  N1103   1.364   .     A
C1071  H1101   1.083   .     S
C1072  N1104   1.365   .     A
C1072  H1102   1.083   .     S
C1072  C1136   1.418   .     S
C1073  O1111   1.295   .     A
C1073  C1075   1.458   .     S
C1073  O1109   1.294   .     A
C1074  O1112   1.293   .     A
C1074  O1110   1.294   .     A
C1074  C1076   1.456   .     S
C1075  C1079   1.398   .     A
C1075  C1081   1.393   .     A
C1076  C1080   1.397   .     A
C1076  C1082   1.389   .     A
C1077  C1085   1.409   .     A
C1077  H1093   1.083   .     S
C1077  C1079   1.392   .     A
C1078  C1080   1.394   .     A
C1078  C1086   1.410   .     A
C1078  H1094   1.083   .     S
C1079  H1092   1.083   .     S
C1080  H1091   1.083   .     S
C1081  H1090   1.077   .     S
C1081  C1083   1.396   .     A
C1082  H1089   1.079   .     S
C1082  C1084   1.396   .     A
C1083  C1085   1.420   .     A
C1083  C1087   1.418   .     A
C1084  C1086   1.419   .     A
C1084  C1088   1.416   .     A
C1085  C467    1.399   1_556 S
C1087  C494    1.409   1_556 S
N1103  Zn1113  2.013   .     S
N1104  Zn1114  2.013   .     S
O1105  Zn1113  2.002   .     S
O1106  Zn1114  2.002   .     S
O1107  Zn1114  1.999   .     S
O1108  Zn1113  1.999   .     S
O1109  Zn1113  1.966   .     S
O1110  Zn1114  1.966   .     S
O1111  Zn1114  1.914   .     S
O1112  Zn1113  1.914   .     S
O1115  H1116   0.991   .     S
O1117  H1118   0.991   .     S
C1119  N1120   1.157   .     T
C1121  N1122   1.157   .     T
C1123  O1173   1.284   .     A
C1123  C1134   1.420   .     S
C1123  O1171   1.285   .     A
C1124  O1174   1.284   .     A
C1124  C1133   1.420   .     S
C1124  O1172   1.285   .     A
C1125  C1127   1.400   .     A
C1125  H1161   1.078   .     S
C1125  C1154   1.416   .     A
C1126  C1128   1.403   .     A
C1126  C1153   1.417   .     A
C1126  H1162   1.079   .     S
C1127  O1181   1.382   .     S
C1128  O1183   1.383   .     S
C1128  C558    1.400   1_556 S
C1129  C1134   1.398   .     A
C1129  H1163   1.084   .     S
C1129  C735    1.370   1_565 S
C1130  C1133   1.398   .     A
C1130  H1164   1.084   .     S
C1131  C1133   1.397   .     A
C1131  H1165   1.084   .     S
C1132  C1134   1.397   .     A
C1132  H1166   1.084   .     S
C1132  C734    1.370   1_565 S
C1135  N1170   1.371   .     A
C1135  C1185   1.437   .     S
C1135  C1005   1.418   1_655 S
C1136  N1169   1.371   .     A
C1136  C1187   1.437   .     S
C1137  N1169   1.364   .     A
C1137  H1167   1.083   .     S
C1138  N1170   1.365   .     A
C1138  H1168   1.083   .     S
C1138  C1004   1.418   1_655 S
C1139  O1177   1.295   .     A
C1139  C1141   1.458   .     S
C1139  O1175   1.294   .     A
C1140  O1178   1.293   .     A
C1140  O1176   1.294   .     A
C1140  C1142   1.456   .     S
C1141  C1145   1.398   .     A
C1141  C1147   1.393   .     A
C1142  C1146   1.397   .     A
C1142  C1148   1.389   .     A
C1143  C1151   1.409   .     A
C1143  H1159   1.083   .     S
C1143  C1145   1.392   .     A
C1144  C1146   1.394   .     A
C1144  C1152   1.410   .     A
C1144  H1160   1.083   .     S
C1145  H1158   1.083   .     S
C1146  H1157   1.083   .     S
C1147  H1156   1.077   .     S
C1147  C1149   1.396   .     A
C1148  H1155   1.079   .     S
C1148  C1150   1.396   .     A
C1149  C1151   1.420   .     A
C1149  C1153   1.418   .     A
C1150  C1152   1.419   .     A
C1150  C1154   1.416   .     A
C1151  C533    1.399   1_556 S
C1153  C560    1.409   1_556 S
N1169  Zn1179  2.013   .     S
N1170  Zn1180  2.013   .     S
O1171  Zn1179  2.002   .     S
O1172  Zn1180  2.002   .     S
O1173  Zn1180  1.999   .     S
O1174  Zn1179  1.999   .     S
O1175  Zn1179  1.966   .     S
O1176  Zn1180  1.966   .     S
O1177  Zn1180  1.914   .     S
O1178  Zn1179  1.914   .     S
O1181  H1182   0.991   .     S
O1183  H1184   0.991   .     S
C1185  N1186   1.157   .     T
C1187  N1188   1.157   .     T
