data_str_m1_o10_o18_pcu_sym.163
_audit_creation_date              2020-01-03
_audit_creation_method            'Materials Studio'
_symmetry_space_group_name_H-M    'P1'
_symmetry_Int_Tables_number       1
_symmetry_cell_setting            triclinic
loop_
_symmetry_equiv_pos_as_xyz
  x,y,z
_cell_length_a                    32.4949
_cell_length_b                    32.7057
_cell_length_c                    35.6527
_cell_angle_alpha                 98.3373
_cell_angle_beta                  72.9532
_cell_angle_gamma                 98.4718
loop_
_atom_site_label
_atom_site_type_symbol
_atom_site_fract_x
_atom_site_fract_y
_atom_site_fract_z
_atom_site_U_iso_or_equiv
_atom_site_adp_type
_atom_site_occupancy
C1     C     0.05248   0.15994   0.25881   0.00000  Uiso   1.00
C2     C     0.21570   0.14263   0.45612   0.00000  Uiso   1.00
C3     C     0.22432   0.11325   0.47728   0.00000  Uiso   1.00
C4     C     0.28104   0.17359   0.24123   0.00000  Uiso   1.00
C5     C     0.21025   0.11802   0.01912   0.00000  Uiso   1.00
C6     C     0.19591   0.15676   0.03842   0.00000  Uiso   1.00
C7     C     0.21111   0.08671   0.04279   0.00000  Uiso   1.00
C8     C     0.20222   0.09591   0.08363   0.00000  Uiso   1.00
C9     C     0.19644   0.16765   0.07837   0.00000  Uiso   1.00
C10    C     0.32706   0.17629   0.23771   0.00000  Uiso   1.00
C11    C     0.00706   0.15768   0.26228   0.00000  Uiso   1.00
C12    C     0.12347   0.23851   0.41864   0.00000  Uiso   1.00
C13    C     0.17873   0.32168   0.23709   0.00000  Uiso   1.00
C14    C     0.15083   0.01253   0.26354   0.00000  Uiso   1.00
C15    C     0.15588   0.05642   0.25903   0.00000  Uiso   1.00
C16    C     0.17658   0.27766   0.24133   0.00000  Uiso   1.00
C17    C     0.18808   0.14533   0.14394   0.00000  Uiso   1.00
C18    C     0.14606   0.18853   0.35623   0.00000  Uiso   1.00
C19    C     0.14227   0.20220   0.39853   0.00000  Uiso   1.00
C20    C     0.19655   0.13638   0.10117   0.00000  Uiso   1.00
C21    C     0.12331   0.25059   0.45786   0.00000  Uiso   1.00
C22    C     0.21636   0.04383   0.02734   0.00000  Uiso   1.00
C23    C     0.16108   0.17959   0.41846   0.00000  Uiso   1.00
C24    C     0.21081   0.00467   0.20321   0.00000  Uiso   1.00
C25    C     0.08593   0.01872   0.31309   0.00000  Uiso   1.00
C26    C     0.23763   0.22986   0.08137   0.00000  Uiso   1.00
C27    C     0.25134   0.08113   0.45563   0.00000  Uiso   1.00
C28    C     0.10367   0.26398   0.40047   0.00000  Uiso   1.00
C29    C     0.24072   0.14482   0.41519   0.00000  Uiso   1.00
C30    C     0.16509   0.19382   0.45657   0.00000  Uiso   1.00
C31    C     0.14317   0.22826   0.47701   0.00000  Uiso   1.00
C32    C     0.18704   0.17269   0.47612   0.00000  Uiso   1.00
C33    C     0.18021   0.18216   0.01757   0.00000  Uiso   1.00
C34    C     0.15492   0.21462   0.03739   0.00000  Uiso   1.00
C35    C     0.13897   0.23866   0.01706   0.00000  Uiso   1.00
H36    H     0.12056   0.26382   0.03340   0.00000  Uiso   1.00
H37    H     0.06214   0.00116   0.33600   0.00000  Uiso   1.00
H38    H     0.24485   0.23299   0.04937   0.00000  Uiso   1.00
H39    H     0.26338   0.21457   0.08698   0.00000  Uiso   1.00
H40    H     0.23813   0.26169   0.09715   0.00000  Uiso   1.00
H41    H     0.01685   0.19340   0.21502   0.00000  Uiso   1.00
H42    H     0.31795   0.14051   0.28524   0.00000  Uiso   1.00
H43    H     0.20118   0.07171   0.10186   0.00000  Uiso   1.00
H44    H     0.10734   0.27748   0.47365   0.00000  Uiso   1.00
H45    H     0.17108   0.14987   0.40421   0.00000  Uiso   1.00
H46    H     0.14500   0.22104   0.06902   0.00000  Uiso   1.00
H47    H     0.06993   0.02117   0.28996   0.00000  Uiso   1.00
H48    H     0.09449   0.05000   0.32752   0.00000  Uiso   1.00
N49    N     0.22037   0.00939   0.01527   0.00000  Uiso   1.00
N50    N     0.23631   0.01767   0.17623   0.00000  Uiso   1.00
N51    N     0.27300   0.05572   0.43813   0.00000  Uiso   1.00
N52    N     0.08777   0.28447   0.38602   0.00000  Uiso   1.00
N53    N     0.26080   0.14656   0.38263   0.00000  Uiso   1.00
O54    O     0.16667   0.16667   0.25000   0.00000  Uiso   1.00
O55    O     0.15693   0.12393   0.16625   0.00000  Uiso   1.00
O56    O     0.12687   0.20646   0.33749   0.00000  Uiso   1.00
O57    O     0.21088   0.17493   0.15877   0.00000  Uiso   1.00
O58    O     0.17198   0.16135   0.33749   0.00000  Uiso   1.00
O59    O     0.12281   0.33034   0.29762   0.00000  Uiso   1.00
O60    O     0.19629   0.20830   0.09592   0.00000  Uiso   1.00
O61    O     0.17849   0.08101   0.27820   0.00000  Uiso   1.00
O62    O     0.14581   0.26136   0.26767   0.00000  Uiso   1.00
O63    O     0.07452   0.13251   0.23607   0.00000  Uiso   1.00
O64    O     0.26785   0.19179   0.21805   0.00000  Uiso   1.00
O65    O     0.06990   0.18960   0.27820   0.00000  Uiso   1.00
O66    O     0.25440   0.15277   0.26767   0.00000  Uiso   1.00
O67    O     0.13800   0.06903   0.23607   0.00000  Uiso   1.00
O68    O     0.20437   0.25527   0.21805   0.00000  Uiso   1.00
Zn69   Zn    0.19244   0.14090   0.28277   0.00000  Uiso   1.00
Zn70   Zn    0.13459   0.12378   0.22257   0.00000  Uiso   1.00
Zn71   Zn    0.21166   0.19664   0.21188   0.00000  Uiso   1.00
Zn72   Zn    0.12798   0.20535   0.28277   0.00000  Uiso   1.00
C73    C     0.38581   0.15994   0.25881   0.00000  Uiso   1.00
C74    C     0.54903   0.14263   0.45612   0.00000  Uiso   1.00
C75    C     0.55765   0.11325   0.47728   0.00000  Uiso   1.00
C76    C     0.61437   0.17359   0.24123   0.00000  Uiso   1.00
C77    C     0.54359   0.11802   0.01912   0.00000  Uiso   1.00
C78    C     0.52925   0.15676   0.03842   0.00000  Uiso   1.00
C79    C     0.54444   0.08671   0.04279   0.00000  Uiso   1.00
C80    C     0.53555   0.09591   0.08363   0.00000  Uiso   1.00
C81    C     0.52977   0.16765   0.07837   0.00000  Uiso   1.00
C82    C     0.66039   0.17629   0.23771   0.00000  Uiso   1.00
C83    C     0.34039   0.15768   0.26228   0.00000  Uiso   1.00
C84    C     0.45680   0.23851   0.41864   0.00000  Uiso   1.00
C85    C     0.51206   0.32168   0.23709   0.00000  Uiso   1.00
C86    C     0.48416   0.01253   0.26354   0.00000  Uiso   1.00
C87    C     0.48921   0.05642   0.25903   0.00000  Uiso   1.00
C88    C     0.50992   0.27766   0.24133   0.00000  Uiso   1.00
C89    C     0.52141   0.14533   0.14394   0.00000  Uiso   1.00
C90    C     0.47940   0.18853   0.35623   0.00000  Uiso   1.00
C91    C     0.47561   0.20220   0.39853   0.00000  Uiso   1.00
C92    C     0.52988   0.13638   0.10117   0.00000  Uiso   1.00
C93    C     0.45664   0.25059   0.45786   0.00000  Uiso   1.00
C94    C     0.54970   0.04383   0.02734   0.00000  Uiso   1.00
C95    C     0.49441   0.17959   0.41846   0.00000  Uiso   1.00
C96    C     0.54414   0.00467   0.20321   0.00000  Uiso   1.00
C97    C     0.41926   0.01872   0.31309   0.00000  Uiso   1.00
C98    C     0.57097   0.22986   0.08137   0.00000  Uiso   1.00
C99    C     0.58467   0.08113   0.45563   0.00000  Uiso   1.00
C100   C     0.43700   0.26398   0.40047   0.00000  Uiso   1.00
C101   C     0.57406   0.14482   0.41519   0.00000  Uiso   1.00
C102   C     0.49842   0.19382   0.45657   0.00000  Uiso   1.00
C103   C     0.47651   0.22826   0.47701   0.00000  Uiso   1.00
C104   C     0.52038   0.17269   0.47612   0.00000  Uiso   1.00
C105   C     0.51355   0.18216   0.01757   0.00000  Uiso   1.00
C106   C     0.48826   0.21462   0.03739   0.00000  Uiso   1.00
C107   C     0.47230   0.23866   0.01706   0.00000  Uiso   1.00
H108   H     0.45390   0.26382   0.03340   0.00000  Uiso   1.00
H109   H     0.39547   0.00116   0.33600   0.00000  Uiso   1.00
H110   H     0.57819   0.23299   0.04937   0.00000  Uiso   1.00
H111   H     0.59671   0.21457   0.08698   0.00000  Uiso   1.00
H112   H     0.57146   0.26169   0.09715   0.00000  Uiso   1.00
H113   H     0.35018   0.19340   0.21502   0.00000  Uiso   1.00
H114   H     0.65128   0.14051   0.28524   0.00000  Uiso   1.00
H115   H     0.53451   0.07171   0.10186   0.00000  Uiso   1.00
H116   H     0.44068   0.27748   0.47365   0.00000  Uiso   1.00
H117   H     0.50442   0.14987   0.40421   0.00000  Uiso   1.00
H118   H     0.47833   0.22104   0.06902   0.00000  Uiso   1.00
H119   H     0.40326   0.02117   0.28996   0.00000  Uiso   1.00
H120   H     0.42782   0.05000   0.32752   0.00000  Uiso   1.00
N121   N     0.55370   0.00939   0.01527   0.00000  Uiso   1.00
N122   N     0.56964   0.01767   0.17623   0.00000  Uiso   1.00
N123   N     0.60634   0.05572   0.43813   0.00000  Uiso   1.00
N124   N     0.42111   0.28447   0.38602   0.00000  Uiso   1.00
N125   N     0.59414   0.14656   0.38263   0.00000  Uiso   1.00
O126   O     0.50000   0.16667   0.25000   0.00000  Uiso   1.00
O127   O     0.49027   0.12393   0.16625   0.00000  Uiso   1.00
O128   O     0.46020   0.20646   0.33749   0.00000  Uiso   1.00
O129   O     0.54421   0.17493   0.15877   0.00000  Uiso   1.00
O130   O     0.50532   0.16135   0.33749   0.00000  Uiso   1.00
O131   O     0.45614   0.33034   0.29762   0.00000  Uiso   1.00
O132   O     0.52963   0.20830   0.09592   0.00000  Uiso   1.00
O133   O     0.51182   0.08101   0.27820   0.00000  Uiso   1.00
O134   O     0.47914   0.26136   0.26767   0.00000  Uiso   1.00
O135   O     0.40785   0.13251   0.23607   0.00000  Uiso   1.00
O136   O     0.60119   0.19179   0.21805   0.00000  Uiso   1.00
O137   O     0.40323   0.18960   0.27820   0.00000  Uiso   1.00
O138   O     0.58773   0.15277   0.26767   0.00000  Uiso   1.00
O139   O     0.47133   0.06903   0.23607   0.00000  Uiso   1.00
O140   O     0.53771   0.25527   0.21805   0.00000  Uiso   1.00
Zn141  Zn    0.52577   0.14090   0.28277   0.00000  Uiso   1.00
Zn142  Zn    0.46792   0.12378   0.22257   0.00000  Uiso   1.00
Zn143  Zn    0.54500   0.19664   0.21188   0.00000  Uiso   1.00
Zn144  Zn    0.46131   0.20535   0.28277   0.00000  Uiso   1.00
C145   C     0.71914   0.15994   0.25881   0.00000  Uiso   1.00
C146   C     0.88237   0.14263   0.45612   0.00000  Uiso   1.00
C147   C     0.89098   0.11325   0.47728   0.00000  Uiso   1.00
C148   C     0.94771   0.17359   0.24123   0.00000  Uiso   1.00
C149   C     0.87692   0.11802   0.01912   0.00000  Uiso   1.00
C150   C     0.86258   0.15676   0.03842   0.00000  Uiso   1.00
C151   C     0.87778   0.08671   0.04279   0.00000  Uiso   1.00
C152   C     0.86888   0.09591   0.08363   0.00000  Uiso   1.00
C153   C     0.86311   0.16765   0.07837   0.00000  Uiso   1.00
C154   C     0.99373   0.17629   0.23771   0.00000  Uiso   1.00
C155   C     0.67373   0.15768   0.26228   0.00000  Uiso   1.00
C156   C     0.79014   0.23851   0.41864   0.00000  Uiso   1.00
C157   C     0.84539   0.32168   0.23709   0.00000  Uiso   1.00
C158   C     0.81749   0.01253   0.26354   0.00000  Uiso   1.00
C159   C     0.82255   0.05642   0.25903   0.00000  Uiso   1.00
C160   C     0.84325   0.27766   0.24133   0.00000  Uiso   1.00
C161   C     0.85475   0.14533   0.14394   0.00000  Uiso   1.00
C162   C     0.81273   0.18853   0.35623   0.00000  Uiso   1.00
C163   C     0.80894   0.20220   0.39853   0.00000  Uiso   1.00
C164   C     0.86322   0.13638   0.10117   0.00000  Uiso   1.00
C165   C     0.78998   0.25059   0.45786   0.00000  Uiso   1.00
C166   C     0.88303   0.04383   0.02734   0.00000  Uiso   1.00
C167   C     0.82774   0.17959   0.41846   0.00000  Uiso   1.00
C168   C     0.87747   0.00467   0.20321   0.00000  Uiso   1.00
C169   C     0.75260   0.01872   0.31309   0.00000  Uiso   1.00
C170   C     0.90430   0.22986   0.08137   0.00000  Uiso   1.00
C171   C     0.91801   0.08113   0.45563   0.00000  Uiso   1.00
C172   C     0.77034   0.26398   0.40047   0.00000  Uiso   1.00
C173   C     0.90739   0.14482   0.41519   0.00000  Uiso   1.00
C174   C     0.83175   0.19382   0.45657   0.00000  Uiso   1.00
C175   C     0.80984   0.22826   0.47701   0.00000  Uiso   1.00
C176   C     0.85371   0.17269   0.47612   0.00000  Uiso   1.00
C177   C     0.84688   0.18216   0.01757   0.00000  Uiso   1.00
C178   C     0.82159   0.21462   0.03739   0.00000  Uiso   1.00
C179   C     0.80564   0.23866   0.01706   0.00000  Uiso   1.00
H180   H     0.78723   0.26382   0.03340   0.00000  Uiso   1.00
H181   H     0.72880   0.00116   0.33600   0.00000  Uiso   1.00
H182   H     0.91152   0.23299   0.04937   0.00000  Uiso   1.00
H183   H     0.93004   0.21457   0.08698   0.00000  Uiso   1.00
H184   H     0.90480   0.26169   0.09715   0.00000  Uiso   1.00
H185   H     0.68352   0.19340   0.21502   0.00000  Uiso   1.00
H186   H     0.98462   0.14051   0.28524   0.00000  Uiso   1.00
H187   H     0.86785   0.07171   0.10186   0.00000  Uiso   1.00
H188   H     0.77401   0.27748   0.47365   0.00000  Uiso   1.00
H189   H     0.83775   0.14987   0.40421   0.00000  Uiso   1.00
H190   H     0.81167   0.22104   0.06902   0.00000  Uiso   1.00
H191   H     0.73660   0.02117   0.28996   0.00000  Uiso   1.00
H192   H     0.76115   0.05000   0.32752   0.00000  Uiso   1.00
N193   N     0.88703   0.00939   0.01527   0.00000  Uiso   1.00
N194   N     0.90298   0.01767   0.17623   0.00000  Uiso   1.00
N195   N     0.93967   0.05572   0.43813   0.00000  Uiso   1.00
N196   N     0.75444   0.28447   0.38602   0.00000  Uiso   1.00
N197   N     0.92747   0.14656   0.38263   0.00000  Uiso   1.00
O198   O     0.83333   0.16667   0.25000   0.00000  Uiso   1.00
O199   O     0.82360   0.12393   0.16625   0.00000  Uiso   1.00
O200   O     0.79354   0.20646   0.33749   0.00000  Uiso   1.00
O201   O     0.87755   0.17493   0.15877   0.00000  Uiso   1.00
O202   O     0.83865   0.16135   0.33749   0.00000  Uiso   1.00
O203   O     0.78948   0.33034   0.29762   0.00000  Uiso   1.00
O204   O     0.86296   0.20830   0.09592   0.00000  Uiso   1.00
O205   O     0.84515   0.08101   0.27820   0.00000  Uiso   1.00
O206   O     0.81247   0.26136   0.26767   0.00000  Uiso   1.00
O207   O     0.74119   0.13251   0.23607   0.00000  Uiso   1.00
O208   O     0.93452   0.19179   0.21805   0.00000  Uiso   1.00
O209   O     0.73656   0.18960   0.27820   0.00000  Uiso   1.00
O210   O     0.92106   0.15277   0.26767   0.00000  Uiso   1.00
O211   O     0.80467   0.06903   0.23607   0.00000  Uiso   1.00
O212   O     0.87104   0.25527   0.21805   0.00000  Uiso   1.00
Zn213  Zn    0.85910   0.14090   0.28277   0.00000  Uiso   1.00
Zn214  Zn    0.80125   0.12378   0.22257   0.00000  Uiso   1.00
Zn215  Zn    0.87833   0.19664   0.21188   0.00000  Uiso   1.00
Zn216  Zn    0.79465   0.20535   0.28277   0.00000  Uiso   1.00
C217   C     0.05248   0.49327   0.25881   0.00000  Uiso   1.00
C218   C     0.21570   0.47596   0.45612   0.00000  Uiso   1.00
C219   C     0.22432   0.44658   0.47728   0.00000  Uiso   1.00
C220   C     0.28104   0.50693   0.24123   0.00000  Uiso   1.00
C221   C     0.21025   0.45135   0.01912   0.00000  Uiso   1.00
C222   C     0.19591   0.49009   0.03842   0.00000  Uiso   1.00
C223   C     0.21111   0.42005   0.04279   0.00000  Uiso   1.00
C224   C     0.20222   0.42924   0.08363   0.00000  Uiso   1.00
C225   C     0.19644   0.50098   0.07837   0.00000  Uiso   1.00
C226   C     0.32706   0.50962   0.23771   0.00000  Uiso   1.00
C227   C     0.00706   0.49101   0.26228   0.00000  Uiso   1.00
C228   C     0.12347   0.57184   0.41864   0.00000  Uiso   1.00
C229   C     0.17873   0.65501   0.23709   0.00000  Uiso   1.00
C230   C     0.15083   0.34587   0.26354   0.00000  Uiso   1.00
C231   C     0.15588   0.38975   0.25903   0.00000  Uiso   1.00
C232   C     0.17658   0.61099   0.24133   0.00000  Uiso   1.00
C233   C     0.18808   0.47866   0.14394   0.00000  Uiso   1.00
C234   C     0.14606   0.52187   0.35623   0.00000  Uiso   1.00
C235   C     0.14227   0.53554   0.39853   0.00000  Uiso   1.00
C236   C     0.19655   0.46971   0.10117   0.00000  Uiso   1.00
C237   C     0.12331   0.58393   0.45786   0.00000  Uiso   1.00
C238   C     0.21636   0.37716   0.02734   0.00000  Uiso   1.00
C239   C     0.16108   0.51293   0.41846   0.00000  Uiso   1.00
C240   C     0.21081   0.33801   0.20321   0.00000  Uiso   1.00
C241   C     0.08593   0.35205   0.31309   0.00000  Uiso   1.00
C242   C     0.23763   0.56320   0.08137   0.00000  Uiso   1.00
C243   C     0.25134   0.41447   0.45563   0.00000  Uiso   1.00
C244   C     0.10367   0.59731   0.40047   0.00000  Uiso   1.00
C245   C     0.24072   0.47816   0.41519   0.00000  Uiso   1.00
C246   C     0.16509   0.52715   0.45657   0.00000  Uiso   1.00
C247   C     0.14317   0.56159   0.47701   0.00000  Uiso   1.00
C248   C     0.18704   0.50602   0.47612   0.00000  Uiso   1.00
C249   C     0.18021   0.51549   0.01757   0.00000  Uiso   1.00
C250   C     0.15492   0.54795   0.03739   0.00000  Uiso   1.00
C251   C     0.13897   0.57200   0.01706   0.00000  Uiso   1.00
H252   H     0.12056   0.59715   0.03340   0.00000  Uiso   1.00
H253   H     0.06214   0.33450   0.33600   0.00000  Uiso   1.00
H254   H     0.24485   0.56632   0.04937   0.00000  Uiso   1.00
H255   H     0.26338   0.54790   0.08698   0.00000  Uiso   1.00
H256   H     0.23813   0.59502   0.09715   0.00000  Uiso   1.00
H257   H     0.01685   0.52673   0.21502   0.00000  Uiso   1.00
H258   H     0.31795   0.47384   0.28524   0.00000  Uiso   1.00
H259   H     0.20118   0.40504   0.10186   0.00000  Uiso   1.00
H260   H     0.10734   0.61081   0.47365   0.00000  Uiso   1.00
H261   H     0.17108   0.48320   0.40421   0.00000  Uiso   1.00
H262   H     0.14500   0.55437   0.06902   0.00000  Uiso   1.00
H263   H     0.06993   0.35450   0.28996   0.00000  Uiso   1.00
H264   H     0.09449   0.38333   0.32752   0.00000  Uiso   1.00
N265   N     0.22037   0.34273   0.01527   0.00000  Uiso   1.00
N266   N     0.23631   0.35100   0.17623   0.00000  Uiso   1.00
N267   N     0.27300   0.38905   0.43813   0.00000  Uiso   1.00
N268   N     0.08777   0.61781   0.38602   0.00000  Uiso   1.00
N269   N     0.26080   0.47990   0.38263   0.00000  Uiso   1.00
O270   O     0.16667   0.50000   0.25000   0.00000  Uiso   1.00
O271   O     0.15693   0.45726   0.16625   0.00000  Uiso   1.00
O272   O     0.12687   0.53979   0.33749   0.00000  Uiso   1.00
O273   O     0.21088   0.50826   0.15877   0.00000  Uiso   1.00
O274   O     0.17198   0.49468   0.33749   0.00000  Uiso   1.00
O275   O     0.12281   0.66368   0.29762   0.00000  Uiso   1.00
O276   O     0.19629   0.54163   0.09592   0.00000  Uiso   1.00
O277   O     0.17849   0.41434   0.27820   0.00000  Uiso   1.00
O278   O     0.14581   0.59469   0.26767   0.00000  Uiso   1.00
O279   O     0.07452   0.46584   0.23607   0.00000  Uiso   1.00
O280   O     0.26785   0.52512   0.21805   0.00000  Uiso   1.00
O281   O     0.06990   0.52293   0.27820   0.00000  Uiso   1.00
O282   O     0.25440   0.48610   0.26767   0.00000  Uiso   1.00
O283   O     0.13800   0.40236   0.23607   0.00000  Uiso   1.00
O284   O     0.20437   0.58860   0.21805   0.00000  Uiso   1.00
Zn285  Zn    0.19244   0.47423   0.28277   0.00000  Uiso   1.00
Zn286  Zn    0.13459   0.45711   0.22257   0.00000  Uiso   1.00
Zn287  Zn    0.21166   0.52997   0.21188   0.00000  Uiso   1.00
Zn288  Zn    0.12798   0.53868   0.28277   0.00000  Uiso   1.00
C289   C     0.38581   0.49327   0.25881   0.00000  Uiso   1.00
C290   C     0.54903   0.47596   0.45612   0.00000  Uiso   1.00
C291   C     0.55765   0.44658   0.47728   0.00000  Uiso   1.00
C292   C     0.61437   0.50693   0.24123   0.00000  Uiso   1.00
C293   C     0.54359   0.45135   0.01912   0.00000  Uiso   1.00
C294   C     0.52925   0.49009   0.03842   0.00000  Uiso   1.00
C295   C     0.54444   0.42005   0.04279   0.00000  Uiso   1.00
C296   C     0.53555   0.42924   0.08363   0.00000  Uiso   1.00
C297   C     0.52977   0.50098   0.07837   0.00000  Uiso   1.00
C298   C     0.66039   0.50962   0.23771   0.00000  Uiso   1.00
C299   C     0.34039   0.49101   0.26228   0.00000  Uiso   1.00
C300   C     0.45680   0.57184   0.41864   0.00000  Uiso   1.00
C301   C     0.51206   0.65501   0.23709   0.00000  Uiso   1.00
C302   C     0.48416   0.34587   0.26354   0.00000  Uiso   1.00
C303   C     0.48921   0.38975   0.25903   0.00000  Uiso   1.00
C304   C     0.50992   0.61099   0.24133   0.00000  Uiso   1.00
C305   C     0.52141   0.47866   0.14394   0.00000  Uiso   1.00
C306   C     0.47940   0.52187   0.35623   0.00000  Uiso   1.00
C307   C     0.47561   0.53554   0.39853   0.00000  Uiso   1.00
C308   C     0.52988   0.46971   0.10117   0.00000  Uiso   1.00
C309   C     0.45664   0.58393   0.45786   0.00000  Uiso   1.00
C310   C     0.54970   0.37716   0.02734   0.00000  Uiso   1.00
C311   C     0.49441   0.51293   0.41846   0.00000  Uiso   1.00
C312   C     0.54414   0.33801   0.20321   0.00000  Uiso   1.00
C313   C     0.41926   0.35205   0.31309   0.00000  Uiso   1.00
C314   C     0.57097   0.56320   0.08137   0.00000  Uiso   1.00
C315   C     0.58467   0.41447   0.45563   0.00000  Uiso   1.00
C316   C     0.43700   0.59731   0.40047   0.00000  Uiso   1.00
C317   C     0.57406   0.47816   0.41519   0.00000  Uiso   1.00
C318   C     0.49842   0.52715   0.45657   0.00000  Uiso   1.00
C319   C     0.47651   0.56159   0.47701   0.00000  Uiso   1.00
C320   C     0.52038   0.50602   0.47612   0.00000  Uiso   1.00
C321   C     0.51355   0.51549   0.01757   0.00000  Uiso   1.00
C322   C     0.48826   0.54795   0.03739   0.00000  Uiso   1.00
C323   C     0.47230   0.57200   0.01706   0.00000  Uiso   1.00
H324   H     0.45390   0.59715   0.03340   0.00000  Uiso   1.00
H325   H     0.39547   0.33450   0.33600   0.00000  Uiso   1.00
H326   H     0.57819   0.56632   0.04937   0.00000  Uiso   1.00
H327   H     0.59671   0.54790   0.08698   0.00000  Uiso   1.00
H328   H     0.57146   0.59502   0.09715   0.00000  Uiso   1.00
H329   H     0.35018   0.52673   0.21502   0.00000  Uiso   1.00
H330   H     0.65128   0.47384   0.28524   0.00000  Uiso   1.00
H331   H     0.53451   0.40504   0.10186   0.00000  Uiso   1.00
H332   H     0.44068   0.61081   0.47365   0.00000  Uiso   1.00
H333   H     0.50442   0.48320   0.40421   0.00000  Uiso   1.00
H334   H     0.47833   0.55437   0.06902   0.00000  Uiso   1.00
H335   H     0.40326   0.35450   0.28996   0.00000  Uiso   1.00
H336   H     0.42782   0.38333   0.32752   0.00000  Uiso   1.00
N337   N     0.55370   0.34273   0.01527   0.00000  Uiso   1.00
N338   N     0.56964   0.35100   0.17623   0.00000  Uiso   1.00
N339   N     0.60634   0.38905   0.43813   0.00000  Uiso   1.00
N340   N     0.42111   0.61781   0.38602   0.00000  Uiso   1.00
N341   N     0.59414   0.47990   0.38263   0.00000  Uiso   1.00
O342   O     0.50000   0.50000   0.25000   0.00000  Uiso   1.00
O343   O     0.49027   0.45726   0.16625   0.00000  Uiso   1.00
O344   O     0.46020   0.53979   0.33749   0.00000  Uiso   1.00
O345   O     0.54421   0.50826   0.15877   0.00000  Uiso   1.00
O346   O     0.50532   0.49468   0.33749   0.00000  Uiso   1.00
O347   O     0.45614   0.66368   0.29762   0.00000  Uiso   1.00
O348   O     0.52963   0.54163   0.09592   0.00000  Uiso   1.00
O349   O     0.51182   0.41434   0.27820   0.00000  Uiso   1.00
O350   O     0.47914   0.59469   0.26767   0.00000  Uiso   1.00
O351   O     0.40785   0.46584   0.23607   0.00000  Uiso   1.00
O352   O     0.60119   0.52512   0.21805   0.00000  Uiso   1.00
O353   O     0.40323   0.52293   0.27820   0.00000  Uiso   1.00
O354   O     0.58773   0.48610   0.26767   0.00000  Uiso   1.00
O355   O     0.47133   0.40236   0.23607   0.00000  Uiso   1.00
O356   O     0.53771   0.58860   0.21805   0.00000  Uiso   1.00
Zn357  Zn    0.52577   0.47423   0.28277   0.00000  Uiso   1.00
Zn358  Zn    0.46792   0.45711   0.22257   0.00000  Uiso   1.00
Zn359  Zn    0.54500   0.52997   0.21188   0.00000  Uiso   1.00
Zn360  Zn    0.46131   0.53868   0.28277   0.00000  Uiso   1.00
C361   C     0.71914   0.49327   0.25881   0.00000  Uiso   1.00
C362   C     0.88237   0.47596   0.45612   0.00000  Uiso   1.00
C363   C     0.89098   0.44658   0.47728   0.00000  Uiso   1.00
C364   C     0.94771   0.50693   0.24123   0.00000  Uiso   1.00
C365   C     0.87692   0.45135   0.01912   0.00000  Uiso   1.00
C366   C     0.86258   0.49009   0.03842   0.00000  Uiso   1.00
C367   C     0.87778   0.42005   0.04279   0.00000  Uiso   1.00
C368   C     0.86888   0.42924   0.08363   0.00000  Uiso   1.00
C369   C     0.86311   0.50098   0.07837   0.00000  Uiso   1.00
C370   C     0.99373   0.50962   0.23771   0.00000  Uiso   1.00
C371   C     0.67373   0.49101   0.26228   0.00000  Uiso   1.00
C372   C     0.79014   0.57184   0.41864   0.00000  Uiso   1.00
C373   C     0.84539   0.65501   0.23709   0.00000  Uiso   1.00
C374   C     0.81749   0.34587   0.26354   0.00000  Uiso   1.00
C375   C     0.82255   0.38975   0.25903   0.00000  Uiso   1.00
C376   C     0.84325   0.61099   0.24133   0.00000  Uiso   1.00
C377   C     0.85475   0.47866   0.14394   0.00000  Uiso   1.00
C378   C     0.81273   0.52187   0.35623   0.00000  Uiso   1.00
C379   C     0.80894   0.53554   0.39853   0.00000  Uiso   1.00
C380   C     0.86322   0.46971   0.10117   0.00000  Uiso   1.00
C381   C     0.78998   0.58393   0.45786   0.00000  Uiso   1.00
C382   C     0.88303   0.37716   0.02734   0.00000  Uiso   1.00
C383   C     0.82774   0.51293   0.41846   0.00000  Uiso   1.00
C384   C     0.87747   0.33801   0.20321   0.00000  Uiso   1.00
C385   C     0.75260   0.35205   0.31309   0.00000  Uiso   1.00
C386   C     0.90430   0.56320   0.08137   0.00000  Uiso   1.00
C387   C     0.91801   0.41447   0.45563   0.00000  Uiso   1.00
C388   C     0.77034   0.59731   0.40047   0.00000  Uiso   1.00
C389   C     0.90739   0.47816   0.41519   0.00000  Uiso   1.00
C390   C     0.83175   0.52715   0.45657   0.00000  Uiso   1.00
C391   C     0.80984   0.56159   0.47701   0.00000  Uiso   1.00
C392   C     0.85371   0.50602   0.47612   0.00000  Uiso   1.00
C393   C     0.84688   0.51549   0.01757   0.00000  Uiso   1.00
C394   C     0.82159   0.54795   0.03739   0.00000  Uiso   1.00
C395   C     0.80564   0.57200   0.01706   0.00000  Uiso   1.00
H396   H     0.78723   0.59715   0.03340   0.00000  Uiso   1.00
H397   H     0.72880   0.33450   0.33600   0.00000  Uiso   1.00
H398   H     0.91152   0.56632   0.04937   0.00000  Uiso   1.00
H399   H     0.93004   0.54790   0.08698   0.00000  Uiso   1.00
H400   H     0.90480   0.59502   0.09715   0.00000  Uiso   1.00
H401   H     0.68352   0.52673   0.21502   0.00000  Uiso   1.00
H402   H     0.98462   0.47384   0.28524   0.00000  Uiso   1.00
H403   H     0.86785   0.40504   0.10186   0.00000  Uiso   1.00
H404   H     0.77401   0.61081   0.47365   0.00000  Uiso   1.00
H405   H     0.83775   0.48320   0.40421   0.00000  Uiso   1.00
H406   H     0.81167   0.55437   0.06902   0.00000  Uiso   1.00
H407   H     0.73660   0.35450   0.28996   0.00000  Uiso   1.00
H408   H     0.76115   0.38333   0.32752   0.00000  Uiso   1.00
N409   N     0.88703   0.34273   0.01527   0.00000  Uiso   1.00
N410   N     0.90298   0.35100   0.17623   0.00000  Uiso   1.00
N411   N     0.93967   0.38905   0.43813   0.00000  Uiso   1.00
N412   N     0.75444   0.61781   0.38602   0.00000  Uiso   1.00
N413   N     0.92747   0.47990   0.38263   0.00000  Uiso   1.00
O414   O     0.83333   0.50000   0.25000   0.00000  Uiso   1.00
O415   O     0.82360   0.45726   0.16625   0.00000  Uiso   1.00
O416   O     0.79354   0.53979   0.33749   0.00000  Uiso   1.00
O417   O     0.87755   0.50826   0.15877   0.00000  Uiso   1.00
O418   O     0.83865   0.49468   0.33749   0.00000  Uiso   1.00
O419   O     0.78948   0.66368   0.29762   0.00000  Uiso   1.00
O420   O     0.86296   0.54163   0.09592   0.00000  Uiso   1.00
O421   O     0.84515   0.41434   0.27820   0.00000  Uiso   1.00
O422   O     0.81247   0.59469   0.26767   0.00000  Uiso   1.00
O423   O     0.74119   0.46584   0.23607   0.00000  Uiso   1.00
O424   O     0.93452   0.52512   0.21805   0.00000  Uiso   1.00
O425   O     0.73656   0.52293   0.27820   0.00000  Uiso   1.00
O426   O     0.92106   0.48610   0.26767   0.00000  Uiso   1.00
O427   O     0.80467   0.40236   0.23607   0.00000  Uiso   1.00
O428   O     0.87104   0.58860   0.21805   0.00000  Uiso   1.00
Zn429  Zn    0.85910   0.47423   0.28277   0.00000  Uiso   1.00
Zn430  Zn    0.80125   0.45711   0.22257   0.00000  Uiso   1.00
Zn431  Zn    0.87833   0.52997   0.21188   0.00000  Uiso   1.00
Zn432  Zn    0.79465   0.53868   0.28277   0.00000  Uiso   1.00
C433   C     0.05248   0.82660   0.25881   0.00000  Uiso   1.00
C434   C     0.21570   0.80929   0.45612   0.00000  Uiso   1.00
C435   C     0.22432   0.77992   0.47728   0.00000  Uiso   1.00
C436   C     0.28104   0.84026   0.24123   0.00000  Uiso   1.00
C437   C     0.21025   0.78469   0.01912   0.00000  Uiso   1.00
C438   C     0.19591   0.82343   0.03842   0.00000  Uiso   1.00
C439   C     0.21111   0.75338   0.04279   0.00000  Uiso   1.00
C440   C     0.20222   0.76257   0.08363   0.00000  Uiso   1.00
C441   C     0.19644   0.83432   0.07837   0.00000  Uiso   1.00
C442   C     0.32706   0.84295   0.23771   0.00000  Uiso   1.00
C443   C     0.00706   0.82434   0.26228   0.00000  Uiso   1.00
C444   C     0.12347   0.90518   0.41864   0.00000  Uiso   1.00
C445   C     0.17873   0.98834   0.23709   0.00000  Uiso   1.00
C446   C     0.15083   0.67920   0.26354   0.00000  Uiso   1.00
C447   C     0.15588   0.72309   0.25903   0.00000  Uiso   1.00
C448   C     0.17658   0.94432   0.24133   0.00000  Uiso   1.00
C449   C     0.18808   0.81199   0.14394   0.00000  Uiso   1.00
C450   C     0.14606   0.85520   0.35623   0.00000  Uiso   1.00
C451   C     0.14227   0.86887   0.39853   0.00000  Uiso   1.00
C452   C     0.19655   0.80304   0.10117   0.00000  Uiso   1.00
C453   C     0.12331   0.91726   0.45786   0.00000  Uiso   1.00
C454   C     0.21636   0.71049   0.02734   0.00000  Uiso   1.00
C455   C     0.16108   0.84626   0.41846   0.00000  Uiso   1.00
C456   C     0.21081   0.67134   0.20321   0.00000  Uiso   1.00
C457   C     0.08593   0.68539   0.31309   0.00000  Uiso   1.00
C458   C     0.23763   0.89653   0.08137   0.00000  Uiso   1.00
C459   C     0.25134   0.74780   0.45563   0.00000  Uiso   1.00
C460   C     0.10367   0.93065   0.40047   0.00000  Uiso   1.00
C461   C     0.24072   0.81149   0.41519   0.00000  Uiso   1.00
C462   C     0.16509   0.86049   0.45657   0.00000  Uiso   1.00
C463   C     0.14317   0.89493   0.47701   0.00000  Uiso   1.00
C464   C     0.18704   0.83936   0.47612   0.00000  Uiso   1.00
C465   C     0.18021   0.84883   0.01757   0.00000  Uiso   1.00
C466   C     0.15492   0.88129   0.03739   0.00000  Uiso   1.00
C467   C     0.13897   0.90533   0.01706   0.00000  Uiso   1.00
H468   H     0.12056   0.93049   0.03340   0.00000  Uiso   1.00
H469   H     0.06214   0.66783   0.33600   0.00000  Uiso   1.00
H470   H     0.24485   0.89965   0.04937   0.00000  Uiso   1.00
H471   H     0.26338   0.88123   0.08698   0.00000  Uiso   1.00
H472   H     0.23813   0.92835   0.09715   0.00000  Uiso   1.00
H473   H     0.01685   0.86007   0.21502   0.00000  Uiso   1.00
H474   H     0.31795   0.80717   0.28524   0.00000  Uiso   1.00
H475   H     0.20118   0.73837   0.10186   0.00000  Uiso   1.00
H476   H     0.10734   0.94414   0.47365   0.00000  Uiso   1.00
H477   H     0.17108   0.81653   0.40421   0.00000  Uiso   1.00
H478   H     0.14500   0.88771   0.06902   0.00000  Uiso   1.00
H479   H     0.06993   0.68783   0.28996   0.00000  Uiso   1.00
H480   H     0.09449   0.71666   0.32752   0.00000  Uiso   1.00
N481   N     0.22037   0.67606   0.01527   0.00000  Uiso   1.00
N482   N     0.23631   0.68433   0.17623   0.00000  Uiso   1.00
N483   N     0.27300   0.72238   0.43813   0.00000  Uiso   1.00
N484   N     0.08777   0.95114   0.38602   0.00000  Uiso   1.00
N485   N     0.26080   0.81323   0.38263   0.00000  Uiso   1.00
O486   O     0.16667   0.83333   0.25000   0.00000  Uiso   1.00
O487   O     0.15693   0.79060   0.16625   0.00000  Uiso   1.00
O488   O     0.12687   0.87313   0.33749   0.00000  Uiso   1.00
O489   O     0.21088   0.84159   0.15877   0.00000  Uiso   1.00
O490   O     0.17198   0.82802   0.33749   0.00000  Uiso   1.00
O491   O     0.12281   0.99701   0.29762   0.00000  Uiso   1.00
O492   O     0.19629   0.87496   0.09592   0.00000  Uiso   1.00
O493   O     0.17849   0.74768   0.27820   0.00000  Uiso   1.00
O494   O     0.14581   0.92803   0.26767   0.00000  Uiso   1.00
O495   O     0.07452   0.79917   0.23607   0.00000  Uiso   1.00
O496   O     0.26785   0.85845   0.21805   0.00000  Uiso   1.00
O497   O     0.06990   0.85627   0.27820   0.00000  Uiso   1.00
O498   O     0.25440   0.81944   0.26767   0.00000  Uiso   1.00
O499   O     0.13800   0.73570   0.23607   0.00000  Uiso   1.00
O500   O     0.20437   0.92193   0.21805   0.00000  Uiso   1.00
Zn501  Zn    0.19244   0.80756   0.28277   0.00000  Uiso   1.00
Zn502  Zn    0.13459   0.79044   0.22257   0.00000  Uiso   1.00
Zn503  Zn    0.21166   0.86331   0.21188   0.00000  Uiso   1.00
Zn504  Zn    0.12798   0.87202   0.28277   0.00000  Uiso   1.00
C505   C     0.38581   0.82660   0.25881   0.00000  Uiso   1.00
C506   C     0.54903   0.80929   0.45612   0.00000  Uiso   1.00
C507   C     0.55765   0.77992   0.47728   0.00000  Uiso   1.00
C508   C     0.61437   0.84026   0.24123   0.00000  Uiso   1.00
C509   C     0.54359   0.78469   0.01912   0.00000  Uiso   1.00
C510   C     0.52925   0.82343   0.03842   0.00000  Uiso   1.00
C511   C     0.54444   0.75338   0.04279   0.00000  Uiso   1.00
C512   C     0.53555   0.76257   0.08363   0.00000  Uiso   1.00
C513   C     0.52977   0.83432   0.07837   0.00000  Uiso   1.00
C514   C     0.66039   0.84295   0.23771   0.00000  Uiso   1.00
C515   C     0.34039   0.82434   0.26228   0.00000  Uiso   1.00
C516   C     0.45680   0.90518   0.41864   0.00000  Uiso   1.00
C517   C     0.51206   0.98834   0.23709   0.00000  Uiso   1.00
C518   C     0.48416   0.67920   0.26354   0.00000  Uiso   1.00
C519   C     0.48921   0.72309   0.25903   0.00000  Uiso   1.00
C520   C     0.50992   0.94432   0.24133   0.00000  Uiso   1.00
C521   C     0.52141   0.81199   0.14394   0.00000  Uiso   1.00
C522   C     0.47940   0.85520   0.35623   0.00000  Uiso   1.00
C523   C     0.47561   0.86887   0.39853   0.00000  Uiso   1.00
C524   C     0.52988   0.80304   0.10117   0.00000  Uiso   1.00
C525   C     0.45664   0.91726   0.45786   0.00000  Uiso   1.00
C526   C     0.54970   0.71049   0.02734   0.00000  Uiso   1.00
C527   C     0.49441   0.84626   0.41846   0.00000  Uiso   1.00
C528   C     0.54414   0.67134   0.20321   0.00000  Uiso   1.00
C529   C     0.41926   0.68539   0.31309   0.00000  Uiso   1.00
C530   C     0.57097   0.89653   0.08137   0.00000  Uiso   1.00
C531   C     0.58467   0.74780   0.45563   0.00000  Uiso   1.00
C532   C     0.43700   0.93065   0.40047   0.00000  Uiso   1.00
C533   C     0.57406   0.81149   0.41519   0.00000  Uiso   1.00
C534   C     0.49842   0.86049   0.45657   0.00000  Uiso   1.00
C535   C     0.47651   0.89493   0.47701   0.00000  Uiso   1.00
C536   C     0.52038   0.83936   0.47612   0.00000  Uiso   1.00
C537   C     0.51355   0.84883   0.01757   0.00000  Uiso   1.00
C538   C     0.48826   0.88129   0.03739   0.00000  Uiso   1.00
C539   C     0.47230   0.90533   0.01706   0.00000  Uiso   1.00
H540   H     0.45390   0.93049   0.03340   0.00000  Uiso   1.00
H541   H     0.39547   0.66783   0.33600   0.00000  Uiso   1.00
H542   H     0.57819   0.89965   0.04937   0.00000  Uiso   1.00
H543   H     0.59671   0.88123   0.08698   0.00000  Uiso   1.00
H544   H     0.57146   0.92835   0.09715   0.00000  Uiso   1.00
H545   H     0.35018   0.86007   0.21502   0.00000  Uiso   1.00
H546   H     0.65128   0.80717   0.28524   0.00000  Uiso   1.00
H547   H     0.53451   0.73837   0.10186   0.00000  Uiso   1.00
H548   H     0.44068   0.94414   0.47365   0.00000  Uiso   1.00
H549   H     0.50442   0.81653   0.40421   0.00000  Uiso   1.00
H550   H     0.47833   0.88771   0.06902   0.00000  Uiso   1.00
H551   H     0.40326   0.68783   0.28996   0.00000  Uiso   1.00
H552   H     0.42782   0.71666   0.32752   0.00000  Uiso   1.00
N553   N     0.55370   0.67606   0.01527   0.00000  Uiso   1.00
N554   N     0.56964   0.68433   0.17623   0.00000  Uiso   1.00
N555   N     0.60634   0.72238   0.43813   0.00000  Uiso   1.00
N556   N     0.42111   0.95114   0.38602   0.00000  Uiso   1.00
N557   N     0.59414   0.81323   0.38263   0.00000  Uiso   1.00
O558   O     0.50000   0.83333   0.25000   0.00000  Uiso   1.00
O559   O     0.49027   0.79060   0.16625   0.00000  Uiso   1.00
O560   O     0.46020   0.87313   0.33749   0.00000  Uiso   1.00
O561   O     0.54421   0.84159   0.15877   0.00000  Uiso   1.00
O562   O     0.50532   0.82802   0.33749   0.00000  Uiso   1.00
O563   O     0.45614   0.99701   0.29762   0.00000  Uiso   1.00
O564   O     0.52963   0.87496   0.09592   0.00000  Uiso   1.00
O565   O     0.51182   0.74768   0.27820   0.00000  Uiso   1.00
O566   O     0.47914   0.92803   0.26767   0.00000  Uiso   1.00
O567   O     0.40785   0.79917   0.23607   0.00000  Uiso   1.00
O568   O     0.60119   0.85845   0.21805   0.00000  Uiso   1.00
O569   O     0.40323   0.85627   0.27820   0.00000  Uiso   1.00
O570   O     0.58773   0.81944   0.26767   0.00000  Uiso   1.00
O571   O     0.47133   0.73570   0.23607   0.00000  Uiso   1.00
O572   O     0.53771   0.92193   0.21805   0.00000  Uiso   1.00
Zn573  Zn    0.52577   0.80756   0.28277   0.00000  Uiso   1.00
Zn574  Zn    0.46792   0.79044   0.22257   0.00000  Uiso   1.00
Zn575  Zn    0.54500   0.86331   0.21188   0.00000  Uiso   1.00
Zn576  Zn    0.46131   0.87202   0.28277   0.00000  Uiso   1.00
C577   C     0.71914   0.82660   0.25881   0.00000  Uiso   1.00
C578   C     0.88237   0.80929   0.45612   0.00000  Uiso   1.00
C579   C     0.89098   0.77992   0.47728   0.00000  Uiso   1.00
C580   C     0.94771   0.84026   0.24123   0.00000  Uiso   1.00
C581   C     0.87692   0.78469   0.01912   0.00000  Uiso   1.00
C582   C     0.86258   0.82343   0.03842   0.00000  Uiso   1.00
C583   C     0.87778   0.75338   0.04279   0.00000  Uiso   1.00
C584   C     0.86888   0.76257   0.08363   0.00000  Uiso   1.00
C585   C     0.86311   0.83432   0.07837   0.00000  Uiso   1.00
C586   C     0.99373   0.84295   0.23771   0.00000  Uiso   1.00
C587   C     0.67373   0.82434   0.26228   0.00000  Uiso   1.00
C588   C     0.79014   0.90518   0.41864   0.00000  Uiso   1.00
C589   C     0.84539   0.98834   0.23709   0.00000  Uiso   1.00
C590   C     0.81749   0.67920   0.26354   0.00000  Uiso   1.00
C591   C     0.82255   0.72309   0.25903   0.00000  Uiso   1.00
C592   C     0.84325   0.94432   0.24133   0.00000  Uiso   1.00
C593   C     0.85475   0.81199   0.14394   0.00000  Uiso   1.00
C594   C     0.81273   0.85520   0.35623   0.00000  Uiso   1.00
C595   C     0.80894   0.86887   0.39853   0.00000  Uiso   1.00
C596   C     0.86322   0.80304   0.10117   0.00000  Uiso   1.00
C597   C     0.78998   0.91726   0.45786   0.00000  Uiso   1.00
C598   C     0.88303   0.71049   0.02734   0.00000  Uiso   1.00
C599   C     0.82774   0.84626   0.41846   0.00000  Uiso   1.00
C600   C     0.87747   0.67134   0.20321   0.00000  Uiso   1.00
C601   C     0.75260   0.68539   0.31309   0.00000  Uiso   1.00
C602   C     0.90430   0.89653   0.08137   0.00000  Uiso   1.00
C603   C     0.91801   0.74780   0.45563   0.00000  Uiso   1.00
C604   C     0.77034   0.93065   0.40047   0.00000  Uiso   1.00
C605   C     0.90739   0.81149   0.41519   0.00000  Uiso   1.00
C606   C     0.83175   0.86049   0.45657   0.00000  Uiso   1.00
C607   C     0.80984   0.89493   0.47701   0.00000  Uiso   1.00
C608   C     0.85371   0.83936   0.47612   0.00000  Uiso   1.00
C609   C     0.84688   0.84883   0.01757   0.00000  Uiso   1.00
C610   C     0.82159   0.88129   0.03739   0.00000  Uiso   1.00
C611   C     0.80564   0.90533   0.01706   0.00000  Uiso   1.00
H612   H     0.78723   0.93049   0.03340   0.00000  Uiso   1.00
H613   H     0.72880   0.66783   0.33600   0.00000  Uiso   1.00
H614   H     0.91152   0.89965   0.04937   0.00000  Uiso   1.00
H615   H     0.93004   0.88123   0.08698   0.00000  Uiso   1.00
H616   H     0.90480   0.92835   0.09715   0.00000  Uiso   1.00
H617   H     0.68352   0.86007   0.21502   0.00000  Uiso   1.00
H618   H     0.98462   0.80717   0.28524   0.00000  Uiso   1.00
H619   H     0.86785   0.73837   0.10186   0.00000  Uiso   1.00
H620   H     0.77401   0.94414   0.47365   0.00000  Uiso   1.00
H621   H     0.83775   0.81653   0.40421   0.00000  Uiso   1.00
H622   H     0.81167   0.88771   0.06902   0.00000  Uiso   1.00
H623   H     0.73660   0.68783   0.28996   0.00000  Uiso   1.00
H624   H     0.76115   0.71666   0.32752   0.00000  Uiso   1.00
N625   N     0.88703   0.67606   0.01527   0.00000  Uiso   1.00
N626   N     0.90298   0.68433   0.17623   0.00000  Uiso   1.00
N627   N     0.93967   0.72238   0.43813   0.00000  Uiso   1.00
N628   N     0.75444   0.95114   0.38602   0.00000  Uiso   1.00
N629   N     0.92747   0.81323   0.38263   0.00000  Uiso   1.00
O630   O     0.83333   0.83333   0.25000   0.00000  Uiso   1.00
O631   O     0.82360   0.79060   0.16625   0.00000  Uiso   1.00
O632   O     0.79354   0.87313   0.33749   0.00000  Uiso   1.00
O633   O     0.87755   0.84159   0.15877   0.00000  Uiso   1.00
O634   O     0.83865   0.82802   0.33749   0.00000  Uiso   1.00
O635   O     0.78948   0.99701   0.29762   0.00000  Uiso   1.00
O636   O     0.86296   0.87496   0.09592   0.00000  Uiso   1.00
O637   O     0.84515   0.74768   0.27820   0.00000  Uiso   1.00
O638   O     0.81247   0.92803   0.26767   0.00000  Uiso   1.00
O639   O     0.74119   0.79917   0.23607   0.00000  Uiso   1.00
O640   O     0.93452   0.85845   0.21805   0.00000  Uiso   1.00
O641   O     0.73656   0.85627   0.27820   0.00000  Uiso   1.00
O642   O     0.92106   0.81944   0.26767   0.00000  Uiso   1.00
O643   O     0.80467   0.73570   0.23607   0.00000  Uiso   1.00
O644   O     0.87104   0.92193   0.21805   0.00000  Uiso   1.00
Zn645  Zn    0.85910   0.80756   0.28277   0.00000  Uiso   1.00
Zn646  Zn    0.80125   0.79044   0.22257   0.00000  Uiso   1.00
Zn647  Zn    0.87833   0.86331   0.21188   0.00000  Uiso   1.00
Zn648  Zn    0.79465   0.87202   0.28277   0.00000  Uiso   1.00
C649   C     0.05248   0.15994   0.75881   0.00000  Uiso   1.00
C650   C     0.21570   0.14263   0.95612   0.00000  Uiso   1.00
C651   C     0.22432   0.11325   0.97728   0.00000  Uiso   1.00
C652   C     0.28104   0.17359   0.74123   0.00000  Uiso   1.00
C653   C     0.21025   0.11802   0.51912   0.00000  Uiso   1.00
C654   C     0.19591   0.15676   0.53842   0.00000  Uiso   1.00
C655   C     0.21111   0.08671   0.54279   0.00000  Uiso   1.00
C656   C     0.20222   0.09591   0.58363   0.00000  Uiso   1.00
C657   C     0.19644   0.16765   0.57837   0.00000  Uiso   1.00
C658   C     0.32706   0.17629   0.73771   0.00000  Uiso   1.00
C659   C     0.00706   0.15768   0.76228   0.00000  Uiso   1.00
C660   C     0.12347   0.23851   0.91864   0.00000  Uiso   1.00
C661   C     0.17873   0.32168   0.73709   0.00000  Uiso   1.00
C662   C     0.15083   0.01253   0.76354   0.00000  Uiso   1.00
C663   C     0.15588   0.05642   0.75903   0.00000  Uiso   1.00
C664   C     0.17658   0.27766   0.74133   0.00000  Uiso   1.00
C665   C     0.18808   0.14533   0.64394   0.00000  Uiso   1.00
C666   C     0.14606   0.18853   0.85623   0.00000  Uiso   1.00
C667   C     0.14227   0.20220   0.89853   0.00000  Uiso   1.00
C668   C     0.19655   0.13638   0.60117   0.00000  Uiso   1.00
C669   C     0.12331   0.25059   0.95786   0.00000  Uiso   1.00
C670   C     0.21636   0.04383   0.52734   0.00000  Uiso   1.00
C671   C     0.16108   0.17959   0.91846   0.00000  Uiso   1.00
C672   C     0.21081   0.00467   0.70321   0.00000  Uiso   1.00
C673   C     0.08593   0.01872   0.81309   0.00000  Uiso   1.00
C674   C     0.23763   0.22986   0.58137   0.00000  Uiso   1.00
C675   C     0.25134   0.08113   0.95563   0.00000  Uiso   1.00
C676   C     0.10367   0.26398   0.90047   0.00000  Uiso   1.00
C677   C     0.24072   0.14482   0.91519   0.00000  Uiso   1.00
C678   C     0.16509   0.19382   0.95657   0.00000  Uiso   1.00
C679   C     0.14317   0.22826   0.97701   0.00000  Uiso   1.00
C680   C     0.18704   0.17269   0.97612   0.00000  Uiso   1.00
C681   C     0.18021   0.18216   0.51757   0.00000  Uiso   1.00
C682   C     0.15492   0.21462   0.53739   0.00000  Uiso   1.00
C683   C     0.13897   0.23866   0.51706   0.00000  Uiso   1.00
H684   H     0.12056   0.26382   0.53340   0.00000  Uiso   1.00
H685   H     0.06214   0.00116   0.83600   0.00000  Uiso   1.00
H686   H     0.24485   0.23299   0.54937   0.00000  Uiso   1.00
H687   H     0.26338   0.21457   0.58698   0.00000  Uiso   1.00
H688   H     0.23813   0.26169   0.59715   0.00000  Uiso   1.00
H689   H     0.01685   0.19340   0.71502   0.00000  Uiso   1.00
H690   H     0.31795   0.14051   0.78524   0.00000  Uiso   1.00
H691   H     0.20118   0.07171   0.60186   0.00000  Uiso   1.00
H692   H     0.10734   0.27748   0.97365   0.00000  Uiso   1.00
H693   H     0.17108   0.14987   0.90421   0.00000  Uiso   1.00
H694   H     0.14500   0.22104   0.56902   0.00000  Uiso   1.00
H695   H     0.06993   0.02117   0.78996   0.00000  Uiso   1.00
H696   H     0.09449   0.05000   0.82752   0.00000  Uiso   1.00
N697   N     0.22037   0.00939   0.51527   0.00000  Uiso   1.00
N698   N     0.23631   0.01767   0.67623   0.00000  Uiso   1.00
N699   N     0.27300   0.05572   0.93813   0.00000  Uiso   1.00
N700   N     0.08777   0.28447   0.88602   0.00000  Uiso   1.00
N701   N     0.26080   0.14656   0.88263   0.00000  Uiso   1.00
O702   O     0.16667   0.16667   0.75000   0.00000  Uiso   1.00
O703   O     0.15693   0.12393   0.66625   0.00000  Uiso   1.00
O704   O     0.12687   0.20646   0.83749   0.00000  Uiso   1.00
O705   O     0.21088   0.17493   0.65877   0.00000  Uiso   1.00
O706   O     0.17198   0.16135   0.83749   0.00000  Uiso   1.00
O707   O     0.12281   0.33034   0.79762   0.00000  Uiso   1.00
O708   O     0.19629   0.20830   0.59592   0.00000  Uiso   1.00
O709   O     0.17849   0.08101   0.77820   0.00000  Uiso   1.00
O710   O     0.14581   0.26136   0.76767   0.00000  Uiso   1.00
O711   O     0.07452   0.13251   0.73607   0.00000  Uiso   1.00
O712   O     0.26785   0.19179   0.71805   0.00000  Uiso   1.00
O713   O     0.06990   0.18960   0.77820   0.00000  Uiso   1.00
O714   O     0.25440   0.15277   0.76767   0.00000  Uiso   1.00
O715   O     0.13800   0.06903   0.73607   0.00000  Uiso   1.00
O716   O     0.20437   0.25527   0.71805   0.00000  Uiso   1.00
Zn717  Zn    0.19244   0.14090   0.78277   0.00000  Uiso   1.00
Zn718  Zn    0.13459   0.12378   0.72257   0.00000  Uiso   1.00
Zn719  Zn    0.21166   0.19664   0.71188   0.00000  Uiso   1.00
Zn720  Zn    0.12798   0.20535   0.78277   0.00000  Uiso   1.00
C721   C     0.38581   0.15994   0.75881   0.00000  Uiso   1.00
C722   C     0.54903   0.14263   0.95612   0.00000  Uiso   1.00
C723   C     0.55765   0.11325   0.97728   0.00000  Uiso   1.00
C724   C     0.61437   0.17359   0.74123   0.00000  Uiso   1.00
C725   C     0.54359   0.11802   0.51912   0.00000  Uiso   1.00
C726   C     0.52925   0.15676   0.53842   0.00000  Uiso   1.00
C727   C     0.54444   0.08671   0.54279   0.00000  Uiso   1.00
C728   C     0.53555   0.09591   0.58363   0.00000  Uiso   1.00
C729   C     0.52977   0.16765   0.57837   0.00000  Uiso   1.00
C730   C     0.66039   0.17629   0.73771   0.00000  Uiso   1.00
C731   C     0.34039   0.15768   0.76228   0.00000  Uiso   1.00
C732   C     0.45680   0.23851   0.91864   0.00000  Uiso   1.00
C733   C     0.51206   0.32168   0.73709   0.00000  Uiso   1.00
C734   C     0.48416   0.01253   0.76354   0.00000  Uiso   1.00
C735   C     0.48921   0.05642   0.75903   0.00000  Uiso   1.00
C736   C     0.50992   0.27766   0.74133   0.00000  Uiso   1.00
C737   C     0.52141   0.14533   0.64394   0.00000  Uiso   1.00
C738   C     0.47940   0.18853   0.85623   0.00000  Uiso   1.00
C739   C     0.47561   0.20220   0.89853   0.00000  Uiso   1.00
C740   C     0.52988   0.13638   0.60117   0.00000  Uiso   1.00
C741   C     0.45664   0.25059   0.95786   0.00000  Uiso   1.00
C742   C     0.54970   0.04383   0.52734   0.00000  Uiso   1.00
C743   C     0.49441   0.17959   0.91846   0.00000  Uiso   1.00
C744   C     0.54414   0.00467   0.70321   0.00000  Uiso   1.00
C745   C     0.41926   0.01872   0.81309   0.00000  Uiso   1.00
C746   C     0.57097   0.22986   0.58137   0.00000  Uiso   1.00
C747   C     0.58467   0.08113   0.95563   0.00000  Uiso   1.00
C748   C     0.43700   0.26398   0.90047   0.00000  Uiso   1.00
C749   C     0.57406   0.14482   0.91519   0.00000  Uiso   1.00
C750   C     0.49842   0.19382   0.95657   0.00000  Uiso   1.00
C751   C     0.47651   0.22826   0.97701   0.00000  Uiso   1.00
C752   C     0.52038   0.17269   0.97612   0.00000  Uiso   1.00
C753   C     0.51355   0.18216   0.51757   0.00000  Uiso   1.00
C754   C     0.48826   0.21462   0.53739   0.00000  Uiso   1.00
C755   C     0.47230   0.23866   0.51706   0.00000  Uiso   1.00
H756   H     0.45390   0.26382   0.53340   0.00000  Uiso   1.00
H757   H     0.39547   0.00116   0.83600   0.00000  Uiso   1.00
H758   H     0.57819   0.23299   0.54937   0.00000  Uiso   1.00
H759   H     0.59671   0.21457   0.58698   0.00000  Uiso   1.00
H760   H     0.57146   0.26169   0.59715   0.00000  Uiso   1.00
H761   H     0.35018   0.19340   0.71502   0.00000  Uiso   1.00
H762   H     0.65128   0.14051   0.78524   0.00000  Uiso   1.00
H763   H     0.53451   0.07171   0.60186   0.00000  Uiso   1.00
H764   H     0.44068   0.27748   0.97365   0.00000  Uiso   1.00
H765   H     0.50442   0.14987   0.90421   0.00000  Uiso   1.00
H766   H     0.47833   0.22104   0.56902   0.00000  Uiso   1.00
H767   H     0.40326   0.02117   0.78996   0.00000  Uiso   1.00
H768   H     0.42782   0.05000   0.82752   0.00000  Uiso   1.00
N769   N     0.55370   0.00939   0.51527   0.00000  Uiso   1.00
N770   N     0.56964   0.01767   0.67623   0.00000  Uiso   1.00
N771   N     0.60634   0.05572   0.93813   0.00000  Uiso   1.00
N772   N     0.42111   0.28447   0.88602   0.00000  Uiso   1.00
N773   N     0.59414   0.14656   0.88263   0.00000  Uiso   1.00
O774   O     0.50000   0.16667   0.75000   0.00000  Uiso   1.00
O775   O     0.49027   0.12393   0.66625   0.00000  Uiso   1.00
O776   O     0.46020   0.20646   0.83749   0.00000  Uiso   1.00
O777   O     0.54421   0.17493   0.65877   0.00000  Uiso   1.00
O778   O     0.50532   0.16135   0.83749   0.00000  Uiso   1.00
O779   O     0.45614   0.33034   0.79762   0.00000  Uiso   1.00
O780   O     0.52963   0.20830   0.59592   0.00000  Uiso   1.00
O781   O     0.51182   0.08101   0.77820   0.00000  Uiso   1.00
O782   O     0.47914   0.26136   0.76767   0.00000  Uiso   1.00
O783   O     0.40785   0.13251   0.73607   0.00000  Uiso   1.00
O784   O     0.60119   0.19179   0.71805   0.00000  Uiso   1.00
O785   O     0.40323   0.18960   0.77820   0.00000  Uiso   1.00
O786   O     0.58773   0.15277   0.76767   0.00000  Uiso   1.00
O787   O     0.47133   0.06903   0.73607   0.00000  Uiso   1.00
O788   O     0.53771   0.25527   0.71805   0.00000  Uiso   1.00
Zn789  Zn    0.52577   0.14090   0.78277   0.00000  Uiso   1.00
Zn790  Zn    0.46792   0.12378   0.72257   0.00000  Uiso   1.00
Zn791  Zn    0.54500   0.19664   0.71188   0.00000  Uiso   1.00
Zn792  Zn    0.46131   0.20535   0.78277   0.00000  Uiso   1.00
C793   C     0.71914   0.15994   0.75881   0.00000  Uiso   1.00
C794   C     0.88237   0.14263   0.95612   0.00000  Uiso   1.00
C795   C     0.89098   0.11325   0.97728   0.00000  Uiso   1.00
C796   C     0.94771   0.17359   0.74123   0.00000  Uiso   1.00
C797   C     0.87692   0.11802   0.51912   0.00000  Uiso   1.00
C798   C     0.86258   0.15676   0.53842   0.00000  Uiso   1.00
C799   C     0.87778   0.08671   0.54279   0.00000  Uiso   1.00
C800   C     0.86888   0.09591   0.58363   0.00000  Uiso   1.00
C801   C     0.86311   0.16765   0.57837   0.00000  Uiso   1.00
C802   C     0.99373   0.17629   0.73771   0.00000  Uiso   1.00
C803   C     0.67373   0.15768   0.76228   0.00000  Uiso   1.00
C804   C     0.79014   0.23851   0.91864   0.00000  Uiso   1.00
C805   C     0.84539   0.32168   0.73709   0.00000  Uiso   1.00
C806   C     0.81749   0.01253   0.76354   0.00000  Uiso   1.00
C807   C     0.82255   0.05642   0.75903   0.00000  Uiso   1.00
C808   C     0.84325   0.27766   0.74133   0.00000  Uiso   1.00
C809   C     0.85475   0.14533   0.64394   0.00000  Uiso   1.00
C810   C     0.81273   0.18853   0.85623   0.00000  Uiso   1.00
C811   C     0.80894   0.20220   0.89853   0.00000  Uiso   1.00
C812   C     0.86322   0.13638   0.60117   0.00000  Uiso   1.00
C813   C     0.78998   0.25059   0.95786   0.00000  Uiso   1.00
C814   C     0.88303   0.04383   0.52734   0.00000  Uiso   1.00
C815   C     0.82774   0.17959   0.91846   0.00000  Uiso   1.00
C816   C     0.87747   0.00467   0.70321   0.00000  Uiso   1.00
C817   C     0.75260   0.01872   0.81309   0.00000  Uiso   1.00
C818   C     0.90430   0.22986   0.58137   0.00000  Uiso   1.00
C819   C     0.91801   0.08113   0.95563   0.00000  Uiso   1.00
C820   C     0.77034   0.26398   0.90047   0.00000  Uiso   1.00
C821   C     0.90739   0.14482   0.91519   0.00000  Uiso   1.00
C822   C     0.83175   0.19382   0.95657   0.00000  Uiso   1.00
C823   C     0.80984   0.22826   0.97701   0.00000  Uiso   1.00
C824   C     0.85371   0.17269   0.97612   0.00000  Uiso   1.00
C825   C     0.84688   0.18216   0.51757   0.00000  Uiso   1.00
C826   C     0.82159   0.21462   0.53739   0.00000  Uiso   1.00
C827   C     0.80564   0.23866   0.51706   0.00000  Uiso   1.00
H828   H     0.78723   0.26382   0.53340   0.00000  Uiso   1.00
H829   H     0.72880   0.00116   0.83600   0.00000  Uiso   1.00
H830   H     0.91152   0.23299   0.54937   0.00000  Uiso   1.00
H831   H     0.93004   0.21457   0.58698   0.00000  Uiso   1.00
H832   H     0.90480   0.26169   0.59715   0.00000  Uiso   1.00
H833   H     0.68352   0.19340   0.71502   0.00000  Uiso   1.00
H834   H     0.98462   0.14051   0.78524   0.00000  Uiso   1.00
H835   H     0.86785   0.07171   0.60186   0.00000  Uiso   1.00
H836   H     0.77401   0.27748   0.97365   0.00000  Uiso   1.00
H837   H     0.83775   0.14987   0.90421   0.00000  Uiso   1.00
H838   H     0.81167   0.22104   0.56902   0.00000  Uiso   1.00
H839   H     0.73660   0.02117   0.78996   0.00000  Uiso   1.00
H840   H     0.76115   0.05000   0.82752   0.00000  Uiso   1.00
N841   N     0.88703   0.00939   0.51527   0.00000  Uiso   1.00
N842   N     0.90298   0.01767   0.67623   0.00000  Uiso   1.00
N843   N     0.93967   0.05572   0.93813   0.00000  Uiso   1.00
N844   N     0.75444   0.28447   0.88602   0.00000  Uiso   1.00
N845   N     0.92747   0.14656   0.88263   0.00000  Uiso   1.00
O846   O     0.83333   0.16667   0.75000   0.00000  Uiso   1.00
O847   O     0.82360   0.12393   0.66625   0.00000  Uiso   1.00
O848   O     0.79354   0.20646   0.83749   0.00000  Uiso   1.00
O849   O     0.87755   0.17493   0.65877   0.00000  Uiso   1.00
O850   O     0.83865   0.16135   0.83749   0.00000  Uiso   1.00
O851   O     0.78948   0.33034   0.79762   0.00000  Uiso   1.00
O852   O     0.86296   0.20830   0.59592   0.00000  Uiso   1.00
O853   O     0.84515   0.08101   0.77820   0.00000  Uiso   1.00
O854   O     0.81247   0.26136   0.76767   0.00000  Uiso   1.00
O855   O     0.74119   0.13251   0.73607   0.00000  Uiso   1.00
O856   O     0.93452   0.19179   0.71805   0.00000  Uiso   1.00
O857   O     0.73656   0.18960   0.77820   0.00000  Uiso   1.00
O858   O     0.92106   0.15277   0.76767   0.00000  Uiso   1.00
O859   O     0.80467   0.06903   0.73607   0.00000  Uiso   1.00
O860   O     0.87104   0.25527   0.71805   0.00000  Uiso   1.00
Zn861  Zn    0.85910   0.14090   0.78277   0.00000  Uiso   1.00
Zn862  Zn    0.80125   0.12378   0.72257   0.00000  Uiso   1.00
Zn863  Zn    0.87833   0.19664   0.71188   0.00000  Uiso   1.00
Zn864  Zn    0.79465   0.20535   0.78277   0.00000  Uiso   1.00
C865   C     0.05248   0.49327   0.75881   0.00000  Uiso   1.00
C866   C     0.21570   0.47596   0.95612   0.00000  Uiso   1.00
C867   C     0.22432   0.44658   0.97728   0.00000  Uiso   1.00
C868   C     0.28104   0.50693   0.74123   0.00000  Uiso   1.00
C869   C     0.21025   0.45135   0.51912   0.00000  Uiso   1.00
C870   C     0.19591   0.49009   0.53842   0.00000  Uiso   1.00
C871   C     0.21111   0.42005   0.54279   0.00000  Uiso   1.00
C872   C     0.20222   0.42924   0.58363   0.00000  Uiso   1.00
C873   C     0.19644   0.50098   0.57837   0.00000  Uiso   1.00
C874   C     0.32706   0.50962   0.73771   0.00000  Uiso   1.00
C875   C     0.00706   0.49101   0.76228   0.00000  Uiso   1.00
C876   C     0.12347   0.57184   0.91864   0.00000  Uiso   1.00
C877   C     0.17873   0.65501   0.73709   0.00000  Uiso   1.00
C878   C     0.15083   0.34587   0.76354   0.00000  Uiso   1.00
C879   C     0.15588   0.38975   0.75903   0.00000  Uiso   1.00
C880   C     0.17658   0.61099   0.74133   0.00000  Uiso   1.00
C881   C     0.18808   0.47866   0.64394   0.00000  Uiso   1.00
C882   C     0.14606   0.52187   0.85623   0.00000  Uiso   1.00
C883   C     0.14227   0.53554   0.89853   0.00000  Uiso   1.00
C884   C     0.19655   0.46971   0.60117   0.00000  Uiso   1.00
C885   C     0.12331   0.58393   0.95786   0.00000  Uiso   1.00
C886   C     0.21636   0.37716   0.52734   0.00000  Uiso   1.00
C887   C     0.16108   0.51293   0.91846   0.00000  Uiso   1.00
C888   C     0.21081   0.33801   0.70321   0.00000  Uiso   1.00
C889   C     0.08593   0.35205   0.81309   0.00000  Uiso   1.00
C890   C     0.23763   0.56320   0.58137   0.00000  Uiso   1.00
C891   C     0.25134   0.41447   0.95563   0.00000  Uiso   1.00
C892   C     0.10367   0.59731   0.90047   0.00000  Uiso   1.00
C893   C     0.24072   0.47816   0.91519   0.00000  Uiso   1.00
C894   C     0.16509   0.52715   0.95657   0.00000  Uiso   1.00
C895   C     0.14317   0.56159   0.97701   0.00000  Uiso   1.00
C896   C     0.18704   0.50602   0.97612   0.00000  Uiso   1.00
C897   C     0.18021   0.51549   0.51757   0.00000  Uiso   1.00
C898   C     0.15492   0.54795   0.53739   0.00000  Uiso   1.00
C899   C     0.13897   0.57200   0.51706   0.00000  Uiso   1.00
H900   H     0.12056   0.59715   0.53340   0.00000  Uiso   1.00
H901   H     0.06214   0.33450   0.83600   0.00000  Uiso   1.00
H902   H     0.24485   0.56632   0.54937   0.00000  Uiso   1.00
H903   H     0.26338   0.54790   0.58698   0.00000  Uiso   1.00
H904   H     0.23813   0.59502   0.59715   0.00000  Uiso   1.00
H905   H     0.01685   0.52673   0.71502   0.00000  Uiso   1.00
H906   H     0.31795   0.47384   0.78524   0.00000  Uiso   1.00
H907   H     0.20118   0.40504   0.60186   0.00000  Uiso   1.00
H908   H     0.10734   0.61081   0.97365   0.00000  Uiso   1.00
H909   H     0.17108   0.48320   0.90421   0.00000  Uiso   1.00
H910   H     0.14500   0.55437   0.56902   0.00000  Uiso   1.00
H911   H     0.06993   0.35450   0.78996   0.00000  Uiso   1.00
H912   H     0.09449   0.38333   0.82752   0.00000  Uiso   1.00
N913   N     0.22037   0.34273   0.51527   0.00000  Uiso   1.00
N914   N     0.23631   0.35100   0.67623   0.00000  Uiso   1.00
N915   N     0.27300   0.38905   0.93813   0.00000  Uiso   1.00
N916   N     0.08777   0.61781   0.88602   0.00000  Uiso   1.00
N917   N     0.26080   0.47990   0.88263   0.00000  Uiso   1.00
O918   O     0.16667   0.50000   0.75000   0.00000  Uiso   1.00
O919   O     0.15693   0.45726   0.66625   0.00000  Uiso   1.00
O920   O     0.12687   0.53979   0.83749   0.00000  Uiso   1.00
O921   O     0.21088   0.50826   0.65877   0.00000  Uiso   1.00
O922   O     0.17198   0.49468   0.83749   0.00000  Uiso   1.00
O923   O     0.12281   0.66368   0.79762   0.00000  Uiso   1.00
O924   O     0.19629   0.54163   0.59592   0.00000  Uiso   1.00
O925   O     0.17849   0.41434   0.77820   0.00000  Uiso   1.00
O926   O     0.14581   0.59469   0.76767   0.00000  Uiso   1.00
O927   O     0.07452   0.46584   0.73607   0.00000  Uiso   1.00
O928   O     0.26785   0.52512   0.71805   0.00000  Uiso   1.00
O929   O     0.06990   0.52293   0.77820   0.00000  Uiso   1.00
O930   O     0.25440   0.48610   0.76767   0.00000  Uiso   1.00
O931   O     0.13800   0.40236   0.73607   0.00000  Uiso   1.00
O932   O     0.20437   0.58860   0.71805   0.00000  Uiso   1.00
Zn933  Zn    0.19244   0.47423   0.78277   0.00000  Uiso   1.00
Zn934  Zn    0.13459   0.45711   0.72257   0.00000  Uiso   1.00
Zn935  Zn    0.21166   0.52997   0.71188   0.00000  Uiso   1.00
Zn936  Zn    0.12798   0.53868   0.78277   0.00000  Uiso   1.00
C937   C     0.38581   0.49327   0.75881   0.00000  Uiso   1.00
C938   C     0.54903   0.47596   0.95612   0.00000  Uiso   1.00
C939   C     0.55765   0.44658   0.97728   0.00000  Uiso   1.00
C940   C     0.61437   0.50693   0.74123   0.00000  Uiso   1.00
C941   C     0.54359   0.45135   0.51912   0.00000  Uiso   1.00
C942   C     0.52925   0.49009   0.53842   0.00000  Uiso   1.00
C943   C     0.54444   0.42005   0.54279   0.00000  Uiso   1.00
C944   C     0.53555   0.42924   0.58363   0.00000  Uiso   1.00
C945   C     0.52977   0.50098   0.57837   0.00000  Uiso   1.00
C946   C     0.66039   0.50962   0.73771   0.00000  Uiso   1.00
C947   C     0.34039   0.49101   0.76228   0.00000  Uiso   1.00
C948   C     0.45680   0.57184   0.91864   0.00000  Uiso   1.00
C949   C     0.51206   0.65501   0.73709   0.00000  Uiso   1.00
C950   C     0.48416   0.34587   0.76354   0.00000  Uiso   1.00
C951   C     0.48921   0.38975   0.75903   0.00000  Uiso   1.00
C952   C     0.50992   0.61099   0.74133   0.00000  Uiso   1.00
C953   C     0.52141   0.47866   0.64394   0.00000  Uiso   1.00
C954   C     0.47940   0.52187   0.85623   0.00000  Uiso   1.00
C955   C     0.47561   0.53554   0.89853   0.00000  Uiso   1.00
C956   C     0.52988   0.46971   0.60117   0.00000  Uiso   1.00
C957   C     0.45664   0.58393   0.95786   0.00000  Uiso   1.00
C958   C     0.54970   0.37716   0.52734   0.00000  Uiso   1.00
C959   C     0.49441   0.51293   0.91846   0.00000  Uiso   1.00
C960   C     0.54414   0.33801   0.70321   0.00000  Uiso   1.00
C961   C     0.41926   0.35205   0.81309   0.00000  Uiso   1.00
C962   C     0.57097   0.56320   0.58137   0.00000  Uiso   1.00
C963   C     0.58467   0.41447   0.95563   0.00000  Uiso   1.00
C964   C     0.43700   0.59731   0.90047   0.00000  Uiso   1.00
C965   C     0.57406   0.47816   0.91519   0.00000  Uiso   1.00
C966   C     0.49842   0.52715   0.95657   0.00000  Uiso   1.00
C967   C     0.47651   0.56159   0.97701   0.00000  Uiso   1.00
C968   C     0.52038   0.50602   0.97612   0.00000  Uiso   1.00
C969   C     0.51355   0.51549   0.51757   0.00000  Uiso   1.00
C970   C     0.48826   0.54795   0.53739   0.00000  Uiso   1.00
C971   C     0.47230   0.57200   0.51706   0.00000  Uiso   1.00
H972   H     0.45390   0.59715   0.53340   0.00000  Uiso   1.00
H973   H     0.39547   0.33450   0.83600   0.00000  Uiso   1.00
H974   H     0.57819   0.56632   0.54937   0.00000  Uiso   1.00
H975   H     0.59671   0.54790   0.58698   0.00000  Uiso   1.00
H976   H     0.57146   0.59502   0.59715   0.00000  Uiso   1.00
H977   H     0.35018   0.52673   0.71502   0.00000  Uiso   1.00
H978   H     0.65128   0.47384   0.78524   0.00000  Uiso   1.00
H979   H     0.53451   0.40504   0.60186   0.00000  Uiso   1.00
H980   H     0.44068   0.61081   0.97365   0.00000  Uiso   1.00
H981   H     0.50442   0.48320   0.90421   0.00000  Uiso   1.00
H982   H     0.47833   0.55437   0.56902   0.00000  Uiso   1.00
H983   H     0.40326   0.35450   0.78996   0.00000  Uiso   1.00
H984   H     0.42782   0.38333   0.82752   0.00000  Uiso   1.00
N985   N     0.55370   0.34273   0.51527   0.00000  Uiso   1.00
N986   N     0.56964   0.35100   0.67623   0.00000  Uiso   1.00
N987   N     0.60634   0.38905   0.93813   0.00000  Uiso   1.00
N988   N     0.42111   0.61781   0.88602   0.00000  Uiso   1.00
N989   N     0.59414   0.47990   0.88263   0.00000  Uiso   1.00
O990   O     0.50000   0.50000   0.75000   0.00000  Uiso   1.00
O991   O     0.49027   0.45726   0.66625   0.00000  Uiso   1.00
O992   O     0.46020   0.53979   0.83749   0.00000  Uiso   1.00
O993   O     0.54421   0.50826   0.65877   0.00000  Uiso   1.00
O994   O     0.50532   0.49468   0.83749   0.00000  Uiso   1.00
O995   O     0.45614   0.66368   0.79762   0.00000  Uiso   1.00
O996   O     0.52963   0.54163   0.59592   0.00000  Uiso   1.00
O997   O     0.51182   0.41434   0.77820   0.00000  Uiso   1.00
O998   O     0.47914   0.59469   0.76767   0.00000  Uiso   1.00
O999   O     0.40785   0.46584   0.73607   0.00000  Uiso   1.00
O1000  O     0.60119   0.52512   0.71805   0.00000  Uiso   1.00
O1001  O     0.40323   0.52293   0.77820   0.00000  Uiso   1.00
O1002  O     0.58773   0.48610   0.76767   0.00000  Uiso   1.00
O1003  O     0.47133   0.40236   0.73607   0.00000  Uiso   1.00
O1004  O     0.53771   0.58860   0.71805   0.00000  Uiso   1.00
Zn1005 Zn    0.52577   0.47423   0.78277   0.00000  Uiso   1.00
Zn1006 Zn    0.46792   0.45711   0.72257   0.00000  Uiso   1.00
Zn1007 Zn    0.54500   0.52997   0.71188   0.00000  Uiso   1.00
Zn1008 Zn    0.46131   0.53868   0.78277   0.00000  Uiso   1.00
C1009  C     0.71914   0.49327   0.75881   0.00000  Uiso   1.00
C1010  C     0.88237   0.47596   0.95612   0.00000  Uiso   1.00
C1011  C     0.89098   0.44658   0.97728   0.00000  Uiso   1.00
C1012  C     0.94771   0.50693   0.74123   0.00000  Uiso   1.00
C1013  C     0.87692   0.45135   0.51912   0.00000  Uiso   1.00
C1014  C     0.86258   0.49009   0.53842   0.00000  Uiso   1.00
C1015  C     0.87778   0.42005   0.54279   0.00000  Uiso   1.00
C1016  C     0.86888   0.42924   0.58363   0.00000  Uiso   1.00
C1017  C     0.86311   0.50098   0.57837   0.00000  Uiso   1.00
C1018  C     0.99373   0.50962   0.73771   0.00000  Uiso   1.00
C1019  C     0.67373   0.49101   0.76228   0.00000  Uiso   1.00
C1020  C     0.79014   0.57184   0.91864   0.00000  Uiso   1.00
C1021  C     0.84539   0.65501   0.73709   0.00000  Uiso   1.00
C1022  C     0.81749   0.34587   0.76354   0.00000  Uiso   1.00
C1023  C     0.82255   0.38975   0.75903   0.00000  Uiso   1.00
C1024  C     0.84325   0.61099   0.74133   0.00000  Uiso   1.00
C1025  C     0.85475   0.47866   0.64394   0.00000  Uiso   1.00
C1026  C     0.81273   0.52187   0.85623   0.00000  Uiso   1.00
C1027  C     0.80894   0.53554   0.89853   0.00000  Uiso   1.00
C1028  C     0.86322   0.46971   0.60117   0.00000  Uiso   1.00
C1029  C     0.78998   0.58393   0.95786   0.00000  Uiso   1.00
C1030  C     0.88303   0.37716   0.52734   0.00000  Uiso   1.00
C1031  C     0.82774   0.51293   0.91846   0.00000  Uiso   1.00
C1032  C     0.87747   0.33801   0.70321   0.00000  Uiso   1.00
C1033  C     0.75260   0.35205   0.81309   0.00000  Uiso   1.00
C1034  C     0.90430   0.56320   0.58137   0.00000  Uiso   1.00
C1035  C     0.91801   0.41447   0.95563   0.00000  Uiso   1.00
C1036  C     0.77034   0.59731   0.90047   0.00000  Uiso   1.00
C1037  C     0.90739   0.47816   0.91519   0.00000  Uiso   1.00
C1038  C     0.83175   0.52715   0.95657   0.00000  Uiso   1.00
C1039  C     0.80984   0.56159   0.97701   0.00000  Uiso   1.00
C1040  C     0.85371   0.50602   0.97612   0.00000  Uiso   1.00
C1041  C     0.84688   0.51549   0.51757   0.00000  Uiso   1.00
C1042  C     0.82159   0.54795   0.53739   0.00000  Uiso   1.00
C1043  C     0.80564   0.57200   0.51706   0.00000  Uiso   1.00
H1044  H     0.78723   0.59715   0.53340   0.00000  Uiso   1.00
H1045  H     0.72880   0.33450   0.83600   0.00000  Uiso   1.00
H1046  H     0.91152   0.56632   0.54937   0.00000  Uiso   1.00
H1047  H     0.93004   0.54790   0.58698   0.00000  Uiso   1.00
H1048  H     0.90480   0.59502   0.59715   0.00000  Uiso   1.00
H1049  H     0.68352   0.52673   0.71502   0.00000  Uiso   1.00
H1050  H     0.98462   0.47384   0.78524   0.00000  Uiso   1.00
H1051  H     0.86785   0.40504   0.60186   0.00000  Uiso   1.00
H1052  H     0.77401   0.61081   0.97365   0.00000  Uiso   1.00
H1053  H     0.83775   0.48320   0.90421   0.00000  Uiso   1.00
H1054  H     0.81167   0.55437   0.56902   0.00000  Uiso   1.00
H1055  H     0.73660   0.35450   0.78996   0.00000  Uiso   1.00
H1056  H     0.76115   0.38333   0.82752   0.00000  Uiso   1.00
N1057  N     0.88703   0.34273   0.51527   0.00000  Uiso   1.00
N1058  N     0.90298   0.35100   0.67623   0.00000  Uiso   1.00
N1059  N     0.93967   0.38905   0.93813   0.00000  Uiso   1.00
N1060  N     0.75444   0.61781   0.88602   0.00000  Uiso   1.00
N1061  N     0.92747   0.47990   0.88263   0.00000  Uiso   1.00
O1062  O     0.83333   0.50000   0.75000   0.00000  Uiso   1.00
O1063  O     0.82360   0.45726   0.66625   0.00000  Uiso   1.00
O1064  O     0.79354   0.53979   0.83749   0.00000  Uiso   1.00
O1065  O     0.87755   0.50826   0.65877   0.00000  Uiso   1.00
O1066  O     0.83865   0.49468   0.83749   0.00000  Uiso   1.00
O1067  O     0.78948   0.66368   0.79762   0.00000  Uiso   1.00
O1068  O     0.86296   0.54163   0.59592   0.00000  Uiso   1.00
O1069  O     0.84515   0.41434   0.77820   0.00000  Uiso   1.00
O1070  O     0.81247   0.59469   0.76767   0.00000  Uiso   1.00
O1071  O     0.74119   0.46584   0.73607   0.00000  Uiso   1.00
O1072  O     0.93452   0.52512   0.71805   0.00000  Uiso   1.00
O1073  O     0.73656   0.52293   0.77820   0.00000  Uiso   1.00
O1074  O     0.92106   0.48610   0.76767   0.00000  Uiso   1.00
O1075  O     0.80467   0.40236   0.73607   0.00000  Uiso   1.00
O1076  O     0.87104   0.58860   0.71805   0.00000  Uiso   1.00
Zn1077 Zn    0.85910   0.47423   0.78277   0.00000  Uiso   1.00
Zn1078 Zn    0.80125   0.45711   0.72257   0.00000  Uiso   1.00
Zn1079 Zn    0.87833   0.52997   0.71188   0.00000  Uiso   1.00
Zn1080 Zn    0.79465   0.53868   0.78277   0.00000  Uiso   1.00
C1081  C     0.05248   0.82660   0.75881   0.00000  Uiso   1.00
C1082  C     0.21570   0.80929   0.95612   0.00000  Uiso   1.00
C1083  C     0.22432   0.77992   0.97728   0.00000  Uiso   1.00
C1084  C     0.28104   0.84026   0.74123   0.00000  Uiso   1.00
C1085  C     0.21025   0.78469   0.51912   0.00000  Uiso   1.00
C1086  C     0.19591   0.82343   0.53842   0.00000  Uiso   1.00
C1087  C     0.21111   0.75338   0.54279   0.00000  Uiso   1.00
C1088  C     0.20222   0.76257   0.58363   0.00000  Uiso   1.00
C1089  C     0.19644   0.83432   0.57837   0.00000  Uiso   1.00
C1090  C     0.32706   0.84295   0.73771   0.00000  Uiso   1.00
C1091  C     0.00706   0.82434   0.76228   0.00000  Uiso   1.00
C1092  C     0.12347   0.90518   0.91864   0.00000  Uiso   1.00
C1093  C     0.17873   0.98834   0.73709   0.00000  Uiso   1.00
C1094  C     0.15083   0.67920   0.76354   0.00000  Uiso   1.00
C1095  C     0.15588   0.72309   0.75903   0.00000  Uiso   1.00
C1096  C     0.17658   0.94432   0.74133   0.00000  Uiso   1.00
C1097  C     0.18808   0.81199   0.64394   0.00000  Uiso   1.00
C1098  C     0.14606   0.85520   0.85623   0.00000  Uiso   1.00
C1099  C     0.14227   0.86887   0.89853   0.00000  Uiso   1.00
C1100  C     0.19655   0.80304   0.60117   0.00000  Uiso   1.00
C1101  C     0.12331   0.91726   0.95786   0.00000  Uiso   1.00
C1102  C     0.21636   0.71049   0.52734   0.00000  Uiso   1.00
C1103  C     0.16108   0.84626   0.91846   0.00000  Uiso   1.00
C1104  C     0.21081   0.67134   0.70321   0.00000  Uiso   1.00
C1105  C     0.08593   0.68539   0.81309   0.00000  Uiso   1.00
C1106  C     0.23763   0.89653   0.58137   0.00000  Uiso   1.00
C1107  C     0.25134   0.74780   0.95563   0.00000  Uiso   1.00
C1108  C     0.10367   0.93065   0.90047   0.00000  Uiso   1.00
C1109  C     0.24072   0.81149   0.91519   0.00000  Uiso   1.00
C1110  C     0.16509   0.86049   0.95657   0.00000  Uiso   1.00
C1111  C     0.14317   0.89493   0.97701   0.00000  Uiso   1.00
C1112  C     0.18704   0.83936   0.97612   0.00000  Uiso   1.00
C1113  C     0.18021   0.84883   0.51757   0.00000  Uiso   1.00
C1114  C     0.15492   0.88129   0.53739   0.00000  Uiso   1.00
C1115  C     0.13897   0.90533   0.51706   0.00000  Uiso   1.00
H1116  H     0.12056   0.93049   0.53340   0.00000  Uiso   1.00
H1117  H     0.06214   0.66783   0.83600   0.00000  Uiso   1.00
H1118  H     0.24485   0.89965   0.54937   0.00000  Uiso   1.00
H1119  H     0.26338   0.88123   0.58698   0.00000  Uiso   1.00
H1120  H     0.23813   0.92835   0.59715   0.00000  Uiso   1.00
H1121  H     0.01685   0.86007   0.71502   0.00000  Uiso   1.00
H1122  H     0.31795   0.80717   0.78524   0.00000  Uiso   1.00
H1123  H     0.20118   0.73837   0.60186   0.00000  Uiso   1.00
H1124  H     0.10734   0.94414   0.97365   0.00000  Uiso   1.00
H1125  H     0.17108   0.81653   0.90421   0.00000  Uiso   1.00
H1126  H     0.14500   0.88771   0.56902   0.00000  Uiso   1.00
H1127  H     0.06993   0.68783   0.78996   0.00000  Uiso   1.00
H1128  H     0.09449   0.71666   0.82752   0.00000  Uiso   1.00
N1129  N     0.22037   0.67606   0.51527   0.00000  Uiso   1.00
N1130  N     0.23631   0.68433   0.67623   0.00000  Uiso   1.00
N1131  N     0.27300   0.72238   0.93813   0.00000  Uiso   1.00
N1132  N     0.08777   0.95114   0.88602   0.00000  Uiso   1.00
N1133  N     0.26080   0.81323   0.88263   0.00000  Uiso   1.00
O1134  O     0.16667   0.83333   0.75000   0.00000  Uiso   1.00
O1135  O     0.15693   0.79060   0.66625   0.00000  Uiso   1.00
O1136  O     0.12687   0.87313   0.83749   0.00000  Uiso   1.00
O1137  O     0.21088   0.84159   0.65877   0.00000  Uiso   1.00
O1138  O     0.17198   0.82802   0.83749   0.00000  Uiso   1.00
O1139  O     0.12281   0.99701   0.79762   0.00000  Uiso   1.00
O1140  O     0.19629   0.87496   0.59592   0.00000  Uiso   1.00
O1141  O     0.17849   0.74768   0.77820   0.00000  Uiso   1.00
O1142  O     0.14581   0.92803   0.76767   0.00000  Uiso   1.00
O1143  O     0.07452   0.79917   0.73607   0.00000  Uiso   1.00
O1144  O     0.26785   0.85845   0.71805   0.00000  Uiso   1.00
O1145  O     0.06990   0.85627   0.77820   0.00000  Uiso   1.00
O1146  O     0.25440   0.81944   0.76767   0.00000  Uiso   1.00
O1147  O     0.13800   0.73570   0.73607   0.00000  Uiso   1.00
O1148  O     0.20437   0.92193   0.71805   0.00000  Uiso   1.00
Zn1149 Zn    0.19244   0.80756   0.78277   0.00000  Uiso   1.00
Zn1150 Zn    0.13459   0.79044   0.72257   0.00000  Uiso   1.00
Zn1151 Zn    0.21166   0.86331   0.71188   0.00000  Uiso   1.00
Zn1152 Zn    0.12798   0.87202   0.78277   0.00000  Uiso   1.00
C1153  C     0.38581   0.82660   0.75881   0.00000  Uiso   1.00
C1154  C     0.54903   0.80929   0.95612   0.00000  Uiso   1.00
C1155  C     0.55765   0.77992   0.97728   0.00000  Uiso   1.00
C1156  C     0.61437   0.84026   0.74123   0.00000  Uiso   1.00
C1157  C     0.54359   0.78469   0.51912   0.00000  Uiso   1.00
C1158  C     0.52925   0.82343   0.53842   0.00000  Uiso   1.00
C1159  C     0.54444   0.75338   0.54279   0.00000  Uiso   1.00
C1160  C     0.53555   0.76257   0.58363   0.00000  Uiso   1.00
C1161  C     0.52977   0.83432   0.57837   0.00000  Uiso   1.00
C1162  C     0.66039   0.84295   0.73771   0.00000  Uiso   1.00
C1163  C     0.34039   0.82434   0.76228   0.00000  Uiso   1.00
C1164  C     0.45680   0.90518   0.91864   0.00000  Uiso   1.00
C1165  C     0.51206   0.98834   0.73709   0.00000  Uiso   1.00
C1166  C     0.48416   0.67920   0.76354   0.00000  Uiso   1.00
C1167  C     0.48921   0.72309   0.75903   0.00000  Uiso   1.00
C1168  C     0.50992   0.94432   0.74133   0.00000  Uiso   1.00
C1169  C     0.52141   0.81199   0.64394   0.00000  Uiso   1.00
C1170  C     0.47940   0.85520   0.85623   0.00000  Uiso   1.00
C1171  C     0.47561   0.86887   0.89853   0.00000  Uiso   1.00
C1172  C     0.52988   0.80304   0.60117   0.00000  Uiso   1.00
C1173  C     0.45664   0.91726   0.95786   0.00000  Uiso   1.00
C1174  C     0.54970   0.71049   0.52734   0.00000  Uiso   1.00
C1175  C     0.49441   0.84626   0.91846   0.00000  Uiso   1.00
C1176  C     0.54414   0.67134   0.70321   0.00000  Uiso   1.00
C1177  C     0.41926   0.68539   0.81309   0.00000  Uiso   1.00
C1178  C     0.57097   0.89653   0.58137   0.00000  Uiso   1.00
C1179  C     0.58467   0.74780   0.95563   0.00000  Uiso   1.00
C1180  C     0.43700   0.93065   0.90047   0.00000  Uiso   1.00
C1181  C     0.57406   0.81149   0.91519   0.00000  Uiso   1.00
C1182  C     0.49842   0.86049   0.95657   0.00000  Uiso   1.00
C1183  C     0.47651   0.89493   0.97701   0.00000  Uiso   1.00
C1184  C     0.52038   0.83936   0.97612   0.00000  Uiso   1.00
C1185  C     0.51355   0.84883   0.51757   0.00000  Uiso   1.00
C1186  C     0.48826   0.88129   0.53739   0.00000  Uiso   1.00
C1187  C     0.47230   0.90533   0.51706   0.00000  Uiso   1.00
H1188  H     0.45390   0.93049   0.53340   0.00000  Uiso   1.00
H1189  H     0.39547   0.66783   0.83600   0.00000  Uiso   1.00
H1190  H     0.57819   0.89965   0.54937   0.00000  Uiso   1.00
H1191  H     0.59671   0.88123   0.58698   0.00000  Uiso   1.00
H1192  H     0.57146   0.92835   0.59715   0.00000  Uiso   1.00
H1193  H     0.35018   0.86007   0.71502   0.00000  Uiso   1.00
H1194  H     0.65128   0.80717   0.78524   0.00000  Uiso   1.00
H1195  H     0.53451   0.73837   0.60186   0.00000  Uiso   1.00
H1196  H     0.44068   0.94414   0.97365   0.00000  Uiso   1.00
H1197  H     0.50442   0.81653   0.90421   0.00000  Uiso   1.00
H1198  H     0.47833   0.88771   0.56902   0.00000  Uiso   1.00
H1199  H     0.40326   0.68783   0.78996   0.00000  Uiso   1.00
H1200  H     0.42782   0.71666   0.82752   0.00000  Uiso   1.00
N1201  N     0.55370   0.67606   0.51527   0.00000  Uiso   1.00
N1202  N     0.56964   0.68433   0.67623   0.00000  Uiso   1.00
N1203  N     0.60634   0.72238   0.93813   0.00000  Uiso   1.00
N1204  N     0.42111   0.95114   0.88602   0.00000  Uiso   1.00
N1205  N     0.59414   0.81323   0.88263   0.00000  Uiso   1.00
O1206  O     0.50000   0.83333   0.75000   0.00000  Uiso   1.00
O1207  O     0.49027   0.79060   0.66625   0.00000  Uiso   1.00
O1208  O     0.46020   0.87313   0.83749   0.00000  Uiso   1.00
O1209  O     0.54421   0.84159   0.65877   0.00000  Uiso   1.00
O1210  O     0.50532   0.82802   0.83749   0.00000  Uiso   1.00
O1211  O     0.45614   0.99701   0.79762   0.00000  Uiso   1.00
O1212  O     0.52963   0.87496   0.59592   0.00000  Uiso   1.00
O1213  O     0.51182   0.74768   0.77820   0.00000  Uiso   1.00
O1214  O     0.47914   0.92803   0.76767   0.00000  Uiso   1.00
O1215  O     0.40785   0.79917   0.73607   0.00000  Uiso   1.00
O1216  O     0.60119   0.85845   0.71805   0.00000  Uiso   1.00
O1217  O     0.40323   0.85627   0.77820   0.00000  Uiso   1.00
O1218  O     0.58773   0.81944   0.76767   0.00000  Uiso   1.00
O1219  O     0.47133   0.73570   0.73607   0.00000  Uiso   1.00
O1220  O     0.53771   0.92193   0.71805   0.00000  Uiso   1.00
Zn1221 Zn    0.52577   0.80756   0.78277   0.00000  Uiso   1.00
Zn1222 Zn    0.46792   0.79044   0.72257   0.00000  Uiso   1.00
Zn1223 Zn    0.54500   0.86331   0.71188   0.00000  Uiso   1.00
Zn1224 Zn    0.46131   0.87202   0.78277   0.00000  Uiso   1.00
C1225  C     0.71914   0.82660   0.75881   0.00000  Uiso   1.00
C1226  C     0.88237   0.80929   0.95612   0.00000  Uiso   1.00
C1227  C     0.89098   0.77992   0.97728   0.00000  Uiso   1.00
C1228  C     0.94771   0.84026   0.74123   0.00000  Uiso   1.00
C1229  C     0.87692   0.78469   0.51912   0.00000  Uiso   1.00
C1230  C     0.86258   0.82343   0.53842   0.00000  Uiso   1.00
C1231  C     0.87778   0.75338   0.54279   0.00000  Uiso   1.00
C1232  C     0.86888   0.76257   0.58363   0.00000  Uiso   1.00
C1233  C     0.86311   0.83432   0.57837   0.00000  Uiso   1.00
C1234  C     0.99373   0.84295   0.73771   0.00000  Uiso   1.00
C1235  C     0.67373   0.82434   0.76228   0.00000  Uiso   1.00
C1236  C     0.79014   0.90518   0.91864   0.00000  Uiso   1.00
C1237  C     0.84539   0.98834   0.73709   0.00000  Uiso   1.00
C1238  C     0.81749   0.67920   0.76354   0.00000  Uiso   1.00
C1239  C     0.82255   0.72309   0.75903   0.00000  Uiso   1.00
C1240  C     0.84325   0.94432   0.74133   0.00000  Uiso   1.00
C1241  C     0.85475   0.81199   0.64394   0.00000  Uiso   1.00
C1242  C     0.81273   0.85520   0.85623   0.00000  Uiso   1.00
C1243  C     0.80894   0.86887   0.89853   0.00000  Uiso   1.00
C1244  C     0.86322   0.80304   0.60117   0.00000  Uiso   1.00
C1245  C     0.78998   0.91726   0.95786   0.00000  Uiso   1.00
C1246  C     0.88303   0.71049   0.52734   0.00000  Uiso   1.00
C1247  C     0.82774   0.84626   0.91846   0.00000  Uiso   1.00
C1248  C     0.87747   0.67134   0.70321   0.00000  Uiso   1.00
C1249  C     0.75260   0.68539   0.81309   0.00000  Uiso   1.00
C1250  C     0.90430   0.89653   0.58137   0.00000  Uiso   1.00
C1251  C     0.91801   0.74780   0.95563   0.00000  Uiso   1.00
C1252  C     0.77034   0.93065   0.90047   0.00000  Uiso   1.00
C1253  C     0.90739   0.81149   0.91519   0.00000  Uiso   1.00
C1254  C     0.83175   0.86049   0.95657   0.00000  Uiso   1.00
C1255  C     0.80984   0.89493   0.97701   0.00000  Uiso   1.00
C1256  C     0.85371   0.83936   0.97612   0.00000  Uiso   1.00
C1257  C     0.84688   0.84883   0.51757   0.00000  Uiso   1.00
C1258  C     0.82159   0.88129   0.53739   0.00000  Uiso   1.00
C1259  C     0.80564   0.90533   0.51706   0.00000  Uiso   1.00
H1260  H     0.78723   0.93049   0.53340   0.00000  Uiso   1.00
H1261  H     0.72880   0.66783   0.83600   0.00000  Uiso   1.00
H1262  H     0.91152   0.89965   0.54937   0.00000  Uiso   1.00
H1263  H     0.93004   0.88123   0.58698   0.00000  Uiso   1.00
H1264  H     0.90480   0.92835   0.59715   0.00000  Uiso   1.00
H1265  H     0.68352   0.86007   0.71502   0.00000  Uiso   1.00
H1266  H     0.98462   0.80717   0.78524   0.00000  Uiso   1.00
H1267  H     0.86785   0.73837   0.60186   0.00000  Uiso   1.00
H1268  H     0.77401   0.94414   0.97365   0.00000  Uiso   1.00
H1269  H     0.83775   0.81653   0.90421   0.00000  Uiso   1.00
H1270  H     0.81167   0.88771   0.56902   0.00000  Uiso   1.00
H1271  H     0.73660   0.68783   0.78996   0.00000  Uiso   1.00
H1272  H     0.76115   0.71666   0.82752   0.00000  Uiso   1.00
N1273  N     0.88703   0.67606   0.51527   0.00000  Uiso   1.00
N1274  N     0.90298   0.68433   0.67623   0.00000  Uiso   1.00
N1275  N     0.93967   0.72238   0.93813   0.00000  Uiso   1.00
N1276  N     0.75444   0.95114   0.88602   0.00000  Uiso   1.00
N1277  N     0.92747   0.81323   0.88263   0.00000  Uiso   1.00
O1278  O     0.83333   0.83333   0.75000   0.00000  Uiso   1.00
O1279  O     0.82360   0.79060   0.66625   0.00000  Uiso   1.00
O1280  O     0.79354   0.87313   0.83749   0.00000  Uiso   1.00
O1281  O     0.87755   0.84159   0.65877   0.00000  Uiso   1.00
O1282  O     0.83865   0.82802   0.83749   0.00000  Uiso   1.00
O1283  O     0.78948   0.99701   0.79762   0.00000  Uiso   1.00
O1284  O     0.86296   0.87496   0.59592   0.00000  Uiso   1.00
O1285  O     0.84515   0.74768   0.77820   0.00000  Uiso   1.00
O1286  O     0.81247   0.92803   0.76767   0.00000  Uiso   1.00
O1287  O     0.74119   0.79917   0.73607   0.00000  Uiso   1.00
O1288  O     0.93452   0.85845   0.71805   0.00000  Uiso   1.00
O1289  O     0.73656   0.85627   0.77820   0.00000  Uiso   1.00
O1290  O     0.92106   0.81944   0.76767   0.00000  Uiso   1.00
O1291  O     0.80467   0.73570   0.73607   0.00000  Uiso   1.00
O1292  O     0.87104   0.92193   0.71805   0.00000  Uiso   1.00
Zn1293 Zn    0.85910   0.80756   0.78277   0.00000  Uiso   1.00
Zn1294 Zn    0.80125   0.79044   0.72257   0.00000  Uiso   1.00
Zn1295 Zn    0.87833   0.86331   0.71188   0.00000  Uiso   1.00
Zn1296 Zn    0.79465   0.87202   0.78277   0.00000  Uiso   1.00
loop_
_geom_bond_atom_site_label_1
_geom_bond_atom_site_label_2
_geom_bond_distance
_geom_bond_site_symmetry_2
_ccdc_geom_bond_type
C1     O65     1.270   .     A
C1     O63     1.270   .     A
C1     C11     1.436   .     S
C2     C3      1.409   .     A
C2     C29     1.454   .     S
C2     C32     1.421   .     A
C3     C27     1.452   .     S
C3     C653    1.419   .     S
C4     C10     1.454   .     S
C4     O66     1.279   .     A
C4     O64     1.283   .     A
C5     C6      1.424   .     A
C5     C7      1.426   .     A
C5     C651    1.419   1_554 S
C6     C9      1.422   .     A
C6     C33     1.425   .     A
C7     C8      1.395   .     A
C7     C22     1.446   .     S
C8     H43     1.086   .     S
C8     C20     1.393   .     A
C9     C20     1.397   .     A
C9     O60     1.385   .     S
C10    C83     1.334   .     S
C10    H113    1.088   .     S
C11    C154    1.334   1_455 S
C11    H186    1.086   1_455 S
C12    C28     1.444   .     S
C12    C19     1.417   .     A
C12    C21     1.395   .     A
C13    C16     1.459   .     S
C13    C230    1.353   .     S
C13    C240    1.455   .     S
C14    C15     1.447   .     S
C14    C445    1.353   1_545 S
C14    O491    1.399   1_545 S
C15    O67     1.275   .     A
C15    O61     1.271   .     A
C16    O68     1.273   .     A
C16    O62     1.266   .     A
C17    O55     1.276   .     A
C17    C20     1.461   .     S
C17    O57     1.279   .     A
C18    O56     1.282   .     A
C18    C19     1.484   .     S
C18    O58     1.290   .     A
C19    C23     1.402   .     A
C21    C31     1.400   .     A
C21    H44     1.086   .     S
C22    N49     1.158   .     T
C23    H45     1.078   .     S
C23    C30     1.408   .     A
C24    N50     1.157   .     T
C24    C445    1.455   1_545 S
C25    H48     1.112   .     S
C25    H37     1.109   .     S
C25    H47     1.113   .     S
C25    O491    1.412   1_545 S
C26    H40     1.109   .     S
C26    H39     1.114   .     S
C26    O60     1.410   .     S
C26    H38     1.112   .     S
C27    N51     1.158   .     T
C28    N52     1.157   .     T
C29    N53     1.158   .     T
C30    C32     1.431   .     A
C30    C31     1.414   .     A
C31    C683    1.390   .     S
C32    C681    1.423   .     S
C33    C34     1.414   .     A
C33    C680    1.423   1_554 S
C34    H46     1.076   .     S
C34    C35     1.385   .     A
C35    H36     1.084   .     S
C35    C679    1.390   1_554 S
H41    C154    1.088   1_455 S
H42    C83     1.086   .     S
O54    Zn70    1.944   .     S
O54    Zn69    1.961   .     S
O54    Zn71    1.935   .     S
O54    Zn72    1.930   .     S
O55    Zn70    1.925   .     S
O56    Zn72    1.936   .     S
O57    Zn71    1.930   .     S
O58    Zn69    1.920   .     S
O59    C230    1.399   .     S
O59    C241    1.412   .     S
O61    Zn69    1.938   .     S
O62    Zn72    1.942   .     S
O63    Zn70    1.923   .     S
O64    Zn71    1.934   .     S
O65    Zn72    1.930   .     S
O66    Zn69    1.921   .     S
O67    Zn70    1.947   .     S
O68    Zn71    1.940   .     S
C73    O137    1.270   .     A
C73    O135    1.270   .     A
C73    C83     1.436   .     S
C74    C75     1.409   .     A
C74    C101    1.454   .     S
C74    C104    1.421   .     A
C75    C99     1.452   .     S
C75    C725    1.419   .     S
C76    C82     1.454   .     S
C76    O138    1.279   .     A
C76    O136    1.283   .     A
C77    C78     1.424   .     A
C77    C79     1.426   .     A
C77    C723    1.419   1_554 S
C78    C81     1.422   .     A
C78    C105    1.425   .     A
C79    C80     1.395   .     A
C79    C94     1.446   .     S
C80    H115    1.086   .     S
C80    C92     1.393   .     A
C81    C92     1.397   .     A
C81    O132    1.385   .     S
C82    C155    1.334   .     S
C82    H185    1.088   .     S
C84    C100    1.444   .     S
C84    C91     1.417   .     A
C84    C93     1.395   .     A
C85    C88     1.459   .     S
C85    C302    1.353   .     S
C85    C312    1.455   .     S
C86    C87     1.447   .     S
C86    C517    1.353   1_545 S
C86    O563    1.399   1_545 S
C87    O139    1.275   .     A
C87    O133    1.271   .     A
C88    O140    1.273   .     A
C88    O134    1.266   .     A
C89    O127    1.276   .     A
C89    C92     1.461   .     S
C89    O129    1.279   .     A
C90    O128    1.282   .     A
C90    C91     1.484   .     S
C90    O130    1.290   .     A
C91    C95     1.402   .     A
C93    C103    1.400   .     A
C93    H116    1.086   .     S
C94    N121    1.158   .     T
C95    H117    1.078   .     S
C95    C102    1.408   .     A
C96    N122    1.157   .     T
C96    C517    1.455   1_545 S
C97    H120    1.112   .     S
C97    H109    1.109   .     S
C97    H119    1.113   .     S
C97    O563    1.412   1_545 S
C98    H112    1.109   .     S
C98    H111    1.114   .     S
C98    O132    1.410   .     S
C98    H110    1.112   .     S
C99    N123    1.158   .     T
C100   N124    1.157   .     T
C101   N125    1.158   .     T
C102   C104    1.431   .     A
C102   C103    1.414   .     A
C103   C755    1.390   .     S
C104   C753    1.423   .     S
C105   C106    1.414   .     A
C105   C752    1.423   1_554 S
C106   H118    1.076   .     S
C106   C107    1.385   .     A
C107   H108    1.084   .     S
C107   C751    1.390   1_554 S
H114   C155    1.086   .     S
O126   Zn142   1.944   .     S
O126   Zn141   1.961   .     S
O126   Zn143   1.935   .     S
O126   Zn144   1.930   .     S
O127   Zn142   1.925   .     S
O128   Zn144   1.936   .     S
O129   Zn143   1.930   .     S
O130   Zn141   1.920   .     S
O131   C302    1.399   .     S
O131   C313    1.412   .     S
O133   Zn141   1.938   .     S
O134   Zn144   1.942   .     S
O135   Zn142   1.923   .     S
O136   Zn143   1.934   .     S
O137   Zn144   1.930   .     S
O138   Zn141   1.921   .     S
O139   Zn142   1.947   .     S
O140   Zn143   1.940   .     S
C145   O209    1.270   .     A
C145   O207    1.270   .     A
C145   C155    1.436   .     S
C146   C147    1.409   .     A
C146   C173    1.454   .     S
C146   C176    1.421   .     A
C147   C171    1.452   .     S
C147   C797    1.419   .     S
C148   C154    1.454   .     S
C148   O210    1.279   .     A
C148   O208    1.283   .     A
C149   C150    1.424   .     A
C149   C151    1.426   .     A
C149   C795    1.419   1_554 S
C150   C153    1.422   .     A
C150   C177    1.425   .     A
C151   C152    1.395   .     A
C151   C166    1.446   .     S
C152   H187    1.086   .     S
C152   C164    1.393   .     A
C153   C164    1.397   .     A
C153   O204    1.385   .     S
C154   C11     1.334   1_655 S
C154   H41     1.088   1_655 S
C156   C172    1.444   .     S
C156   C163    1.417   .     A
C156   C165    1.395   .     A
C157   C160    1.459   .     S
C157   C374    1.353   .     S
C157   C384    1.455   .     S
C158   C159    1.447   .     S
C158   C589    1.353   1_545 S
C158   O635    1.399   1_545 S
C159   O211    1.275   .     A
C159   O205    1.271   .     A
C160   O212    1.273   .     A
C160   O206    1.266   .     A
C161   O199    1.276   .     A
C161   C164    1.461   .     S
C161   O201    1.279   .     A
C162   O200    1.282   .     A
C162   C163    1.484   .     S
C162   O202    1.290   .     A
C163   C167    1.402   .     A
C165   C175    1.400   .     A
C165   H188    1.086   .     S
C166   N193    1.158   .     T
C167   H189    1.078   .     S
C167   C174    1.408   .     A
C168   N194    1.157   .     T
C168   C589    1.455   1_545 S
C169   H192    1.112   .     S
C169   H181    1.109   .     S
C169   H191    1.113   .     S
C169   O635    1.412   1_545 S
C170   H184    1.109   .     S
C170   H183    1.114   .     S
C170   O204    1.410   .     S
C170   H182    1.112   .     S
C171   N195    1.158   .     T
C172   N196    1.157   .     T
C173   N197    1.158   .     T
C174   C176    1.431   .     A
C174   C175    1.414   .     A
C175   C827    1.390   .     S
C176   C825    1.423   .     S
C177   C178    1.414   .     A
C177   C824    1.423   1_554 S
C178   H190    1.076   .     S
C178   C179    1.385   .     A
C179   H180    1.084   .     S
C179   C823    1.390   1_554 S
H186   C11     1.086   1_655 S
O198   Zn214   1.944   .     S
O198   Zn213   1.961   .     S
O198   Zn215   1.935   .     S
O198   Zn216   1.930   .     S
O199   Zn214   1.925   .     S
O200   Zn216   1.936   .     S
O201   Zn215   1.930   .     S
O202   Zn213   1.920   .     S
O203   C374    1.399   .     S
O203   C385    1.412   .     S
O205   Zn213   1.938   .     S
O206   Zn216   1.942   .     S
O207   Zn214   1.923   .     S
O208   Zn215   1.934   .     S
O209   Zn216   1.930   .     S
O210   Zn213   1.921   .     S
O211   Zn214   1.947   .     S
O212   Zn215   1.940   .     S
C217   O281    1.270   .     A
C217   O279    1.270   .     A
C217   C227    1.436   .     S
C218   C219    1.409   .     A
C218   C245    1.454   .     S
C218   C248    1.421   .     A
C219   C243    1.452   .     S
C219   C869    1.419   .     S
C220   C226    1.454   .     S
C220   O282    1.279   .     A
C220   O280    1.283   .     A
C221   C222    1.424   .     A
C221   C223    1.426   .     A
C221   C867    1.419   1_554 S
C222   C225    1.422   .     A
C222   C249    1.425   .     A
C223   C224    1.395   .     A
C223   C238    1.446   .     S
C224   H259    1.086   .     S
C224   C236    1.393   .     A
C225   C236    1.397   .     A
C225   O276    1.385   .     S
C226   C299    1.334   .     S
C226   H329    1.088   .     S
C227   C370    1.334   1_455 S
C227   H402    1.086   1_455 S
C228   C244    1.444   .     S
C228   C235    1.417   .     A
C228   C237    1.395   .     A
C229   C232    1.459   .     S
C229   C446    1.353   .     S
C229   C456    1.455   .     S
C230   C231    1.447   .     S
C231   O283    1.275   .     A
C231   O277    1.271   .     A
C232   O284    1.273   .     A
C232   O278    1.266   .     A
C233   O271    1.276   .     A
C233   C236    1.461   .     S
C233   O273    1.279   .     A
C234   O272    1.282   .     A
C234   C235    1.484   .     S
C234   O274    1.290   .     A
C235   C239    1.402   .     A
C237   C247    1.400   .     A
C237   H260    1.086   .     S
C238   N265    1.158   .     T
C239   H261    1.078   .     S
C239   C246    1.408   .     A
C240   N266    1.157   .     T
C241   H264    1.112   .     S
C241   H253    1.109   .     S
C241   H263    1.113   .     S
C242   H256    1.109   .     S
C242   H255    1.114   .     S
C242   O276    1.410   .     S
C242   H254    1.112   .     S
C243   N267    1.158   .     T
C244   N268    1.157   .     T
C245   N269    1.158   .     T
C246   C248    1.431   .     A
C246   C247    1.414   .     A
C247   C899    1.390   .     S
C248   C897    1.423   .     S
C249   C250    1.414   .     A
C249   C896    1.423   1_554 S
C250   H262    1.076   .     S
C250   C251    1.385   .     A
C251   H252    1.084   .     S
C251   C895    1.390   1_554 S
H257   C370    1.088   1_455 S
H258   C299    1.086   .     S
O270   Zn286   1.944   .     S
O270   Zn285   1.961   .     S
O270   Zn287   1.935   .     S
O270   Zn288   1.930   .     S
O271   Zn286   1.925   .     S
O272   Zn288   1.936   .     S
O273   Zn287   1.930   .     S
O274   Zn285   1.920   .     S
O275   C446    1.399   .     S
O275   C457    1.412   .     S
O277   Zn285   1.938   .     S
O278   Zn288   1.942   .     S
O279   Zn286   1.923   .     S
O280   Zn287   1.934   .     S
O281   Zn288   1.930   .     S
O282   Zn285   1.921   .     S
O283   Zn286   1.947   .     S
O284   Zn287   1.940   .     S
C289   O353    1.270   .     A
C289   O351    1.270   .     A
C289   C299    1.436   .     S
C290   C291    1.409   .     A
C290   C317    1.454   .     S
C290   C320    1.421   .     A
C291   C315    1.452   .     S
C291   C941    1.419   .     S
C292   C298    1.454   .     S
C292   O354    1.279   .     A
C292   O352    1.283   .     A
C293   C294    1.424   .     A
C293   C295    1.426   .     A
C293   C939    1.419   1_554 S
C294   C297    1.422   .     A
C294   C321    1.425   .     A
C295   C296    1.395   .     A
C295   C310    1.446   .     S
C296   H331    1.086   .     S
C296   C308    1.393   .     A
C297   C308    1.397   .     A
C297   O348    1.385   .     S
C298   C371    1.334   .     S
C298   H401    1.088   .     S
C300   C316    1.444   .     S
C300   C307    1.417   .     A
C300   C309    1.395   .     A
C301   C304    1.459   .     S
C301   C518    1.353   .     S
C301   C528    1.455   .     S
C302   C303    1.447   .     S
C303   O355    1.275   .     A
C303   O349    1.271   .     A
C304   O356    1.273   .     A
C304   O350    1.266   .     A
C305   O343    1.276   .     A
C305   C308    1.461   .     S
C305   O345    1.279   .     A
C306   O344    1.282   .     A
C306   C307    1.484   .     S
C306   O346    1.290   .     A
C307   C311    1.402   .     A
C309   C319    1.400   .     A
C309   H332    1.086   .     S
C310   N337    1.158   .     T
C311   H333    1.078   .     S
C311   C318    1.408   .     A
C312   N338    1.157   .     T
C313   H336    1.112   .     S
C313   H325    1.109   .     S
C313   H335    1.113   .     S
C314   H328    1.109   .     S
C314   H327    1.114   .     S
C314   O348    1.410   .     S
C314   H326    1.112   .     S
C315   N339    1.158   .     T
C316   N340    1.157   .     T
C317   N341    1.158   .     T
C318   C320    1.431   .     A
C318   C319    1.414   .     A
C319   C971    1.390   .     S
C320   C969    1.423   .     S
C321   C322    1.414   .     A
C321   C968    1.423   1_554 S
C322   H334    1.076   .     S
C322   C323    1.385   .     A
C323   H324    1.084   .     S
C323   C967    1.390   1_554 S
H330   C371    1.086   .     S
O342   Zn358   1.944   .     S
O342   Zn357   1.961   .     S
O342   Zn359   1.935   .     S
O342   Zn360   1.930   .     S
O343   Zn358   1.925   .     S
O344   Zn360   1.936   .     S
O345   Zn359   1.930   .     S
O346   Zn357   1.920   .     S
O347   C518    1.399   .     S
O347   C529    1.412   .     S
O349   Zn357   1.938   .     S
O350   Zn360   1.942   .     S
O351   Zn358   1.923   .     S
O352   Zn359   1.934   .     S
O353   Zn360   1.930   .     S
O354   Zn357   1.921   .     S
O355   Zn358   1.947   .     S
O356   Zn359   1.940   .     S
C361   O425    1.270   .     A
C361   O423    1.270   .     A
C361   C371    1.436   .     S
C362   C363    1.409   .     A
C362   C389    1.454   .     S
C362   C392    1.421   .     A
C363   C387    1.452   .     S
C363   C1013   1.419   .     S
C364   C370    1.454   .     S
C364   O426    1.279   .     A
C364   O424    1.283   .     A
C365   C366    1.424   .     A
C365   C367    1.426   .     A
C365   C1011   1.419   1_554 S
C366   C369    1.422   .     A
C366   C393    1.425   .     A
C367   C368    1.395   .     A
C367   C382    1.446   .     S
C368   H403    1.086   .     S
C368   C380    1.393   .     A
C369   C380    1.397   .     A
C369   O420    1.385   .     S
C370   C227    1.334   1_655 S
C370   H257    1.088   1_655 S
C372   C388    1.444   .     S
C372   C379    1.417   .     A
C372   C381    1.395   .     A
C373   C376    1.459   .     S
C373   C590    1.353   .     S
C373   C600    1.455   .     S
C374   C375    1.447   .     S
C375   O427    1.275   .     A
C375   O421    1.271   .     A
C376   O428    1.273   .     A
C376   O422    1.266   .     A
C377   O415    1.276   .     A
C377   C380    1.461   .     S
C377   O417    1.279   .     A
C378   O416    1.282   .     A
C378   C379    1.484   .     S
C378   O418    1.290   .     A
C379   C383    1.402   .     A
C381   C391    1.400   .     A
C381   H404    1.086   .     S
C382   N409    1.158   .     T
C383   H405    1.078   .     S
C383   C390    1.408   .     A
C384   N410    1.157   .     T
C385   H408    1.112   .     S
C385   H397    1.109   .     S
C385   H407    1.113   .     S
C386   H400    1.109   .     S
C386   H399    1.114   .     S
C386   O420    1.410   .     S
C386   H398    1.112   .     S
C387   N411    1.158   .     T
C388   N412    1.157   .     T
C389   N413    1.158   .     T
C390   C392    1.431   .     A
C390   C391    1.414   .     A
C391   C1043   1.390   .     S
C392   C1041   1.423   .     S
C393   C394    1.414   .     A
C393   C1040   1.423   1_554 S
C394   H406    1.076   .     S
C394   C395    1.385   .     A
C395   H396    1.084   .     S
C395   C1039   1.390   1_554 S
H402   C227    1.086   1_655 S
O414   Zn430   1.944   .     S
O414   Zn429   1.961   .     S
O414   Zn431   1.935   .     S
O414   Zn432   1.930   .     S
O415   Zn430   1.925   .     S
O416   Zn432   1.936   .     S
O417   Zn431   1.930   .     S
O418   Zn429   1.920   .     S
O419   C590    1.399   .     S
O419   C601    1.412   .     S
O421   Zn429   1.938   .     S
O422   Zn432   1.942   .     S
O423   Zn430   1.923   .     S
O424   Zn431   1.934   .     S
O425   Zn432   1.930   .     S
O426   Zn429   1.921   .     S
O427   Zn430   1.947   .     S
O428   Zn431   1.940   .     S
C433   O497    1.270   .     A
C433   O495    1.270   .     A
C433   C443    1.436   .     S
C434   C435    1.409   .     A
C434   C461    1.454   .     S
C434   C464    1.421   .     A
C435   C459    1.452   .     S
C435   C1085   1.419   .     S
C436   C442    1.454   .     S
C436   O498    1.279   .     A
C436   O496    1.283   .     A
C437   C438    1.424   .     A
C437   C439    1.426   .     A
C437   C1083   1.419   1_554 S
C438   C441    1.422   .     A
C438   C465    1.425   .     A
C439   C440    1.395   .     A
C439   C454    1.446   .     S
C440   H475    1.086   .     S
C440   C452    1.393   .     A
C441   C452    1.397   .     A
C441   O492    1.385   .     S
C442   C515    1.334   .     S
C442   H545    1.088   .     S
C443   C586    1.334   1_455 S
C443   H618    1.086   1_455 S
C444   C460    1.444   .     S
C444   C451    1.417   .     A
C444   C453    1.395   .     A
C445   C448    1.459   .     S
C445   C14     1.353   1_565 S
C445   C24     1.455   1_565 S
C446   C447    1.447   .     S
C447   O499    1.275   .     A
C447   O493    1.271   .     A
C448   O500    1.273   .     A
C448   O494    1.266   .     A
C449   O487    1.276   .     A
C449   C452    1.461   .     S
C449   O489    1.279   .     A
C450   O488    1.282   .     A
C450   C451    1.484   .     S
C450   O490    1.290   .     A
C451   C455    1.402   .     A
C453   C463    1.400   .     A
C453   H476    1.086   .     S
C454   N481    1.158   .     T
C455   H477    1.078   .     S
C455   C462    1.408   .     A
C456   N482    1.157   .     T
C457   H480    1.112   .     S
C457   H469    1.109   .     S
C457   H479    1.113   .     S
C458   H472    1.109   .     S
C458   H471    1.114   .     S
C458   O492    1.410   .     S
C458   H470    1.112   .     S
C459   N483    1.158   .     T
C460   N484    1.157   .     T
C461   N485    1.158   .     T
C462   C464    1.431   .     A
C462   C463    1.414   .     A
C463   C1115   1.390   .     S
C464   C1113   1.423   .     S
C465   C466    1.414   .     A
C465   C1112   1.423   1_554 S
C466   H478    1.076   .     S
C466   C467    1.385   .     A
C467   H468    1.084   .     S
C467   C1111   1.390   1_554 S
H473   C586    1.088   1_455 S
H474   C515    1.086   .     S
O486   Zn502   1.944   .     S
O486   Zn501   1.961   .     S
O486   Zn503   1.935   .     S
O486   Zn504   1.930   .     S
O487   Zn502   1.925   .     S
O488   Zn504   1.936   .     S
O489   Zn503   1.930   .     S
O490   Zn501   1.920   .     S
O491   C14     1.399   1_565 S
O491   C25     1.412   1_565 S
O493   Zn501   1.938   .     S
O494   Zn504   1.942   .     S
O495   Zn502   1.923   .     S
O496   Zn503   1.934   .     S
O497   Zn504   1.930   .     S
O498   Zn501   1.921   .     S
O499   Zn502   1.947   .     S
O500   Zn503   1.940   .     S
C505   O569    1.270   .     A
C505   O567    1.270   .     A
C505   C515    1.436   .     S
C506   C507    1.409   .     A
C506   C533    1.454   .     S
C506   C536    1.421   .     A
C507   C531    1.452   .     S
C507   C1157   1.419   .     S
C508   C514    1.454   .     S
C508   O570    1.279   .     A
C508   O568    1.283   .     A
C509   C510    1.424   .     A
C509   C511    1.426   .     A
C509   C1155   1.419   1_554 S
C510   C513    1.422   .     A
C510   C537    1.425   .     A
C511   C512    1.395   .     A
C511   C526    1.446   .     S
C512   H547    1.086   .     S
C512   C524    1.393   .     A
C513   C524    1.397   .     A
C513   O564    1.385   .     S
C514   C587    1.334   .     S
C514   H617    1.088   .     S
C516   C532    1.444   .     S
C516   C523    1.417   .     A
C516   C525    1.395   .     A
C517   C520    1.459   .     S
C517   C86     1.353   1_565 S
C517   C96     1.455   1_565 S
C518   C519    1.447   .     S
C519   O571    1.275   .     A
C519   O565    1.271   .     A
C520   O572    1.273   .     A
C520   O566    1.266   .     A
C521   O559    1.276   .     A
C521   C524    1.461   .     S
C521   O561    1.279   .     A
C522   O560    1.282   .     A
C522   C523    1.484   .     S
C522   O562    1.290   .     A
C523   C527    1.402   .     A
C525   C535    1.400   .     A
C525   H548    1.086   .     S
C526   N553    1.158   .     T
C527   H549    1.078   .     S
C527   C534    1.408   .     A
C528   N554    1.157   .     T
C529   H552    1.112   .     S
C529   H541    1.109   .     S
C529   H551    1.113   .     S
C530   H544    1.109   .     S
C530   H543    1.114   .     S
C530   O564    1.410   .     S
C530   H542    1.112   .     S
C531   N555    1.158   .     T
C532   N556    1.157   .     T
C533   N557    1.158   .     T
C534   C536    1.431   .     A
C534   C535    1.414   .     A
C535   C1187   1.390   .     S
C536   C1185   1.423   .     S
C537   C538    1.414   .     A
C537   C1184   1.423   1_554 S
C538   H550    1.076   .     S
C538   C539    1.385   .     A
C539   H540    1.084   .     S
C539   C1183   1.390   1_554 S
H546   C587    1.086   .     S
O558   Zn574   1.944   .     S
O558   Zn573   1.961   .     S
O558   Zn575   1.935   .     S
O558   Zn576   1.930   .     S
O559   Zn574   1.925   .     S
O560   Zn576   1.936   .     S
O561   Zn575   1.930   .     S
O562   Zn573   1.920   .     S
O563   C86     1.399   1_565 S
O563   C97     1.412   1_565 S
O565   Zn573   1.938   .     S
O566   Zn576   1.942   .     S
O567   Zn574   1.923   .     S
O568   Zn575   1.934   .     S
O569   Zn576   1.930   .     S
O570   Zn573   1.921   .     S
O571   Zn574   1.947   .     S
O572   Zn575   1.940   .     S
C577   O641    1.270   .     A
C577   O639    1.270   .     A
C577   C587    1.436   .     S
C578   C579    1.409   .     A
C578   C605    1.454   .     S
C578   C608    1.421   .     A
C579   C603    1.452   .     S
C579   C1229   1.419   .     S
C580   C586    1.454   .     S
C580   O642    1.279   .     A
C580   O640    1.283   .     A
C581   C582    1.424   .     A
C581   C583    1.426   .     A
C581   C1227   1.419   1_554 S
C582   C585    1.422   .     A
C582   C609    1.425   .     A
C583   C584    1.395   .     A
C583   C598    1.446   .     S
C584   H619    1.086   .     S
C584   C596    1.393   .     A
C585   C596    1.397   .     A
C585   O636    1.385   .     S
C586   C443    1.334   1_655 S
C586   H473    1.088   1_655 S
C588   C604    1.444   .     S
C588   C595    1.417   .     A
C588   C597    1.395   .     A
C589   C592    1.459   .     S
C589   C158    1.353   1_565 S
C589   C168    1.455   1_565 S
C590   C591    1.447   .     S
C591   O643    1.275   .     A
C591   O637    1.271   .     A
C592   O644    1.273   .     A
C592   O638    1.266   .     A
C593   O631    1.276   .     A
C593   C596    1.461   .     S
C593   O633    1.279   .     A
C594   O632    1.282   .     A
C594   C595    1.484   .     S
C594   O634    1.290   .     A
C595   C599    1.402   .     A
C597   C607    1.400   .     A
C597   H620    1.086   .     S
C598   N625    1.158   .     T
C599   H621    1.078   .     S
C599   C606    1.408   .     A
C600   N626    1.157   .     T
C601   H624    1.112   .     S
C601   H613    1.109   .     S
C601   H623    1.113   .     S
C602   H616    1.109   .     S
C602   H615    1.114   .     S
C602   O636    1.410   .     S
C602   H614    1.112   .     S
C603   N627    1.158   .     T
C604   N628    1.157   .     T
C605   N629    1.158   .     T
C606   C608    1.431   .     A
C606   C607    1.414   .     A
C607   C1259   1.390   .     S
C608   C1257   1.423   .     S
C609   C610    1.414   .     A
C609   C1256   1.423   1_554 S
C610   H622    1.076   .     S
C610   C611    1.385   .     A
C611   H612    1.084   .     S
C611   C1255   1.390   1_554 S
H618   C443    1.086   1_655 S
O630   Zn646   1.944   .     S
O630   Zn645   1.961   .     S
O630   Zn647   1.935   .     S
O630   Zn648   1.930   .     S
O631   Zn646   1.925   .     S
O632   Zn648   1.936   .     S
O633   Zn647   1.930   .     S
O634   Zn645   1.920   .     S
O635   C158    1.399   1_565 S
O635   C169    1.412   1_565 S
O637   Zn645   1.938   .     S
O638   Zn648   1.942   .     S
O639   Zn646   1.923   .     S
O640   Zn647   1.934   .     S
O641   Zn648   1.930   .     S
O642   Zn645   1.921   .     S
O643   Zn646   1.947   .     S
O644   Zn647   1.940   .     S
C649   O713    1.270   .     A
C649   O711    1.270   .     A
C649   C659    1.436   .     S
C650   C651    1.409   .     A
C650   C677    1.454   .     S
C650   C680    1.421   .     A
C651   C675    1.452   .     S
C651   C5      1.419   1_556 S
C652   C658    1.454   .     S
C652   O714    1.279   .     A
C652   O712    1.283   .     A
C653   C654    1.424   .     A
C653   C655    1.426   .     A
C654   C657    1.422   .     A
C654   C681    1.425   .     A
C655   C656    1.395   .     A
C655   C670    1.446   .     S
C656   H691    1.086   .     S
C656   C668    1.393   .     A
C657   C668    1.397   .     A
C657   O708    1.385   .     S
C658   C731    1.334   .     S
C658   H761    1.088   .     S
C659   C802    1.334   1_455 S
C659   H834    1.086   1_455 S
C660   C676    1.444   .     S
C660   C667    1.417   .     A
C660   C669    1.395   .     A
C661   C664    1.459   .     S
C661   C878    1.353   .     S
C661   C888    1.455   .     S
C662   C663    1.447   .     S
C662   C1093   1.353   1_545 S
C662   O1139   1.399   1_545 S
C663   O715    1.275   .     A
C663   O709    1.271   .     A
C664   O716    1.273   .     A
C664   O710    1.266   .     A
C665   O703    1.276   .     A
C665   C668    1.461   .     S
C665   O705    1.279   .     A
C666   O704    1.282   .     A
C666   C667    1.484   .     S
C666   O706    1.290   .     A
C667   C671    1.402   .     A
C669   C679    1.400   .     A
C669   H692    1.086   .     S
C670   N697    1.158   .     T
C671   H693    1.078   .     S
C671   C678    1.408   .     A
C672   N698    1.157   .     T
C672   C1093   1.455   1_545 S
C673   H696    1.112   .     S
C673   H685    1.109   .     S
C673   H695    1.113   .     S
C673   O1139   1.412   1_545 S
C674   H688    1.109   .     S
C674   H687    1.114   .     S
C674   O708    1.410   .     S
C674   H686    1.112   .     S
C675   N699    1.158   .     T
C676   N700    1.157   .     T
C677   N701    1.158   .     T
C678   C680    1.431   .     A
C678   C679    1.414   .     A
C679   C35     1.390   1_556 S
C680   C33     1.423   1_556 S
C681   C682    1.414   .     A
C682   H694    1.076   .     S
C682   C683    1.385   .     A
C683   H684    1.084   .     S
H689   C802    1.088   1_455 S
H690   C731    1.086   .     S
O702   Zn718   1.944   .     S
O702   Zn717   1.961   .     S
O702   Zn719   1.935   .     S
O702   Zn720   1.930   .     S
O703   Zn718   1.925   .     S
O704   Zn720   1.936   .     S
O705   Zn719   1.930   .     S
O706   Zn717   1.920   .     S
O707   C878    1.399   .     S
O707   C889    1.412   .     S
O709   Zn717   1.938   .     S
O710   Zn720   1.942   .     S
O711   Zn718   1.923   .     S
O712   Zn719   1.934   .     S
O713   Zn720   1.930   .     S
O714   Zn717   1.921   .     S
O715   Zn718   1.947   .     S
O716   Zn719   1.940   .     S
C721   O785    1.270   .     A
C721   O783    1.270   .     A
C721   C731    1.436   .     S
C722   C723    1.409   .     A
C722   C749    1.454   .     S
C722   C752    1.421   .     A
C723   C747    1.452   .     S
C723   C77     1.419   1_556 S
C724   C730    1.454   .     S
C724   O786    1.279   .     A
C724   O784    1.283   .     A
C725   C726    1.424   .     A
C725   C727    1.426   .     A
C726   C729    1.422   .     A
C726   C753    1.425   .     A
C727   C728    1.395   .     A
C727   C742    1.446   .     S
C728   H763    1.086   .     S
C728   C740    1.393   .     A
C729   C740    1.397   .     A
C729   O780    1.385   .     S
C730   C803    1.334   .     S
C730   H833    1.088   .     S
C732   C748    1.444   .     S
C732   C739    1.417   .     A
C732   C741    1.395   .     A
C733   C736    1.459   .     S
C733   C950    1.353   .     S
C733   C960    1.455   .     S
C734   C735    1.447   .     S
C734   C1165   1.353   1_545 S
C734   O1211   1.399   1_545 S
C735   O787    1.275   .     A
C735   O781    1.271   .     A
C736   O788    1.273   .     A
C736   O782    1.266   .     A
C737   O775    1.276   .     A
C737   C740    1.461   .     S
C737   O777    1.279   .     A
C738   O776    1.282   .     A
C738   C739    1.484   .     S
C738   O778    1.290   .     A
C739   C743    1.402   .     A
C741   C751    1.400   .     A
C741   H764    1.086   .     S
C742   N769    1.158   .     T
C743   H765    1.078   .     S
C743   C750    1.408   .     A
C744   N770    1.157   .     T
C744   C1165   1.455   1_545 S
C745   H768    1.112   .     S
C745   H757    1.109   .     S
C745   H767    1.113   .     S
C745   O1211   1.412   1_545 S
C746   H760    1.109   .     S
C746   H759    1.114   .     S
C746   O780    1.410   .     S
C746   H758    1.112   .     S
C747   N771    1.158   .     T
C748   N772    1.157   .     T
C749   N773    1.158   .     T
C750   C752    1.431   .     A
C750   C751    1.414   .     A
C751   C107    1.390   1_556 S
C752   C105    1.423   1_556 S
C753   C754    1.414   .     A
C754   H766    1.076   .     S
C754   C755    1.385   .     A
C755   H756    1.084   .     S
H762   C803    1.086   .     S
O774   Zn790   1.944   .     S
O774   Zn789   1.961   .     S
O774   Zn791   1.935   .     S
O774   Zn792   1.930   .     S
O775   Zn790   1.925   .     S
O776   Zn792   1.936   .     S
O777   Zn791   1.930   .     S
O778   Zn789   1.920   .     S
O779   C950    1.399   .     S
O779   C961    1.412   .     S
O781   Zn789   1.938   .     S
O782   Zn792   1.942   .     S
O783   Zn790   1.923   .     S
O784   Zn791   1.934   .     S
O785   Zn792   1.930   .     S
O786   Zn789   1.921   .     S
O787   Zn790   1.947   .     S
O788   Zn791   1.940   .     S
C793   O857    1.270   .     A
C793   O855    1.270   .     A
C793   C803    1.436   .     S
C794   C795    1.409   .     A
C794   C821    1.454   .     S
C794   C824    1.421   .     A
C795   C819    1.452   .     S
C795   C149    1.419   1_556 S
C796   C802    1.454   .     S
C796   O858    1.279   .     A
C796   O856    1.283   .     A
C797   C798    1.424   .     A
C797   C799    1.426   .     A
C798   C801    1.422   .     A
C798   C825    1.425   .     A
C799   C800    1.395   .     A
C799   C814    1.446   .     S
C800   H835    1.086   .     S
C800   C812    1.393   .     A
C801   C812    1.397   .     A
C801   O852    1.385   .     S
C802   C659    1.334   1_655 S
C802   H689    1.088   1_655 S
C804   C820    1.444   .     S
C804   C811    1.417   .     A
C804   C813    1.395   .     A
C805   C808    1.459   .     S
C805   C1022   1.353   .     S
C805   C1032   1.455   .     S
C806   C807    1.447   .     S
C806   C1237   1.353   1_545 S
C806   O1283   1.399   1_545 S
C807   O859    1.275   .     A
C807   O853    1.271   .     A
C808   O860    1.273   .     A
C808   O854    1.266   .     A
C809   O847    1.276   .     A
C809   C812    1.461   .     S
C809   O849    1.279   .     A
C810   O848    1.282   .     A
C810   C811    1.484   .     S
C810   O850    1.290   .     A
C811   C815    1.402   .     A
C813   C823    1.400   .     A
C813   H836    1.086   .     S
C814   N841    1.158   .     T
C815   H837    1.078   .     S
C815   C822    1.408   .     A
C816   N842    1.157   .     T
C816   C1237   1.455   1_545 S
C817   H840    1.112   .     S
C817   H829    1.109   .     S
C817   H839    1.113   .     S
C817   O1283   1.412   1_545 S
C818   H832    1.109   .     S
C818   H831    1.114   .     S
C818   O852    1.410   .     S
C818   H830    1.112   .     S
C819   N843    1.158   .     T
C820   N844    1.157   .     T
C821   N845    1.158   .     T
C822   C824    1.431   .     A
C822   C823    1.414   .     A
C823   C179    1.390   1_556 S
C824   C177    1.423   1_556 S
C825   C826    1.414   .     A
C826   H838    1.076   .     S
C826   C827    1.385   .     A
C827   H828    1.084   .     S
H834   C659    1.086   1_655 S
O846   Zn862   1.944   .     S
O846   Zn861   1.961   .     S
O846   Zn863   1.935   .     S
O846   Zn864   1.930   .     S
O847   Zn862   1.925   .     S
O848   Zn864   1.936   .     S
O849   Zn863   1.930   .     S
O850   Zn861   1.920   .     S
O851   C1022   1.399   .     S
O851   C1033   1.412   .     S
O853   Zn861   1.938   .     S
O854   Zn864   1.942   .     S
O855   Zn862   1.923   .     S
O856   Zn863   1.934   .     S
O857   Zn864   1.930   .     S
O858   Zn861   1.921   .     S
O859   Zn862   1.947   .     S
O860   Zn863   1.940   .     S
C865   O929    1.270   .     A
C865   O927    1.270   .     A
C865   C875    1.436   .     S
C866   C867    1.409   .     A
C866   C893    1.454   .     S
C866   C896    1.421   .     A
C867   C891    1.452   .     S
C867   C221    1.419   1_556 S
C868   C874    1.454   .     S
C868   O930    1.279   .     A
C868   O928    1.283   .     A
C869   C870    1.424   .     A
C869   C871    1.426   .     A
C870   C873    1.422   .     A
C870   C897    1.425   .     A
C871   C872    1.395   .     A
C871   C886    1.446   .     S
C872   H907    1.086   .     S
C872   C884    1.393   .     A
C873   C884    1.397   .     A
C873   O924    1.385   .     S
C874   C947    1.334   .     S
C874   H977    1.088   .     S
C875   C1018   1.334   1_455 S
C875   H1050   1.086   1_455 S
C876   C892    1.444   .     S
C876   C883    1.417   .     A
C876   C885    1.395   .     A
C877   C880    1.459   .     S
C877   C1094   1.353   .     S
C877   C1104   1.455   .     S
C878   C879    1.447   .     S
C879   O931    1.275   .     A
C879   O925    1.271   .     A
C880   O932    1.273   .     A
C880   O926    1.266   .     A
C881   O919    1.276   .     A
C881   C884    1.461   .     S
C881   O921    1.279   .     A
C882   O920    1.282   .     A
C882   C883    1.484   .     S
C882   O922    1.290   .     A
C883   C887    1.402   .     A
C885   C895    1.400   .     A
C885   H908    1.086   .     S
C886   N913    1.158   .     T
C887   H909    1.078   .     S
C887   C894    1.408   .     A
C888   N914    1.157   .     T
C889   H912    1.112   .     S
C889   H901    1.109   .     S
C889   H911    1.113   .     S
C890   H904    1.109   .     S
C890   H903    1.114   .     S
C890   O924    1.410   .     S
C890   H902    1.112   .     S
C891   N915    1.158   .     T
C892   N916    1.157   .     T
C893   N917    1.158   .     T
C894   C896    1.431   .     A
C894   C895    1.414   .     A
C895   C251    1.390   1_556 S
C896   C249    1.423   1_556 S
C897   C898    1.414   .     A
C898   H910    1.076   .     S
C898   C899    1.385   .     A
C899   H900    1.084   .     S
H905   C1018   1.088   1_455 S
H906   C947    1.086   .     S
O918   Zn934   1.944   .     S
O918   Zn933   1.961   .     S
O918   Zn935   1.935   .     S
O918   Zn936   1.930   .     S
O919   Zn934   1.925   .     S
O920   Zn936   1.936   .     S
O921   Zn935   1.930   .     S
O922   Zn933   1.920   .     S
O923   C1094   1.399   .     S
O923   C1105   1.412   .     S
O925   Zn933   1.938   .     S
O926   Zn936   1.942   .     S
O927   Zn934   1.923   .     S
O928   Zn935   1.934   .     S
O929   Zn936   1.930   .     S
O930   Zn933   1.921   .     S
O931   Zn934   1.947   .     S
O932   Zn935   1.940   .     S
C937   O1001   1.270   .     A
C937   O999    1.270   .     A
C937   C947    1.436   .     S
C938   C939    1.409   .     A
C938   C965    1.454   .     S
C938   C968    1.421   .     A
C939   C963    1.452   .     S
C939   C293    1.419   1_556 S
C940   C946    1.454   .     S
C940   O1002   1.279   .     A
C940   O1000   1.283   .     A
C941   C942    1.424   .     A
C941   C943    1.426   .     A
C942   C945    1.422   .     A
C942   C969    1.425   .     A
C943   C944    1.395   .     A
C943   C958    1.446   .     S
C944   H979    1.086   .     S
C944   C956    1.393   .     A
C945   C956    1.397   .     A
C945   O996    1.385   .     S
C946   C1019   1.334   .     S
C946   H1049   1.088   .     S
C948   C964    1.444   .     S
C948   C955    1.417   .     A
C948   C957    1.395   .     A
C949   C952    1.459   .     S
C949   C1166   1.353   .     S
C949   C1176   1.455   .     S
C950   C951    1.447   .     S
C951   O1003   1.275   .     A
C951   O997    1.271   .     A
C952   O1004   1.273   .     A
C952   O998    1.266   .     A
C953   O991    1.276   .     A
C953   C956    1.461   .     S
C953   O993    1.279   .     A
C954   O992    1.282   .     A
C954   C955    1.484   .     S
C954   O994    1.290   .     A
C955   C959    1.402   .     A
C957   C967    1.400   .     A
C957   H980    1.086   .     S
C958   N985    1.158   .     T
C959   H981    1.078   .     S
C959   C966    1.408   .     A
C960   N986    1.157   .     T
C961   H984    1.112   .     S
C961   H973    1.109   .     S
C961   H983    1.113   .     S
C962   H976    1.109   .     S
C962   H975    1.114   .     S
C962   O996    1.410   .     S
C962   H974    1.112   .     S
C963   N987    1.158   .     T
C964   N988    1.157   .     T
C965   N989    1.158   .     T
C966   C968    1.431   .     A
C966   C967    1.414   .     A
C967   C323    1.390   1_556 S
C968   C321    1.423   1_556 S
C969   C970    1.414   .     A
C970   H982    1.076   .     S
C970   C971    1.385   .     A
C971   H972    1.084   .     S
H978   C1019   1.086   .     S
O990   Zn1006  1.944   .     S
O990   Zn1005  1.961   .     S
O990   Zn1007  1.935   .     S
O990   Zn1008  1.930   .     S
O991   Zn1006  1.925   .     S
O992   Zn1008  1.936   .     S
O993   Zn1007  1.930   .     S
O994   Zn1005  1.920   .     S
O995   C1166   1.399   .     S
O995   C1177   1.412   .     S
O997   Zn1005  1.938   .     S
O998   Zn1008  1.942   .     S
O999   Zn1006  1.923   .     S
O1000  Zn1007  1.934   .     S
O1001  Zn1008  1.930   .     S
O1002  Zn1005  1.921   .     S
O1003  Zn1006  1.947   .     S
O1004  Zn1007  1.940   .     S
C1009  O1073   1.270   .     A
C1009  O1071   1.270   .     A
C1009  C1019   1.436   .     S
C1010  C1011   1.409   .     A
C1010  C1037   1.454   .     S
C1010  C1040   1.421   .     A
C1011  C1035   1.452   .     S
C1011  C365    1.419   1_556 S
C1012  C1018   1.454   .     S
C1012  O1074   1.279   .     A
C1012  O1072   1.283   .     A
C1013  C1014   1.424   .     A
C1013  C1015   1.426   .     A
C1014  C1017   1.422   .     A
C1014  C1041   1.425   .     A
C1015  C1016   1.395   .     A
C1015  C1030   1.446   .     S
C1016  H1051   1.086   .     S
C1016  C1028   1.393   .     A
C1017  C1028   1.397   .     A
C1017  O1068   1.385   .     S
C1018  C875    1.334   1_655 S
C1018  H905    1.088   1_655 S
C1020  C1036   1.444   .     S
C1020  C1027   1.417   .     A
C1020  C1029   1.395   .     A
C1021  C1024   1.459   .     S
C1021  C1238   1.353   .     S
C1021  C1248   1.455   .     S
C1022  C1023   1.447   .     S
C1023  O1075   1.275   .     A
C1023  O1069   1.271   .     A
C1024  O1076   1.273   .     A
C1024  O1070   1.266   .     A
C1025  O1063   1.276   .     A
C1025  C1028   1.461   .     S
C1025  O1065   1.279   .     A
C1026  O1064   1.282   .     A
C1026  C1027   1.484   .     S
C1026  O1066   1.290   .     A
C1027  C1031   1.402   .     A
C1029  C1039   1.400   .     A
C1029  H1052   1.086   .     S
C1030  N1057   1.158   .     T
C1031  H1053   1.078   .     S
C1031  C1038   1.408   .     A
C1032  N1058   1.157   .     T
C1033  H1056   1.112   .     S
C1033  H1045   1.109   .     S
C1033  H1055   1.113   .     S
C1034  H1048   1.109   .     S
C1034  H1047   1.114   .     S
C1034  O1068   1.410   .     S
C1034  H1046   1.112   .     S
C1035  N1059   1.158   .     T
C1036  N1060   1.157   .     T
C1037  N1061   1.158   .     T
C1038  C1040   1.431   .     A
C1038  C1039   1.414   .     A
C1039  C395    1.390   1_556 S
C1040  C393    1.423   1_556 S
C1041  C1042   1.414   .     A
C1042  H1054   1.076   .     S
C1042  C1043   1.385   .     A
C1043  H1044   1.084   .     S
H1050  C875    1.086   1_655 S
O1062  Zn1078  1.944   .     S
O1062  Zn1077  1.961   .     S
O1062  Zn1079  1.935   .     S
O1062  Zn1080  1.930   .     S
O1063  Zn1078  1.925   .     S
O1064  Zn1080  1.936   .     S
O1065  Zn1079  1.930   .     S
O1066  Zn1077  1.920   .     S
O1067  C1238   1.399   .     S
O1067  C1249   1.412   .     S
O1069  Zn1077  1.938   .     S
O1070  Zn1080  1.942   .     S
O1071  Zn1078  1.923   .     S
O1072  Zn1079  1.934   .     S
O1073  Zn1080  1.930   .     S
O1074  Zn1077  1.921   .     S
O1075  Zn1078  1.947   .     S
O1076  Zn1079  1.940   .     S
C1081  O1145   1.270   .     A
C1081  O1143   1.270   .     A
C1081  C1091   1.436   .     S
C1082  C1083   1.409   .     A
C1082  C1109   1.454   .     S
C1082  C1112   1.421   .     A
C1083  C1107   1.452   .     S
C1083  C437    1.419   1_556 S
C1084  C1090   1.454   .     S
C1084  O1146   1.279   .     A
C1084  O1144   1.283   .     A
C1085  C1086   1.424   .     A
C1085  C1087   1.426   .     A
C1086  C1089   1.422   .     A
C1086  C1113   1.425   .     A
C1087  C1088   1.395   .     A
C1087  C1102   1.446   .     S
C1088  H1123   1.086   .     S
C1088  C1100   1.393   .     A
C1089  C1100   1.397   .     A
C1089  O1140   1.385   .     S
C1090  C1163   1.334   .     S
C1090  H1193   1.088   .     S
C1091  C1234   1.334   1_455 S
C1091  H1266   1.086   1_455 S
C1092  C1108   1.444   .     S
C1092  C1099   1.417   .     A
C1092  C1101   1.395   .     A
C1093  C1096   1.459   .     S
C1093  C662    1.353   1_565 S
C1093  C672    1.455   1_565 S
C1094  C1095   1.447   .     S
C1095  O1147   1.275   .     A
C1095  O1141   1.271   .     A
C1096  O1148   1.273   .     A
C1096  O1142   1.266   .     A
C1097  O1135   1.276   .     A
C1097  C1100   1.461   .     S
C1097  O1137   1.279   .     A
C1098  O1136   1.282   .     A
C1098  C1099   1.484   .     S
C1098  O1138   1.290   .     A
C1099  C1103   1.402   .     A
C1101  C1111   1.400   .     A
C1101  H1124   1.086   .     S
C1102  N1129   1.158   .     T
C1103  H1125   1.078   .     S
C1103  C1110   1.408   .     A
C1104  N1130   1.157   .     T
C1105  H1128   1.112   .     S
C1105  H1117   1.109   .     S
C1105  H1127   1.113   .     S
C1106  H1120   1.109   .     S
C1106  H1119   1.114   .     S
C1106  O1140   1.410   .     S
C1106  H1118   1.112   .     S
C1107  N1131   1.158   .     T
C1108  N1132   1.157   .     T
C1109  N1133   1.158   .     T
C1110  C1112   1.431   .     A
C1110  C1111   1.414   .     A
C1111  C467    1.390   1_556 S
C1112  C465    1.423   1_556 S
C1113  C1114   1.414   .     A
C1114  H1126   1.076   .     S
C1114  C1115   1.385   .     A
C1115  H1116   1.084   .     S
H1121  C1234   1.088   1_455 S
H1122  C1163   1.086   .     S
O1134  Zn1150  1.944   .     S
O1134  Zn1149  1.961   .     S
O1134  Zn1151  1.935   .     S
O1134  Zn1152  1.930   .     S
O1135  Zn1150  1.925   .     S
O1136  Zn1152  1.936   .     S
O1137  Zn1151  1.930   .     S
O1138  Zn1149  1.920   .     S
O1139  C662    1.399   1_565 S
O1139  C673    1.412   1_565 S
O1141  Zn1149  1.938   .     S
O1142  Zn1152  1.942   .     S
O1143  Zn1150  1.923   .     S
O1144  Zn1151  1.934   .     S
O1145  Zn1152  1.930   .     S
O1146  Zn1149  1.921   .     S
O1147  Zn1150  1.947   .     S
O1148  Zn1151  1.940   .     S
C1153  O1217   1.270   .     A
C1153  O1215   1.270   .     A
C1153  C1163   1.436   .     S
C1154  C1155   1.409   .     A
C1154  C1181   1.454   .     S
C1154  C1184   1.421   .     A
C1155  C1179   1.452   .     S
C1155  C509    1.419   1_556 S
C1156  C1162   1.454   .     S
C1156  O1218   1.279   .     A
C1156  O1216   1.283   .     A
C1157  C1158   1.424   .     A
C1157  C1159   1.426   .     A
C1158  C1161   1.422   .     A
C1158  C1185   1.425   .     A
C1159  C1160   1.395   .     A
C1159  C1174   1.446   .     S
C1160  H1195   1.086   .     S
C1160  C1172   1.393   .     A
C1161  C1172   1.397   .     A
C1161  O1212   1.385   .     S
C1162  C1235   1.334   .     S
C1162  H1265   1.088   .     S
C1164  C1180   1.444   .     S
C1164  C1171   1.417   .     A
C1164  C1173   1.395   .     A
C1165  C1168   1.459   .     S
C1165  C734    1.353   1_565 S
C1165  C744    1.455   1_565 S
C1166  C1167   1.447   .     S
C1167  O1219   1.275   .     A
C1167  O1213   1.271   .     A
C1168  O1220   1.273   .     A
C1168  O1214   1.266   .     A
C1169  O1207   1.276   .     A
C1169  C1172   1.461   .     S
C1169  O1209   1.279   .     A
C1170  O1208   1.282   .     A
C1170  C1171   1.484   .     S
C1170  O1210   1.290   .     A
C1171  C1175   1.402   .     A
C1173  C1183   1.400   .     A
C1173  H1196   1.086   .     S
C1174  N1201   1.158   .     T
C1175  H1197   1.078   .     S
C1175  C1182   1.408   .     A
C1176  N1202   1.157   .     T
C1177  H1200   1.112   .     S
C1177  H1189   1.109   .     S
C1177  H1199   1.113   .     S
C1178  H1192   1.109   .     S
C1178  H1191   1.114   .     S
C1178  O1212   1.410   .     S
C1178  H1190   1.112   .     S
C1179  N1203   1.158   .     T
C1180  N1204   1.157   .     T
C1181  N1205   1.158   .     T
C1182  C1184   1.431   .     A
C1182  C1183   1.414   .     A
C1183  C539    1.390   1_556 S
C1184  C537    1.423   1_556 S
C1185  C1186   1.414   .     A
C1186  H1198   1.076   .     S
C1186  C1187   1.385   .     A
C1187  H1188   1.084   .     S
H1194  C1235   1.086   .     S
O1206  Zn1222  1.944   .     S
O1206  Zn1221  1.961   .     S
O1206  Zn1223  1.935   .     S
O1206  Zn1224  1.930   .     S
O1207  Zn1222  1.925   .     S
O1208  Zn1224  1.936   .     S
O1209  Zn1223  1.930   .     S
O1210  Zn1221  1.920   .     S
O1211  C734    1.399   1_565 S
O1211  C745    1.412   1_565 S
O1213  Zn1221  1.938   .     S
O1214  Zn1224  1.942   .     S
O1215  Zn1222  1.923   .     S
O1216  Zn1223  1.934   .     S
O1217  Zn1224  1.930   .     S
O1218  Zn1221  1.921   .     S
O1219  Zn1222  1.947   .     S
O1220  Zn1223  1.940   .     S
C1225  O1289   1.270   .     A
C1225  O1287   1.270   .     A
C1225  C1235   1.436   .     S
C1226  C1227   1.409   .     A
C1226  C1253   1.454   .     S
C1226  C1256   1.421   .     A
C1227  C1251   1.452   .     S
C1227  C581    1.419   1_556 S
C1228  C1234   1.454   .     S
C1228  O1290   1.279   .     A
C1228  O1288   1.283   .     A
C1229  C1230   1.424   .     A
C1229  C1231   1.426   .     A
C1230  C1233   1.422   .     A
C1230  C1257   1.425   .     A
C1231  C1232   1.395   .     A
C1231  C1246   1.446   .     S
C1232  H1267   1.086   .     S
C1232  C1244   1.393   .     A
C1233  C1244   1.397   .     A
C1233  O1284   1.385   .     S
C1234  C1091   1.334   1_655 S
C1234  H1121   1.088   1_655 S
C1236  C1252   1.444   .     S
C1236  C1243   1.417   .     A
C1236  C1245   1.395   .     A
C1237  C1240   1.459   .     S
C1237  C806    1.353   1_565 S
C1237  C816    1.455   1_565 S
C1238  C1239   1.447   .     S
C1239  O1291   1.275   .     A
C1239  O1285   1.271   .     A
C1240  O1292   1.273   .     A
C1240  O1286   1.266   .     A
C1241  O1279   1.276   .     A
C1241  C1244   1.461   .     S
C1241  O1281   1.279   .     A
C1242  O1280   1.282   .     A
C1242  C1243   1.484   .     S
C1242  O1282   1.290   .     A
C1243  C1247   1.402   .     A
C1245  C1255   1.400   .     A
C1245  H1268   1.086   .     S
C1246  N1273   1.158   .     T
C1247  H1269   1.078   .     S
C1247  C1254   1.408   .     A
C1248  N1274   1.157   .     T
C1249  H1272   1.112   .     S
C1249  H1261   1.109   .     S
C1249  H1271   1.113   .     S
C1250  H1264   1.109   .     S
C1250  H1263   1.114   .     S
C1250  O1284   1.410   .     S
C1250  H1262   1.112   .     S
C1251  N1275   1.158   .     T
C1252  N1276   1.157   .     T
C1253  N1277   1.158   .     T
C1254  C1256   1.431   .     A
C1254  C1255   1.414   .     A
C1255  C611    1.390   1_556 S
C1256  C609    1.423   1_556 S
C1257  C1258   1.414   .     A
C1258  H1270   1.076   .     S
C1258  C1259   1.385   .     A
C1259  H1260   1.084   .     S
H1266  C1091   1.086   1_655 S
O1278  Zn1294  1.944   .     S
O1278  Zn1293  1.961   .     S
O1278  Zn1295  1.935   .     S
O1278  Zn1296  1.930   .     S
O1279  Zn1294  1.925   .     S
O1280  Zn1296  1.936   .     S
O1281  Zn1295  1.930   .     S
O1282  Zn1293  1.920   .     S
O1283  C806    1.399   1_565 S
O1283  C817    1.412   1_565 S
O1285  Zn1293  1.938   .     S
O1286  Zn1296  1.942   .     S
O1287  Zn1294  1.923   .     S
O1288  Zn1295  1.934   .     S
O1289  Zn1296  1.930   .     S
O1290  Zn1293  1.921   .     S
O1291  Zn1294  1.947   .     S
O1292  Zn1295  1.940   .     S
