data_str_m3_o1_o5_pcu_sym.56
_audit_creation_date              2020-01-03
_audit_creation_method            'Materials Studio'
_symmetry_space_group_name_H-M    'P1'
_symmetry_Int_Tables_number       1
_symmetry_cell_setting            triclinic
loop_
_symmetry_equiv_pos_as_xyz
  x,y,z
_cell_length_a                    32.1485
_cell_length_b                    29.8017
_cell_length_c                    26.6963
_cell_angle_alpha                 90.5769
_cell_angle_beta                  90.9420
_cell_angle_gamma                 90.4330
loop_
_atom_site_label
_atom_site_type_symbol
_atom_site_fract_x
_atom_site_fract_y
_atom_site_fract_z
_atom_site_U_iso_or_equiv
_atom_site_adp_type
_atom_site_occupancy
C1     C     0.08671   0.16657   0.16651   0.00000  Uiso   1.00
C2     C     0.02149   0.20699   0.15959   0.00000  Uiso   1.00
C3     C     0.29082   0.16680   0.16690   0.00000  Uiso   1.00
C4     C     0.04251   0.16653   0.16643   0.00000  Uiso   1.00
C5     C     0.19043   0.02500   0.20050   0.00000  Uiso   1.00
C6     C     0.14291   0.30833   0.13284   0.00000  Uiso   1.00
C7     C     0.14311   0.02279   0.13232   0.00000  Uiso   1.00
C8     C     0.19023   0.31054   0.20102   0.00000  Uiso   1.00
C9     C     0.24662   0.16677   0.16683   0.00000  Uiso   1.00
C10    C     0.16659   0.16652   0.07298   0.00000  Uiso   1.00
C11    C     0.16674   0.16681   0.26036   0.00000  Uiso   1.00
C12    C     0.16664   0.16646   0.02182   0.00000  Uiso   1.00
C13    C     0.16669   0.16687   0.31151   0.00000  Uiso   1.00
C14    C     0.02111   0.12621   0.17347   0.00000  Uiso   1.00
C15    C     0.31222   0.20713   0.15987   0.00000  Uiso   1.00
C16    C     0.31184   0.12634   0.17374   0.00000  Uiso   1.00
H17    H     0.03712   0.09474   0.17903   0.00000  Uiso   1.00
H18    H     0.09941   0.06778   0.10990   0.00000  Uiso   1.00
H19    H     0.23393   0.26556   0.22342   0.00000  Uiso   1.00
H20    H     0.19446   0.27460   0.26485   0.00000  Uiso   1.00
H21    H     0.29621   0.23859   0.15430   0.00000  Uiso   1.00
H22    H     0.29554   0.09491   0.17945   0.00000  Uiso   1.00
H23    H     0.03780   0.23842   0.15389   0.00000  Uiso   1.00
H24    H     0.20652   0.04156   0.27182   0.00000  Uiso   1.00
H25    H     0.24656   0.04051   0.23136   0.00000  Uiso   1.00
H26    H     0.08677   0.29283   0.10197   0.00000  Uiso   1.00
H27    H     0.12681   0.29177   0.06151   0.00000  Uiso   1.00
H28    H     0.13888   0.05873   0.06848   0.00000  Uiso   1.00
N29    N     0.16667   0.28573   0.16667   0.00000  Uiso   1.00
N30    N     0.16667   0.04760   0.16667   0.00000  Uiso   1.00
N31    N     0.21560   0.05007   0.23569   0.00000  Uiso   1.00
N32    N     0.11774   0.28327   0.09765   0.00000  Uiso   1.00
N33    N     0.11892   0.04407   0.09408   0.00000  Uiso   1.00
N34    N     0.21442   0.28927   0.23925   0.00000  Uiso   1.00
O35    O     0.10559   0.20487   0.16666   0.00000  Uiso   1.00
O36    O     0.22774   0.12846   0.16667   0.00000  Uiso   1.00
O37    O     0.22774   0.20487   0.16667   0.00000  Uiso   1.00
O38    O     0.10559   0.12846   0.16666   0.00000  Uiso   1.00
O39    O     0.16667   0.20488   0.09511   0.00000  Uiso   1.00
O40    O     0.16666   0.12845   0.23822   0.00000  Uiso   1.00
O41    O     0.16666   0.20488   0.23822   0.00000  Uiso   1.00
O42    O     0.16667   0.12845   0.09511   0.00000  Uiso   1.00
Zn43   Zn    0.16667   0.21771   0.16667   0.00000  Uiso   1.00
Zn44   Zn    0.16667   0.11563   0.16667   0.00000  Uiso   1.00
C45    C     0.42005   0.16657   0.16651   0.00000  Uiso   1.00
C46    C     0.35483   0.20699   0.15959   0.00000  Uiso   1.00
C47    C     0.62416   0.16680   0.16690   0.00000  Uiso   1.00
C48    C     0.37584   0.16653   0.16643   0.00000  Uiso   1.00
C49    C     0.52376   0.02500   0.20050   0.00000  Uiso   1.00
C50    C     0.47624   0.30833   0.13284   0.00000  Uiso   1.00
C51    C     0.47644   0.02279   0.13232   0.00000  Uiso   1.00
C52    C     0.52356   0.31054   0.20102   0.00000  Uiso   1.00
C53    C     0.57995   0.16677   0.16683   0.00000  Uiso   1.00
C54    C     0.49993   0.16652   0.07298   0.00000  Uiso   1.00
C55    C     0.50007   0.16681   0.26036   0.00000  Uiso   1.00
C56    C     0.49997   0.16646   0.02182   0.00000  Uiso   1.00
C57    C     0.50003   0.16687   0.31151   0.00000  Uiso   1.00
C58    C     0.35444   0.12621   0.17347   0.00000  Uiso   1.00
C59    C     0.64556   0.20713   0.15987   0.00000  Uiso   1.00
C60    C     0.64517   0.12634   0.17374   0.00000  Uiso   1.00
H61    H     0.37046   0.09474   0.17903   0.00000  Uiso   1.00
H62    H     0.43274   0.06778   0.10990   0.00000  Uiso   1.00
H63    H     0.56726   0.26556   0.22342   0.00000  Uiso   1.00
H64    H     0.52780   0.27460   0.26485   0.00000  Uiso   1.00
H65    H     0.62954   0.23859   0.15430   0.00000  Uiso   1.00
H66    H     0.62887   0.09491   0.17945   0.00000  Uiso   1.00
H67    H     0.37113   0.23842   0.15389   0.00000  Uiso   1.00
H68    H     0.53986   0.04156   0.27182   0.00000  Uiso   1.00
H69    H     0.57989   0.04051   0.23136   0.00000  Uiso   1.00
H70    H     0.42010   0.29283   0.10197   0.00000  Uiso   1.00
H71    H     0.46015   0.29177   0.06151   0.00000  Uiso   1.00
H72    H     0.47221   0.05873   0.06848   0.00000  Uiso   1.00
N73    N     0.50000   0.28573   0.16667   0.00000  Uiso   1.00
N74    N     0.50000   0.04760   0.16667   0.00000  Uiso   1.00
N75    N     0.54893   0.05007   0.23569   0.00000  Uiso   1.00
N76    N     0.45107   0.28327   0.09765   0.00000  Uiso   1.00
N77    N     0.45226   0.04407   0.09408   0.00000  Uiso   1.00
N78    N     0.54775   0.28927   0.23925   0.00000  Uiso   1.00
O79    O     0.43892   0.20487   0.16666   0.00000  Uiso   1.00
O80    O     0.56108   0.12846   0.16667   0.00000  Uiso   1.00
O81    O     0.56108   0.20487   0.16667   0.00000  Uiso   1.00
O82    O     0.43892   0.12846   0.16666   0.00000  Uiso   1.00
O83    O     0.50000   0.20488   0.09511   0.00000  Uiso   1.00
O84    O     0.50000   0.12845   0.23822   0.00000  Uiso   1.00
O85    O     0.50000   0.20488   0.23822   0.00000  Uiso   1.00
O86    O     0.50000   0.12845   0.09511   0.00000  Uiso   1.00
Zn87   Zn    0.50000   0.21771   0.16667   0.00000  Uiso   1.00
Zn88   Zn    0.50000   0.11563   0.16667   0.00000  Uiso   1.00
C89    C     0.75338   0.16657   0.16651   0.00000  Uiso   1.00
C90    C     0.68816   0.20699   0.15959   0.00000  Uiso   1.00
C91    C     0.95749   0.16680   0.16690   0.00000  Uiso   1.00
C92    C     0.70918   0.16653   0.16643   0.00000  Uiso   1.00
C93    C     0.85709   0.02500   0.20050   0.00000  Uiso   1.00
C94    C     0.80957   0.30833   0.13284   0.00000  Uiso   1.00
C95    C     0.80978   0.02279   0.13232   0.00000  Uiso   1.00
C96    C     0.85689   0.31054   0.20102   0.00000  Uiso   1.00
C97    C     0.91329   0.16677   0.16683   0.00000  Uiso   1.00
C98    C     0.83326   0.16652   0.07298   0.00000  Uiso   1.00
C99    C     0.83341   0.16681   0.26036   0.00000  Uiso   1.00
C100   C     0.83331   0.16646   0.02182   0.00000  Uiso   1.00
C101   C     0.83336   0.16687   0.31151   0.00000  Uiso   1.00
C102   C     0.68778   0.12621   0.17347   0.00000  Uiso   1.00
C103   C     0.97889   0.20713   0.15987   0.00000  Uiso   1.00
C104   C     0.97851   0.12634   0.17374   0.00000  Uiso   1.00
H105   H     0.70379   0.09474   0.17903   0.00000  Uiso   1.00
H106   H     0.76608   0.06778   0.10990   0.00000  Uiso   1.00
H107   H     0.90060   0.26556   0.22342   0.00000  Uiso   1.00
H108   H     0.86113   0.27460   0.26485   0.00000  Uiso   1.00
H109   H     0.96288   0.23859   0.15430   0.00000  Uiso   1.00
H110   H     0.96220   0.09491   0.17945   0.00000  Uiso   1.00
H111   H     0.70446   0.23842   0.15389   0.00000  Uiso   1.00
H112   H     0.87319   0.04156   0.27182   0.00000  Uiso   1.00
H113   H     0.91323   0.04051   0.23136   0.00000  Uiso   1.00
H114   H     0.75344   0.29283   0.10197   0.00000  Uiso   1.00
H115   H     0.79348   0.29177   0.06151   0.00000  Uiso   1.00
H116   H     0.80555   0.05873   0.06848   0.00000  Uiso   1.00
N117   N     0.83333   0.28573   0.16667   0.00000  Uiso   1.00
N118   N     0.83333   0.04760   0.16667   0.00000  Uiso   1.00
N119   N     0.88226   0.05007   0.23569   0.00000  Uiso   1.00
N120   N     0.78440   0.28327   0.09765   0.00000  Uiso   1.00
N121   N     0.78559   0.04407   0.09408   0.00000  Uiso   1.00
N122   N     0.88108   0.28927   0.23925   0.00000  Uiso   1.00
O123   O     0.77226   0.20487   0.16666   0.00000  Uiso   1.00
O124   O     0.89441   0.12846   0.16667   0.00000  Uiso   1.00
O125   O     0.89441   0.20487   0.16667   0.00000  Uiso   1.00
O126   O     0.77226   0.12846   0.16666   0.00000  Uiso   1.00
O127   O     0.83334   0.20488   0.09511   0.00000  Uiso   1.00
O128   O     0.83333   0.12845   0.23822   0.00000  Uiso   1.00
O129   O     0.83333   0.20488   0.23822   0.00000  Uiso   1.00
O130   O     0.83334   0.12845   0.09511   0.00000  Uiso   1.00
Zn131  Zn    0.83333   0.21771   0.16667   0.00000  Uiso   1.00
Zn132  Zn    0.83333   0.11563   0.16667   0.00000  Uiso   1.00
C133   C     0.08671   0.49990   0.16651   0.00000  Uiso   1.00
C134   C     0.02149   0.54032   0.15959   0.00000  Uiso   1.00
C135   C     0.29082   0.50014   0.16690   0.00000  Uiso   1.00
C136   C     0.04251   0.49986   0.16643   0.00000  Uiso   1.00
C137   C     0.19043   0.35834   0.20050   0.00000  Uiso   1.00
C138   C     0.14291   0.64166   0.13284   0.00000  Uiso   1.00
C139   C     0.14311   0.35612   0.13232   0.00000  Uiso   1.00
C140   C     0.19023   0.64388   0.20102   0.00000  Uiso   1.00
C141   C     0.24662   0.50010   0.16683   0.00000  Uiso   1.00
C142   C     0.16659   0.49986   0.07298   0.00000  Uiso   1.00
C143   C     0.16674   0.50014   0.26036   0.00000  Uiso   1.00
C144   C     0.16664   0.49980   0.02182   0.00000  Uiso   1.00
C145   C     0.16669   0.50020   0.31151   0.00000  Uiso   1.00
C146   C     0.02111   0.45954   0.17347   0.00000  Uiso   1.00
C147   C     0.31222   0.54046   0.15987   0.00000  Uiso   1.00
C148   C     0.31184   0.45968   0.17374   0.00000  Uiso   1.00
H149   H     0.03712   0.42807   0.17903   0.00000  Uiso   1.00
H150   H     0.09941   0.40111   0.10990   0.00000  Uiso   1.00
H151   H     0.23393   0.59889   0.22342   0.00000  Uiso   1.00
H152   H     0.19446   0.60793   0.26485   0.00000  Uiso   1.00
H153   H     0.29621   0.57193   0.15430   0.00000  Uiso   1.00
H154   H     0.29554   0.42824   0.17945   0.00000  Uiso   1.00
H155   H     0.03780   0.57176   0.15389   0.00000  Uiso   1.00
H156   H     0.20652   0.37489   0.27182   0.00000  Uiso   1.00
H157   H     0.24656   0.37384   0.23136   0.00000  Uiso   1.00
H158   H     0.08677   0.62616   0.10197   0.00000  Uiso   1.00
H159   H     0.12681   0.62510   0.06151   0.00000  Uiso   1.00
H160   H     0.13888   0.39206   0.06848   0.00000  Uiso   1.00
N161   N     0.16667   0.61907   0.16667   0.00000  Uiso   1.00
N162   N     0.16667   0.38093   0.16667   0.00000  Uiso   1.00
N163   N     0.21560   0.38340   0.23569   0.00000  Uiso   1.00
N164   N     0.11774   0.61660   0.09765   0.00000  Uiso   1.00
N165   N     0.11892   0.37740   0.09408   0.00000  Uiso   1.00
N166   N     0.21442   0.62260   0.23925   0.00000  Uiso   1.00
O167   O     0.10559   0.53821   0.16666   0.00000  Uiso   1.00
O168   O     0.22774   0.46179   0.16667   0.00000  Uiso   1.00
O169   O     0.22774   0.53821   0.16667   0.00000  Uiso   1.00
O170   O     0.10559   0.46179   0.16666   0.00000  Uiso   1.00
O171   O     0.16667   0.53821   0.09511   0.00000  Uiso   1.00
O172   O     0.16666   0.46179   0.23822   0.00000  Uiso   1.00
O173   O     0.16666   0.53821   0.23822   0.00000  Uiso   1.00
O174   O     0.16667   0.46179   0.09511   0.00000  Uiso   1.00
Zn175  Zn    0.16667   0.55104   0.16667   0.00000  Uiso   1.00
Zn176  Zn    0.16667   0.44896   0.16667   0.00000  Uiso   1.00
C177   C     0.42005   0.49990   0.16651   0.00000  Uiso   1.00
C178   C     0.35483   0.54032   0.15959   0.00000  Uiso   1.00
C179   C     0.62416   0.50014   0.16690   0.00000  Uiso   1.00
C180   C     0.37584   0.49986   0.16643   0.00000  Uiso   1.00
C181   C     0.52376   0.35834   0.20050   0.00000  Uiso   1.00
C182   C     0.47624   0.64166   0.13284   0.00000  Uiso   1.00
C183   C     0.47644   0.35612   0.13232   0.00000  Uiso   1.00
C184   C     0.52356   0.64388   0.20102   0.00000  Uiso   1.00
C185   C     0.57995   0.50010   0.16683   0.00000  Uiso   1.00
C186   C     0.49993   0.49986   0.07298   0.00000  Uiso   1.00
C187   C     0.50007   0.50014   0.26036   0.00000  Uiso   1.00
C188   C     0.49997   0.49980   0.02182   0.00000  Uiso   1.00
C189   C     0.50003   0.50020   0.31151   0.00000  Uiso   1.00
C190   C     0.35444   0.45954   0.17347   0.00000  Uiso   1.00
C191   C     0.64556   0.54046   0.15987   0.00000  Uiso   1.00
C192   C     0.64517   0.45968   0.17374   0.00000  Uiso   1.00
H193   H     0.37046   0.42807   0.17903   0.00000  Uiso   1.00
H194   H     0.43274   0.40111   0.10990   0.00000  Uiso   1.00
H195   H     0.56726   0.59889   0.22342   0.00000  Uiso   1.00
H196   H     0.52780   0.60793   0.26485   0.00000  Uiso   1.00
H197   H     0.62954   0.57193   0.15430   0.00000  Uiso   1.00
H198   H     0.62887   0.42824   0.17945   0.00000  Uiso   1.00
H199   H     0.37113   0.57176   0.15389   0.00000  Uiso   1.00
H200   H     0.53986   0.37489   0.27182   0.00000  Uiso   1.00
H201   H     0.57989   0.37384   0.23136   0.00000  Uiso   1.00
H202   H     0.42010   0.62616   0.10197   0.00000  Uiso   1.00
H203   H     0.46015   0.62510   0.06151   0.00000  Uiso   1.00
H204   H     0.47221   0.39206   0.06848   0.00000  Uiso   1.00
N205   N     0.50000   0.61907   0.16667   0.00000  Uiso   1.00
N206   N     0.50000   0.38093   0.16667   0.00000  Uiso   1.00
N207   N     0.54893   0.38340   0.23569   0.00000  Uiso   1.00
N208   N     0.45107   0.61660   0.09765   0.00000  Uiso   1.00
N209   N     0.45226   0.37740   0.09408   0.00000  Uiso   1.00
N210   N     0.54775   0.62260   0.23925   0.00000  Uiso   1.00
O211   O     0.43892   0.53821   0.16666   0.00000  Uiso   1.00
O212   O     0.56108   0.46179   0.16667   0.00000  Uiso   1.00
O213   O     0.56108   0.53821   0.16667   0.00000  Uiso   1.00
O214   O     0.43892   0.46179   0.16666   0.00000  Uiso   1.00
O215   O     0.50000   0.53821   0.09511   0.00000  Uiso   1.00
O216   O     0.50000   0.46179   0.23822   0.00000  Uiso   1.00
O217   O     0.50000   0.53821   0.23822   0.00000  Uiso   1.00
O218   O     0.50000   0.46179   0.09511   0.00000  Uiso   1.00
Zn219  Zn    0.50000   0.55104   0.16667   0.00000  Uiso   1.00
Zn220  Zn    0.50000   0.44896   0.16667   0.00000  Uiso   1.00
C221   C     0.75338   0.49990   0.16651   0.00000  Uiso   1.00
C222   C     0.68816   0.54032   0.15959   0.00000  Uiso   1.00
C223   C     0.95749   0.50014   0.16690   0.00000  Uiso   1.00
C224   C     0.70918   0.49986   0.16643   0.00000  Uiso   1.00
C225   C     0.85709   0.35834   0.20050   0.00000  Uiso   1.00
C226   C     0.80957   0.64166   0.13284   0.00000  Uiso   1.00
C227   C     0.80978   0.35612   0.13232   0.00000  Uiso   1.00
C228   C     0.85689   0.64388   0.20102   0.00000  Uiso   1.00
C229   C     0.91329   0.50010   0.16683   0.00000  Uiso   1.00
C230   C     0.83326   0.49986   0.07298   0.00000  Uiso   1.00
C231   C     0.83341   0.50014   0.26036   0.00000  Uiso   1.00
C232   C     0.83331   0.49980   0.02182   0.00000  Uiso   1.00
C233   C     0.83336   0.50020   0.31151   0.00000  Uiso   1.00
C234   C     0.68778   0.45954   0.17347   0.00000  Uiso   1.00
C235   C     0.97889   0.54046   0.15987   0.00000  Uiso   1.00
C236   C     0.97851   0.45968   0.17374   0.00000  Uiso   1.00
H237   H     0.70379   0.42807   0.17903   0.00000  Uiso   1.00
H238   H     0.76608   0.40111   0.10990   0.00000  Uiso   1.00
H239   H     0.90060   0.59889   0.22342   0.00000  Uiso   1.00
H240   H     0.86113   0.60793   0.26485   0.00000  Uiso   1.00
H241   H     0.96288   0.57193   0.15430   0.00000  Uiso   1.00
H242   H     0.96220   0.42824   0.17945   0.00000  Uiso   1.00
H243   H     0.70446   0.57176   0.15389   0.00000  Uiso   1.00
H244   H     0.87319   0.37489   0.27182   0.00000  Uiso   1.00
H245   H     0.91323   0.37384   0.23136   0.00000  Uiso   1.00
H246   H     0.75344   0.62616   0.10197   0.00000  Uiso   1.00
H247   H     0.79348   0.62510   0.06151   0.00000  Uiso   1.00
H248   H     0.80555   0.39206   0.06848   0.00000  Uiso   1.00
N249   N     0.83333   0.61907   0.16667   0.00000  Uiso   1.00
N250   N     0.83333   0.38093   0.16667   0.00000  Uiso   1.00
N251   N     0.88226   0.38340   0.23569   0.00000  Uiso   1.00
N252   N     0.78440   0.61660   0.09765   0.00000  Uiso   1.00
N253   N     0.78559   0.37740   0.09408   0.00000  Uiso   1.00
N254   N     0.88108   0.62260   0.23925   0.00000  Uiso   1.00
O255   O     0.77226   0.53821   0.16666   0.00000  Uiso   1.00
O256   O     0.89441   0.46179   0.16667   0.00000  Uiso   1.00
O257   O     0.89441   0.53821   0.16667   0.00000  Uiso   1.00
O258   O     0.77226   0.46179   0.16666   0.00000  Uiso   1.00
O259   O     0.83334   0.53821   0.09511   0.00000  Uiso   1.00
O260   O     0.83333   0.46179   0.23822   0.00000  Uiso   1.00
O261   O     0.83333   0.53821   0.23822   0.00000  Uiso   1.00
O262   O     0.83334   0.46179   0.09511   0.00000  Uiso   1.00
Zn263  Zn    0.83333   0.55104   0.16667   0.00000  Uiso   1.00
Zn264  Zn    0.83333   0.44896   0.16667   0.00000  Uiso   1.00
C265   C     0.08671   0.83323   0.16651   0.00000  Uiso   1.00
C266   C     0.02149   0.87366   0.15959   0.00000  Uiso   1.00
C267   C     0.29082   0.83347   0.16690   0.00000  Uiso   1.00
C268   C     0.04251   0.83320   0.16643   0.00000  Uiso   1.00
C269   C     0.19043   0.69167   0.20050   0.00000  Uiso   1.00
C270   C     0.14291   0.97500   0.13284   0.00000  Uiso   1.00
C271   C     0.14311   0.68946   0.13232   0.00000  Uiso   1.00
C272   C     0.19023   0.97721   0.20102   0.00000  Uiso   1.00
C273   C     0.24662   0.83343   0.16683   0.00000  Uiso   1.00
C274   C     0.16659   0.83319   0.07298   0.00000  Uiso   1.00
C275   C     0.16674   0.83348   0.26036   0.00000  Uiso   1.00
C276   C     0.16664   0.83313   0.02182   0.00000  Uiso   1.00
C277   C     0.16669   0.83354   0.31151   0.00000  Uiso   1.00
C278   C     0.02111   0.79287   0.17347   0.00000  Uiso   1.00
C279   C     0.31222   0.87379   0.15987   0.00000  Uiso   1.00
C280   C     0.31184   0.79301   0.17374   0.00000  Uiso   1.00
H281   H     0.03712   0.76141   0.17903   0.00000  Uiso   1.00
H282   H     0.09941   0.73444   0.10990   0.00000  Uiso   1.00
H283   H     0.23393   0.93223   0.22342   0.00000  Uiso   1.00
H284   H     0.19446   0.94126   0.26485   0.00000  Uiso   1.00
H285   H     0.29621   0.90526   0.15430   0.00000  Uiso   1.00
H286   H     0.29554   0.76158   0.17945   0.00000  Uiso   1.00
H287   H     0.03780   0.90509   0.15389   0.00000  Uiso   1.00
H288   H     0.20652   0.70823   0.27182   0.00000  Uiso   1.00
H289   H     0.24656   0.70717   0.23136   0.00000  Uiso   1.00
H290   H     0.08677   0.95949   0.10197   0.00000  Uiso   1.00
H291   H     0.12681   0.95844   0.06151   0.00000  Uiso   1.00
H292   H     0.13888   0.72540   0.06848   0.00000  Uiso   1.00
N293   N     0.16667   0.95240   0.16667   0.00000  Uiso   1.00
N294   N     0.16667   0.71427   0.16667   0.00000  Uiso   1.00
N295   N     0.21560   0.71673   0.23569   0.00000  Uiso   1.00
N296   N     0.11774   0.94993   0.09765   0.00000  Uiso   1.00
N297   N     0.11892   0.71073   0.09408   0.00000  Uiso   1.00
N298   N     0.21442   0.95593   0.23925   0.00000  Uiso   1.00
O299   O     0.10559   0.87154   0.16666   0.00000  Uiso   1.00
O300   O     0.22774   0.79513   0.16667   0.00000  Uiso   1.00
O301   O     0.22774   0.87154   0.16667   0.00000  Uiso   1.00
O302   O     0.10559   0.79513   0.16666   0.00000  Uiso   1.00
O303   O     0.16667   0.87155   0.09511   0.00000  Uiso   1.00
O304   O     0.16666   0.79512   0.23822   0.00000  Uiso   1.00
O305   O     0.16666   0.87155   0.23822   0.00000  Uiso   1.00
O306   O     0.16667   0.79512   0.09511   0.00000  Uiso   1.00
Zn307  Zn    0.16667   0.88437   0.16667   0.00000  Uiso   1.00
Zn308  Zn    0.16667   0.78229   0.16667   0.00000  Uiso   1.00
C309   C     0.42005   0.83323   0.16651   0.00000  Uiso   1.00
C310   C     0.35483   0.87366   0.15959   0.00000  Uiso   1.00
C311   C     0.62416   0.83347   0.16690   0.00000  Uiso   1.00
C312   C     0.37584   0.83320   0.16643   0.00000  Uiso   1.00
C313   C     0.52376   0.69167   0.20050   0.00000  Uiso   1.00
C314   C     0.47624   0.97500   0.13284   0.00000  Uiso   1.00
C315   C     0.47644   0.68946   0.13232   0.00000  Uiso   1.00
C316   C     0.52356   0.97721   0.20102   0.00000  Uiso   1.00
C317   C     0.57995   0.83343   0.16683   0.00000  Uiso   1.00
C318   C     0.49993   0.83319   0.07298   0.00000  Uiso   1.00
C319   C     0.50007   0.83348   0.26036   0.00000  Uiso   1.00
C320   C     0.49997   0.83313   0.02182   0.00000  Uiso   1.00
C321   C     0.50003   0.83354   0.31151   0.00000  Uiso   1.00
C322   C     0.35444   0.79287   0.17347   0.00000  Uiso   1.00
C323   C     0.64556   0.87379   0.15987   0.00000  Uiso   1.00
C324   C     0.64517   0.79301   0.17374   0.00000  Uiso   1.00
H325   H     0.37046   0.76141   0.17903   0.00000  Uiso   1.00
H326   H     0.43274   0.73444   0.10990   0.00000  Uiso   1.00
H327   H     0.56726   0.93223   0.22342   0.00000  Uiso   1.00
H328   H     0.52780   0.94126   0.26485   0.00000  Uiso   1.00
H329   H     0.62954   0.90526   0.15430   0.00000  Uiso   1.00
H330   H     0.62887   0.76158   0.17945   0.00000  Uiso   1.00
H331   H     0.37113   0.90509   0.15389   0.00000  Uiso   1.00
H332   H     0.53986   0.70823   0.27182   0.00000  Uiso   1.00
H333   H     0.57989   0.70717   0.23136   0.00000  Uiso   1.00
H334   H     0.42010   0.95949   0.10197   0.00000  Uiso   1.00
H335   H     0.46015   0.95844   0.06151   0.00000  Uiso   1.00
H336   H     0.47221   0.72540   0.06848   0.00000  Uiso   1.00
N337   N     0.50000   0.95240   0.16667   0.00000  Uiso   1.00
N338   N     0.50000   0.71427   0.16667   0.00000  Uiso   1.00
N339   N     0.54893   0.71673   0.23569   0.00000  Uiso   1.00
N340   N     0.45107   0.94993   0.09765   0.00000  Uiso   1.00
N341   N     0.45226   0.71073   0.09408   0.00000  Uiso   1.00
N342   N     0.54775   0.95593   0.23925   0.00000  Uiso   1.00
O343   O     0.43892   0.87154   0.16666   0.00000  Uiso   1.00
O344   O     0.56108   0.79513   0.16667   0.00000  Uiso   1.00
O345   O     0.56108   0.87154   0.16667   0.00000  Uiso   1.00
O346   O     0.43892   0.79513   0.16666   0.00000  Uiso   1.00
O347   O     0.50000   0.87155   0.09511   0.00000  Uiso   1.00
O348   O     0.50000   0.79512   0.23822   0.00000  Uiso   1.00
O349   O     0.50000   0.87155   0.23822   0.00000  Uiso   1.00
O350   O     0.50000   0.79512   0.09511   0.00000  Uiso   1.00
Zn351  Zn    0.50000   0.88437   0.16667   0.00000  Uiso   1.00
Zn352  Zn    0.50000   0.78229   0.16667   0.00000  Uiso   1.00
C353   C     0.75338   0.83323   0.16651   0.00000  Uiso   1.00
C354   C     0.68816   0.87366   0.15959   0.00000  Uiso   1.00
C355   C     0.95749   0.83347   0.16690   0.00000  Uiso   1.00
C356   C     0.70918   0.83320   0.16643   0.00000  Uiso   1.00
C357   C     0.85709   0.69167   0.20050   0.00000  Uiso   1.00
C358   C     0.80957   0.97500   0.13284   0.00000  Uiso   1.00
C359   C     0.80978   0.68946   0.13232   0.00000  Uiso   1.00
C360   C     0.85689   0.97721   0.20102   0.00000  Uiso   1.00
C361   C     0.91329   0.83343   0.16683   0.00000  Uiso   1.00
C362   C     0.83326   0.83319   0.07298   0.00000  Uiso   1.00
C363   C     0.83341   0.83348   0.26036   0.00000  Uiso   1.00
C364   C     0.83331   0.83313   0.02182   0.00000  Uiso   1.00
C365   C     0.83336   0.83354   0.31151   0.00000  Uiso   1.00
C366   C     0.68778   0.79287   0.17347   0.00000  Uiso   1.00
C367   C     0.97889   0.87379   0.15987   0.00000  Uiso   1.00
C368   C     0.97851   0.79301   0.17374   0.00000  Uiso   1.00
H369   H     0.70379   0.76141   0.17903   0.00000  Uiso   1.00
H370   H     0.76608   0.73444   0.10990   0.00000  Uiso   1.00
H371   H     0.90060   0.93223   0.22342   0.00000  Uiso   1.00
H372   H     0.86113   0.94126   0.26485   0.00000  Uiso   1.00
H373   H     0.96288   0.90526   0.15430   0.00000  Uiso   1.00
H374   H     0.96220   0.76158   0.17945   0.00000  Uiso   1.00
H375   H     0.70446   0.90509   0.15389   0.00000  Uiso   1.00
H376   H     0.87319   0.70823   0.27182   0.00000  Uiso   1.00
H377   H     0.91323   0.70717   0.23136   0.00000  Uiso   1.00
H378   H     0.75344   0.95949   0.10197   0.00000  Uiso   1.00
H379   H     0.79348   0.95844   0.06151   0.00000  Uiso   1.00
H380   H     0.80555   0.72540   0.06848   0.00000  Uiso   1.00
N381   N     0.83333   0.95240   0.16667   0.00000  Uiso   1.00
N382   N     0.83333   0.71427   0.16667   0.00000  Uiso   1.00
N383   N     0.88226   0.71673   0.23569   0.00000  Uiso   1.00
N384   N     0.78440   0.94993   0.09765   0.00000  Uiso   1.00
N385   N     0.78559   0.71073   0.09408   0.00000  Uiso   1.00
N386   N     0.88108   0.95593   0.23925   0.00000  Uiso   1.00
O387   O     0.77226   0.87154   0.16666   0.00000  Uiso   1.00
O388   O     0.89441   0.79513   0.16667   0.00000  Uiso   1.00
O389   O     0.89441   0.87154   0.16667   0.00000  Uiso   1.00
O390   O     0.77226   0.79513   0.16666   0.00000  Uiso   1.00
O391   O     0.83334   0.87155   0.09511   0.00000  Uiso   1.00
O392   O     0.83333   0.79512   0.23822   0.00000  Uiso   1.00
O393   O     0.83333   0.87155   0.23822   0.00000  Uiso   1.00
O394   O     0.83334   0.79512   0.09511   0.00000  Uiso   1.00
Zn395  Zn    0.83333   0.88437   0.16667   0.00000  Uiso   1.00
Zn396  Zn    0.83333   0.78229   0.16667   0.00000  Uiso   1.00
C397   C     0.08671   0.16657   0.49984   0.00000  Uiso   1.00
C398   C     0.02149   0.20699   0.49292   0.00000  Uiso   1.00
C399   C     0.29082   0.16680   0.50024   0.00000  Uiso   1.00
C400   C     0.04251   0.16653   0.49976   0.00000  Uiso   1.00
C401   C     0.19043   0.02500   0.53383   0.00000  Uiso   1.00
C402   C     0.14291   0.30833   0.46617   0.00000  Uiso   1.00
C403   C     0.14311   0.02279   0.46565   0.00000  Uiso   1.00
C404   C     0.19023   0.31054   0.53435   0.00000  Uiso   1.00
C405   C     0.24662   0.16677   0.50016   0.00000  Uiso   1.00
C406   C     0.16659   0.16652   0.40631   0.00000  Uiso   1.00
C407   C     0.16674   0.16681   0.59369   0.00000  Uiso   1.00
C408   C     0.16664   0.16646   0.35515   0.00000  Uiso   1.00
C409   C     0.16669   0.16687   0.64485   0.00000  Uiso   1.00
C410   C     0.02111   0.12621   0.50680   0.00000  Uiso   1.00
C411   C     0.31222   0.20713   0.49320   0.00000  Uiso   1.00
C412   C     0.31184   0.12634   0.50708   0.00000  Uiso   1.00
H413   H     0.03712   0.09474   0.51237   0.00000  Uiso   1.00
H414   H     0.09941   0.06778   0.44324   0.00000  Uiso   1.00
H415   H     0.23393   0.26556   0.55675   0.00000  Uiso   1.00
H416   H     0.19446   0.27460   0.59818   0.00000  Uiso   1.00
H417   H     0.29621   0.23859   0.48763   0.00000  Uiso   1.00
H418   H     0.29554   0.09491   0.51278   0.00000  Uiso   1.00
H419   H     0.03780   0.23842   0.48722   0.00000  Uiso   1.00
H420   H     0.20652   0.04156   0.60516   0.00000  Uiso   1.00
H421   H     0.24656   0.04051   0.56469   0.00000  Uiso   1.00
H422   H     0.08677   0.29283   0.43531   0.00000  Uiso   1.00
H423   H     0.12681   0.29177   0.39484   0.00000  Uiso   1.00
H424   H     0.13888   0.05873   0.40182   0.00000  Uiso   1.00
N425   N     0.16667   0.28573   0.50000   0.00000  Uiso   1.00
N426   N     0.16667   0.04760   0.50000   0.00000  Uiso   1.00
N427   N     0.21560   0.05007   0.56902   0.00000  Uiso   1.00
N428   N     0.11774   0.28327   0.43098   0.00000  Uiso   1.00
N429   N     0.11892   0.04407   0.42741   0.00000  Uiso   1.00
N430   N     0.21442   0.28927   0.57258   0.00000  Uiso   1.00
O431   O     0.10559   0.20487   0.50000   0.00000  Uiso   1.00
O432   O     0.22774   0.12846   0.50000   0.00000  Uiso   1.00
O433   O     0.22774   0.20487   0.50000   0.00000  Uiso   1.00
O434   O     0.10559   0.12846   0.50000   0.00000  Uiso   1.00
O435   O     0.16667   0.20488   0.42845   0.00000  Uiso   1.00
O436   O     0.16666   0.12845   0.57155   0.00000  Uiso   1.00
O437   O     0.16666   0.20488   0.57155   0.00000  Uiso   1.00
O438   O     0.16667   0.12845   0.42845   0.00000  Uiso   1.00
Zn439  Zn    0.16667   0.21771   0.50000   0.00000  Uiso   1.00
Zn440  Zn    0.16667   0.11563   0.50000   0.00000  Uiso   1.00
C441   C     0.42005   0.16657   0.49984   0.00000  Uiso   1.00
C442   C     0.35483   0.20699   0.49292   0.00000  Uiso   1.00
C443   C     0.62416   0.16680   0.50024   0.00000  Uiso   1.00
C444   C     0.37584   0.16653   0.49976   0.00000  Uiso   1.00
C445   C     0.52376   0.02500   0.53383   0.00000  Uiso   1.00
C446   C     0.47624   0.30833   0.46617   0.00000  Uiso   1.00
C447   C     0.47644   0.02279   0.46565   0.00000  Uiso   1.00
C448   C     0.52356   0.31054   0.53435   0.00000  Uiso   1.00
C449   C     0.57995   0.16677   0.50016   0.00000  Uiso   1.00
C450   C     0.49993   0.16652   0.40631   0.00000  Uiso   1.00
C451   C     0.50007   0.16681   0.59369   0.00000  Uiso   1.00
C452   C     0.49997   0.16646   0.35515   0.00000  Uiso   1.00
C453   C     0.50003   0.16687   0.64485   0.00000  Uiso   1.00
C454   C     0.35444   0.12621   0.50680   0.00000  Uiso   1.00
C455   C     0.64556   0.20713   0.49320   0.00000  Uiso   1.00
C456   C     0.64517   0.12634   0.50708   0.00000  Uiso   1.00
H457   H     0.37046   0.09474   0.51237   0.00000  Uiso   1.00
H458   H     0.43274   0.06778   0.44324   0.00000  Uiso   1.00
H459   H     0.56726   0.26556   0.55675   0.00000  Uiso   1.00
H460   H     0.52780   0.27460   0.59818   0.00000  Uiso   1.00
H461   H     0.62954   0.23859   0.48763   0.00000  Uiso   1.00
H462   H     0.62887   0.09491   0.51278   0.00000  Uiso   1.00
H463   H     0.37113   0.23842   0.48722   0.00000  Uiso   1.00
H464   H     0.53986   0.04156   0.60516   0.00000  Uiso   1.00
H465   H     0.57989   0.04051   0.56469   0.00000  Uiso   1.00
H466   H     0.42010   0.29283   0.43531   0.00000  Uiso   1.00
H467   H     0.46015   0.29177   0.39484   0.00000  Uiso   1.00
H468   H     0.47221   0.05873   0.40182   0.00000  Uiso   1.00
N469   N     0.50000   0.28573   0.50000   0.00000  Uiso   1.00
N470   N     0.50000   0.04760   0.50000   0.00000  Uiso   1.00
N471   N     0.54893   0.05007   0.56902   0.00000  Uiso   1.00
N472   N     0.45107   0.28327   0.43098   0.00000  Uiso   1.00
N473   N     0.45226   0.04407   0.42741   0.00000  Uiso   1.00
N474   N     0.54775   0.28927   0.57258   0.00000  Uiso   1.00
O475   O     0.43892   0.20487   0.50000   0.00000  Uiso   1.00
O476   O     0.56108   0.12846   0.50000   0.00000  Uiso   1.00
O477   O     0.56108   0.20487   0.50000   0.00000  Uiso   1.00
O478   O     0.43892   0.12846   0.50000   0.00000  Uiso   1.00
O479   O     0.50000   0.20488   0.42845   0.00000  Uiso   1.00
O480   O     0.50000   0.12845   0.57155   0.00000  Uiso   1.00
O481   O     0.50000   0.20488   0.57155   0.00000  Uiso   1.00
O482   O     0.50000   0.12845   0.42845   0.00000  Uiso   1.00
Zn483  Zn    0.50000   0.21771   0.50000   0.00000  Uiso   1.00
Zn484  Zn    0.50000   0.11563   0.50000   0.00000  Uiso   1.00
C485   C     0.75338   0.16657   0.49984   0.00000  Uiso   1.00
C486   C     0.68816   0.20699   0.49292   0.00000  Uiso   1.00
C487   C     0.95749   0.16680   0.50024   0.00000  Uiso   1.00
C488   C     0.70918   0.16653   0.49976   0.00000  Uiso   1.00
C489   C     0.85709   0.02500   0.53383   0.00000  Uiso   1.00
C490   C     0.80957   0.30833   0.46617   0.00000  Uiso   1.00
C491   C     0.80978   0.02279   0.46565   0.00000  Uiso   1.00
C492   C     0.85689   0.31054   0.53435   0.00000  Uiso   1.00
C493   C     0.91329   0.16677   0.50016   0.00000  Uiso   1.00
C494   C     0.83326   0.16652   0.40631   0.00000  Uiso   1.00
C495   C     0.83341   0.16681   0.59369   0.00000  Uiso   1.00
C496   C     0.83331   0.16646   0.35515   0.00000  Uiso   1.00
C497   C     0.83336   0.16687   0.64485   0.00000  Uiso   1.00
C498   C     0.68778   0.12621   0.50680   0.00000  Uiso   1.00
C499   C     0.97889   0.20713   0.49320   0.00000  Uiso   1.00
C500   C     0.97851   0.12634   0.50708   0.00000  Uiso   1.00
H501   H     0.70379   0.09474   0.51237   0.00000  Uiso   1.00
H502   H     0.76608   0.06778   0.44324   0.00000  Uiso   1.00
H503   H     0.90060   0.26556   0.55675   0.00000  Uiso   1.00
H504   H     0.86113   0.27460   0.59818   0.00000  Uiso   1.00
H505   H     0.96288   0.23859   0.48763   0.00000  Uiso   1.00
H506   H     0.96220   0.09491   0.51278   0.00000  Uiso   1.00
H507   H     0.70446   0.23842   0.48722   0.00000  Uiso   1.00
H508   H     0.87319   0.04156   0.60516   0.00000  Uiso   1.00
H509   H     0.91323   0.04051   0.56469   0.00000  Uiso   1.00
H510   H     0.75344   0.29283   0.43531   0.00000  Uiso   1.00
H511   H     0.79348   0.29177   0.39484   0.00000  Uiso   1.00
H512   H     0.80555   0.05873   0.40182   0.00000  Uiso   1.00
N513   N     0.83333   0.28573   0.50000   0.00000  Uiso   1.00
N514   N     0.83333   0.04760   0.50000   0.00000  Uiso   1.00
N515   N     0.88226   0.05007   0.56902   0.00000  Uiso   1.00
N516   N     0.78440   0.28327   0.43098   0.00000  Uiso   1.00
N517   N     0.78559   0.04407   0.42741   0.00000  Uiso   1.00
N518   N     0.88108   0.28927   0.57258   0.00000  Uiso   1.00
O519   O     0.77226   0.20487   0.50000   0.00000  Uiso   1.00
O520   O     0.89441   0.12846   0.50000   0.00000  Uiso   1.00
O521   O     0.89441   0.20487   0.50000   0.00000  Uiso   1.00
O522   O     0.77226   0.12846   0.50000   0.00000  Uiso   1.00
O523   O     0.83334   0.20488   0.42845   0.00000  Uiso   1.00
O524   O     0.83333   0.12845   0.57155   0.00000  Uiso   1.00
O525   O     0.83333   0.20488   0.57155   0.00000  Uiso   1.00
O526   O     0.83334   0.12845   0.42845   0.00000  Uiso   1.00
Zn527  Zn    0.83333   0.21771   0.50000   0.00000  Uiso   1.00
Zn528  Zn    0.83333   0.11563   0.50000   0.00000  Uiso   1.00
C529   C     0.08671   0.49990   0.49984   0.00000  Uiso   1.00
C530   C     0.02149   0.54032   0.49292   0.00000  Uiso   1.00
C531   C     0.29082   0.50014   0.50024   0.00000  Uiso   1.00
C532   C     0.04251   0.49986   0.49976   0.00000  Uiso   1.00
C533   C     0.19043   0.35834   0.53383   0.00000  Uiso   1.00
C534   C     0.14291   0.64166   0.46617   0.00000  Uiso   1.00
C535   C     0.14311   0.35612   0.46565   0.00000  Uiso   1.00
C536   C     0.19023   0.64388   0.53435   0.00000  Uiso   1.00
C537   C     0.24662   0.50010   0.50016   0.00000  Uiso   1.00
C538   C     0.16659   0.49986   0.40631   0.00000  Uiso   1.00
C539   C     0.16674   0.50014   0.59369   0.00000  Uiso   1.00
C540   C     0.16664   0.49980   0.35515   0.00000  Uiso   1.00
C541   C     0.16669   0.50020   0.64485   0.00000  Uiso   1.00
C542   C     0.02111   0.45954   0.50680   0.00000  Uiso   1.00
C543   C     0.31222   0.54046   0.49320   0.00000  Uiso   1.00
C544   C     0.31184   0.45968   0.50708   0.00000  Uiso   1.00
H545   H     0.03712   0.42807   0.51237   0.00000  Uiso   1.00
H546   H     0.09941   0.40111   0.44324   0.00000  Uiso   1.00
H547   H     0.23393   0.59889   0.55675   0.00000  Uiso   1.00
H548   H     0.19446   0.60793   0.59818   0.00000  Uiso   1.00
H549   H     0.29621   0.57193   0.48763   0.00000  Uiso   1.00
H550   H     0.29554   0.42824   0.51278   0.00000  Uiso   1.00
H551   H     0.03780   0.57176   0.48722   0.00000  Uiso   1.00
H552   H     0.20652   0.37489   0.60516   0.00000  Uiso   1.00
H553   H     0.24656   0.37384   0.56469   0.00000  Uiso   1.00
H554   H     0.08677   0.62616   0.43531   0.00000  Uiso   1.00
H555   H     0.12681   0.62510   0.39484   0.00000  Uiso   1.00
H556   H     0.13888   0.39206   0.40182   0.00000  Uiso   1.00
N557   N     0.16667   0.61907   0.50000   0.00000  Uiso   1.00
N558   N     0.16667   0.38093   0.50000   0.00000  Uiso   1.00
N559   N     0.21560   0.38340   0.56902   0.00000  Uiso   1.00
N560   N     0.11774   0.61660   0.43098   0.00000  Uiso   1.00
N561   N     0.11892   0.37740   0.42741   0.00000  Uiso   1.00
N562   N     0.21442   0.62260   0.57258   0.00000  Uiso   1.00
O563   O     0.10559   0.53821   0.50000   0.00000  Uiso   1.00
O564   O     0.22774   0.46179   0.50000   0.00000  Uiso   1.00
O565   O     0.22774   0.53821   0.50000   0.00000  Uiso   1.00
O566   O     0.10559   0.46179   0.50000   0.00000  Uiso   1.00
O567   O     0.16667   0.53821   0.42845   0.00000  Uiso   1.00
O568   O     0.16666   0.46179   0.57155   0.00000  Uiso   1.00
O569   O     0.16666   0.53821   0.57155   0.00000  Uiso   1.00
O570   O     0.16667   0.46179   0.42845   0.00000  Uiso   1.00
Zn571  Zn    0.16667   0.55104   0.50000   0.00000  Uiso   1.00
Zn572  Zn    0.16667   0.44896   0.50000   0.00000  Uiso   1.00
C573   C     0.42005   0.49990   0.49984   0.00000  Uiso   1.00
C574   C     0.35483   0.54032   0.49292   0.00000  Uiso   1.00
C575   C     0.62416   0.50014   0.50024   0.00000  Uiso   1.00
C576   C     0.37584   0.49986   0.49976   0.00000  Uiso   1.00
C577   C     0.52376   0.35834   0.53383   0.00000  Uiso   1.00
C578   C     0.47624   0.64166   0.46617   0.00000  Uiso   1.00
C579   C     0.47644   0.35612   0.46565   0.00000  Uiso   1.00
C580   C     0.52356   0.64388   0.53435   0.00000  Uiso   1.00
C581   C     0.57995   0.50010   0.50016   0.00000  Uiso   1.00
C582   C     0.49993   0.49986   0.40631   0.00000  Uiso   1.00
C583   C     0.50007   0.50014   0.59369   0.00000  Uiso   1.00
C584   C     0.49997   0.49980   0.35515   0.00000  Uiso   1.00
C585   C     0.50003   0.50020   0.64485   0.00000  Uiso   1.00
C586   C     0.35444   0.45954   0.50680   0.00000  Uiso   1.00
C587   C     0.64556   0.54046   0.49320   0.00000  Uiso   1.00
C588   C     0.64517   0.45968   0.50708   0.00000  Uiso   1.00
H589   H     0.37046   0.42807   0.51237   0.00000  Uiso   1.00
H590   H     0.43274   0.40111   0.44324   0.00000  Uiso   1.00
H591   H     0.56726   0.59889   0.55675   0.00000  Uiso   1.00
H592   H     0.52780   0.60793   0.59818   0.00000  Uiso   1.00
H593   H     0.62954   0.57193   0.48763   0.00000  Uiso   1.00
H594   H     0.62887   0.42824   0.51278   0.00000  Uiso   1.00
H595   H     0.37113   0.57176   0.48722   0.00000  Uiso   1.00
H596   H     0.53986   0.37489   0.60516   0.00000  Uiso   1.00
H597   H     0.57989   0.37384   0.56469   0.00000  Uiso   1.00
H598   H     0.42010   0.62616   0.43531   0.00000  Uiso   1.00
H599   H     0.46015   0.62510   0.39484   0.00000  Uiso   1.00
H600   H     0.47221   0.39206   0.40182   0.00000  Uiso   1.00
N601   N     0.50000   0.61907   0.50000   0.00000  Uiso   1.00
N602   N     0.50000   0.38093   0.50000   0.00000  Uiso   1.00
N603   N     0.54893   0.38340   0.56902   0.00000  Uiso   1.00
N604   N     0.45107   0.61660   0.43098   0.00000  Uiso   1.00
N605   N     0.45226   0.37740   0.42741   0.00000  Uiso   1.00
N606   N     0.54775   0.62260   0.57258   0.00000  Uiso   1.00
O607   O     0.43892   0.53821   0.50000   0.00000  Uiso   1.00
O608   O     0.56108   0.46179   0.50000   0.00000  Uiso   1.00
O609   O     0.56108   0.53821   0.50000   0.00000  Uiso   1.00
O610   O     0.43892   0.46179   0.50000   0.00000  Uiso   1.00
O611   O     0.50000   0.53821   0.42845   0.00000  Uiso   1.00
O612   O     0.50000   0.46179   0.57155   0.00000  Uiso   1.00
O613   O     0.50000   0.53821   0.57155   0.00000  Uiso   1.00
O614   O     0.50000   0.46179   0.42845   0.00000  Uiso   1.00
Zn615  Zn    0.50000   0.55104   0.50000   0.00000  Uiso   1.00
Zn616  Zn    0.50000   0.44896   0.50000   0.00000  Uiso   1.00
C617   C     0.75338   0.49990   0.49984   0.00000  Uiso   1.00
C618   C     0.68816   0.54032   0.49292   0.00000  Uiso   1.00
C619   C     0.95749   0.50014   0.50024   0.00000  Uiso   1.00
C620   C     0.70918   0.49986   0.49976   0.00000  Uiso   1.00
C621   C     0.85709   0.35834   0.53383   0.00000  Uiso   1.00
C622   C     0.80957   0.64166   0.46617   0.00000  Uiso   1.00
C623   C     0.80978   0.35612   0.46565   0.00000  Uiso   1.00
C624   C     0.85689   0.64388   0.53435   0.00000  Uiso   1.00
C625   C     0.91329   0.50010   0.50016   0.00000  Uiso   1.00
C626   C     0.83326   0.49986   0.40631   0.00000  Uiso   1.00
C627   C     0.83341   0.50014   0.59369   0.00000  Uiso   1.00
C628   C     0.83331   0.49980   0.35515   0.00000  Uiso   1.00
C629   C     0.83336   0.50020   0.64485   0.00000  Uiso   1.00
C630   C     0.68778   0.45954   0.50680   0.00000  Uiso   1.00
C631   C     0.97889   0.54046   0.49320   0.00000  Uiso   1.00
C632   C     0.97851   0.45968   0.50708   0.00000  Uiso   1.00
H633   H     0.70379   0.42807   0.51237   0.00000  Uiso   1.00
H634   H     0.76608   0.40111   0.44324   0.00000  Uiso   1.00
H635   H     0.90060   0.59889   0.55675   0.00000  Uiso   1.00
H636   H     0.86113   0.60793   0.59818   0.00000  Uiso   1.00
H637   H     0.96288   0.57193   0.48763   0.00000  Uiso   1.00
H638   H     0.96220   0.42824   0.51278   0.00000  Uiso   1.00
H639   H     0.70446   0.57176   0.48722   0.00000  Uiso   1.00
H640   H     0.87319   0.37489   0.60516   0.00000  Uiso   1.00
H641   H     0.91323   0.37384   0.56469   0.00000  Uiso   1.00
H642   H     0.75344   0.62616   0.43531   0.00000  Uiso   1.00
H643   H     0.79348   0.62510   0.39484   0.00000  Uiso   1.00
H644   H     0.80555   0.39206   0.40182   0.00000  Uiso   1.00
N645   N     0.83333   0.61907   0.50000   0.00000  Uiso   1.00
N646   N     0.83333   0.38093   0.50000   0.00000  Uiso   1.00
N647   N     0.88226   0.38340   0.56902   0.00000  Uiso   1.00
N648   N     0.78440   0.61660   0.43098   0.00000  Uiso   1.00
N649   N     0.78559   0.37740   0.42741   0.00000  Uiso   1.00
N650   N     0.88108   0.62260   0.57258   0.00000  Uiso   1.00
O651   O     0.77226   0.53821   0.50000   0.00000  Uiso   1.00
O652   O     0.89441   0.46179   0.50000   0.00000  Uiso   1.00
O653   O     0.89441   0.53821   0.50000   0.00000  Uiso   1.00
O654   O     0.77226   0.46179   0.50000   0.00000  Uiso   1.00
O655   O     0.83334   0.53821   0.42845   0.00000  Uiso   1.00
O656   O     0.83333   0.46179   0.57155   0.00000  Uiso   1.00
O657   O     0.83333   0.53821   0.57155   0.00000  Uiso   1.00
O658   O     0.83334   0.46179   0.42845   0.00000  Uiso   1.00
Zn659  Zn    0.83333   0.55104   0.50000   0.00000  Uiso   1.00
Zn660  Zn    0.83333   0.44896   0.50000   0.00000  Uiso   1.00
C661   C     0.08671   0.83323   0.49984   0.00000  Uiso   1.00
C662   C     0.02149   0.87366   0.49292   0.00000  Uiso   1.00
C663   C     0.29082   0.83347   0.50024   0.00000  Uiso   1.00
C664   C     0.04251   0.83320   0.49976   0.00000  Uiso   1.00
C665   C     0.19043   0.69167   0.53383   0.00000  Uiso   1.00
C666   C     0.14291   0.97500   0.46617   0.00000  Uiso   1.00
C667   C     0.14311   0.68946   0.46565   0.00000  Uiso   1.00
C668   C     0.19023   0.97721   0.53435   0.00000  Uiso   1.00
C669   C     0.24662   0.83343   0.50016   0.00000  Uiso   1.00
C670   C     0.16659   0.83319   0.40631   0.00000  Uiso   1.00
C671   C     0.16674   0.83348   0.59369   0.00000  Uiso   1.00
C672   C     0.16664   0.83313   0.35515   0.00000  Uiso   1.00
C673   C     0.16669   0.83354   0.64485   0.00000  Uiso   1.00
C674   C     0.02111   0.79287   0.50680   0.00000  Uiso   1.00
C675   C     0.31222   0.87379   0.49320   0.00000  Uiso   1.00
C676   C     0.31184   0.79301   0.50708   0.00000  Uiso   1.00
H677   H     0.03712   0.76141   0.51237   0.00000  Uiso   1.00
H678   H     0.09941   0.73444   0.44324   0.00000  Uiso   1.00
H679   H     0.23393   0.93223   0.55675   0.00000  Uiso   1.00
H680   H     0.19446   0.94126   0.59818   0.00000  Uiso   1.00
H681   H     0.29621   0.90526   0.48763   0.00000  Uiso   1.00
H682   H     0.29554   0.76158   0.51278   0.00000  Uiso   1.00
H683   H     0.03780   0.90509   0.48722   0.00000  Uiso   1.00
H684   H     0.20652   0.70823   0.60516   0.00000  Uiso   1.00
H685   H     0.24656   0.70717   0.56469   0.00000  Uiso   1.00
H686   H     0.08677   0.95949   0.43531   0.00000  Uiso   1.00
H687   H     0.12681   0.95844   0.39484   0.00000  Uiso   1.00
H688   H     0.13888   0.72540   0.40182   0.00000  Uiso   1.00
N689   N     0.16667   0.95240   0.50000   0.00000  Uiso   1.00
N690   N     0.16667   0.71427   0.50000   0.00000  Uiso   1.00
N691   N     0.21560   0.71673   0.56902   0.00000  Uiso   1.00
N692   N     0.11774   0.94993   0.43098   0.00000  Uiso   1.00
N693   N     0.11892   0.71073   0.42741   0.00000  Uiso   1.00
N694   N     0.21442   0.95593   0.57258   0.00000  Uiso   1.00
O695   O     0.10559   0.87154   0.50000   0.00000  Uiso   1.00
O696   O     0.22774   0.79513   0.50000   0.00000  Uiso   1.00
O697   O     0.22774   0.87154   0.50000   0.00000  Uiso   1.00
O698   O     0.10559   0.79513   0.50000   0.00000  Uiso   1.00
O699   O     0.16667   0.87155   0.42845   0.00000  Uiso   1.00
O700   O     0.16666   0.79512   0.57155   0.00000  Uiso   1.00
O701   O     0.16666   0.87155   0.57155   0.00000  Uiso   1.00
O702   O     0.16667   0.79512   0.42845   0.00000  Uiso   1.00
Zn703  Zn    0.16667   0.88437   0.50000   0.00000  Uiso   1.00
Zn704  Zn    0.16667   0.78229   0.50000   0.00000  Uiso   1.00
C705   C     0.42005   0.83323   0.49984   0.00000  Uiso   1.00
C706   C     0.35483   0.87366   0.49292   0.00000  Uiso   1.00
C707   C     0.62416   0.83347   0.50024   0.00000  Uiso   1.00
C708   C     0.37584   0.83320   0.49976   0.00000  Uiso   1.00
C709   C     0.52376   0.69167   0.53383   0.00000  Uiso   1.00
C710   C     0.47624   0.97500   0.46617   0.00000  Uiso   1.00
C711   C     0.47644   0.68946   0.46565   0.00000  Uiso   1.00
C712   C     0.52356   0.97721   0.53435   0.00000  Uiso   1.00
C713   C     0.57995   0.83343   0.50016   0.00000  Uiso   1.00
C714   C     0.49993   0.83319   0.40631   0.00000  Uiso   1.00
C715   C     0.50007   0.83348   0.59369   0.00000  Uiso   1.00
C716   C     0.49997   0.83313   0.35515   0.00000  Uiso   1.00
C717   C     0.50003   0.83354   0.64485   0.00000  Uiso   1.00
C718   C     0.35444   0.79287   0.50680   0.00000  Uiso   1.00
C719   C     0.64556   0.87379   0.49320   0.00000  Uiso   1.00
C720   C     0.64517   0.79301   0.50708   0.00000  Uiso   1.00
H721   H     0.37046   0.76141   0.51237   0.00000  Uiso   1.00
H722   H     0.43274   0.73444   0.44324   0.00000  Uiso   1.00
H723   H     0.56726   0.93223   0.55675   0.00000  Uiso   1.00
H724   H     0.52780   0.94126   0.59818   0.00000  Uiso   1.00
H725   H     0.62954   0.90526   0.48763   0.00000  Uiso   1.00
H726   H     0.62887   0.76158   0.51278   0.00000  Uiso   1.00
H727   H     0.37113   0.90509   0.48722   0.00000  Uiso   1.00
H728   H     0.53986   0.70823   0.60516   0.00000  Uiso   1.00
H729   H     0.57989   0.70717   0.56469   0.00000  Uiso   1.00
H730   H     0.42010   0.95949   0.43531   0.00000  Uiso   1.00
H731   H     0.46015   0.95844   0.39484   0.00000  Uiso   1.00
H732   H     0.47221   0.72540   0.40182   0.00000  Uiso   1.00
N733   N     0.50000   0.95240   0.50000   0.00000  Uiso   1.00
N734   N     0.50000   0.71427   0.50000   0.00000  Uiso   1.00
N735   N     0.54893   0.71673   0.56902   0.00000  Uiso   1.00
N736   N     0.45107   0.94993   0.43098   0.00000  Uiso   1.00
N737   N     0.45226   0.71073   0.42741   0.00000  Uiso   1.00
N738   N     0.54775   0.95593   0.57258   0.00000  Uiso   1.00
O739   O     0.43892   0.87154   0.50000   0.00000  Uiso   1.00
O740   O     0.56108   0.79513   0.50000   0.00000  Uiso   1.00
O741   O     0.56108   0.87154   0.50000   0.00000  Uiso   1.00
O742   O     0.43892   0.79513   0.50000   0.00000  Uiso   1.00
O743   O     0.50000   0.87155   0.42845   0.00000  Uiso   1.00
O744   O     0.50000   0.79512   0.57155   0.00000  Uiso   1.00
O745   O     0.50000   0.87155   0.57155   0.00000  Uiso   1.00
O746   O     0.50000   0.79512   0.42845   0.00000  Uiso   1.00
Zn747  Zn    0.50000   0.88437   0.50000   0.00000  Uiso   1.00
Zn748  Zn    0.50000   0.78229   0.50000   0.00000  Uiso   1.00
C749   C     0.75338   0.83323   0.49984   0.00000  Uiso   1.00
C750   C     0.68816   0.87366   0.49292   0.00000  Uiso   1.00
C751   C     0.95749   0.83347   0.50024   0.00000  Uiso   1.00
C752   C     0.70918   0.83320   0.49976   0.00000  Uiso   1.00
C753   C     0.85709   0.69167   0.53383   0.00000  Uiso   1.00
C754   C     0.80957   0.97500   0.46617   0.00000  Uiso   1.00
C755   C     0.80978   0.68946   0.46565   0.00000  Uiso   1.00
C756   C     0.85689   0.97721   0.53435   0.00000  Uiso   1.00
C757   C     0.91329   0.83343   0.50016   0.00000  Uiso   1.00
C758   C     0.83326   0.83319   0.40631   0.00000  Uiso   1.00
C759   C     0.83341   0.83348   0.59369   0.00000  Uiso   1.00
C760   C     0.83331   0.83313   0.35515   0.00000  Uiso   1.00
C761   C     0.83336   0.83354   0.64485   0.00000  Uiso   1.00
C762   C     0.68778   0.79287   0.50680   0.00000  Uiso   1.00
C763   C     0.97889   0.87379   0.49320   0.00000  Uiso   1.00
C764   C     0.97851   0.79301   0.50708   0.00000  Uiso   1.00
H765   H     0.70379   0.76141   0.51237   0.00000  Uiso   1.00
H766   H     0.76608   0.73444   0.44324   0.00000  Uiso   1.00
H767   H     0.90060   0.93223   0.55675   0.00000  Uiso   1.00
H768   H     0.86113   0.94126   0.59818   0.00000  Uiso   1.00
H769   H     0.96288   0.90526   0.48763   0.00000  Uiso   1.00
H770   H     0.96220   0.76158   0.51278   0.00000  Uiso   1.00
H771   H     0.70446   0.90509   0.48722   0.00000  Uiso   1.00
H772   H     0.87319   0.70823   0.60516   0.00000  Uiso   1.00
H773   H     0.91323   0.70717   0.56469   0.00000  Uiso   1.00
H774   H     0.75344   0.95949   0.43531   0.00000  Uiso   1.00
H775   H     0.79348   0.95844   0.39484   0.00000  Uiso   1.00
H776   H     0.80555   0.72540   0.40182   0.00000  Uiso   1.00
N777   N     0.83333   0.95240   0.50000   0.00000  Uiso   1.00
N778   N     0.83333   0.71427   0.50000   0.00000  Uiso   1.00
N779   N     0.88226   0.71673   0.56902   0.00000  Uiso   1.00
N780   N     0.78440   0.94993   0.43098   0.00000  Uiso   1.00
N781   N     0.78559   0.71073   0.42741   0.00000  Uiso   1.00
N782   N     0.88108   0.95593   0.57258   0.00000  Uiso   1.00
O783   O     0.77226   0.87154   0.50000   0.00000  Uiso   1.00
O784   O     0.89441   0.79513   0.50000   0.00000  Uiso   1.00
O785   O     0.89441   0.87154   0.50000   0.00000  Uiso   1.00
O786   O     0.77226   0.79513   0.50000   0.00000  Uiso   1.00
O787   O     0.83334   0.87155   0.42845   0.00000  Uiso   1.00
O788   O     0.83333   0.79512   0.57155   0.00000  Uiso   1.00
O789   O     0.83333   0.87155   0.57155   0.00000  Uiso   1.00
O790   O     0.83334   0.79512   0.42845   0.00000  Uiso   1.00
Zn791  Zn    0.83333   0.88437   0.50000   0.00000  Uiso   1.00
Zn792  Zn    0.83333   0.78229   0.50000   0.00000  Uiso   1.00
C793   C     0.08671   0.16657   0.83317   0.00000  Uiso   1.00
C794   C     0.02149   0.20699   0.82626   0.00000  Uiso   1.00
C795   C     0.29082   0.16680   0.83357   0.00000  Uiso   1.00
C796   C     0.04251   0.16653   0.83309   0.00000  Uiso   1.00
C797   C     0.19043   0.02500   0.86716   0.00000  Uiso   1.00
C798   C     0.14291   0.30833   0.79950   0.00000  Uiso   1.00
C799   C     0.14311   0.02279   0.79898   0.00000  Uiso   1.00
C800   C     0.19023   0.31054   0.86768   0.00000  Uiso   1.00
C801   C     0.24662   0.16677   0.83349   0.00000  Uiso   1.00
C802   C     0.16659   0.16652   0.73964   0.00000  Uiso   1.00
C803   C     0.16674   0.16681   0.92702   0.00000  Uiso   1.00
C804   C     0.16664   0.16646   0.68849   0.00000  Uiso   1.00
C805   C     0.16669   0.16687   0.97818   0.00000  Uiso   1.00
C806   C     0.02111   0.12621   0.84013   0.00000  Uiso   1.00
C807   C     0.31222   0.20713   0.82653   0.00000  Uiso   1.00
C808   C     0.31184   0.12634   0.84041   0.00000  Uiso   1.00
H809   H     0.03712   0.09474   0.84570   0.00000  Uiso   1.00
H810   H     0.09941   0.06778   0.77657   0.00000  Uiso   1.00
H811   H     0.23393   0.26556   0.89009   0.00000  Uiso   1.00
H812   H     0.19446   0.27460   0.93151   0.00000  Uiso   1.00
H813   H     0.29621   0.23859   0.82097   0.00000  Uiso   1.00
H814   H     0.29554   0.09491   0.84611   0.00000  Uiso   1.00
H815   H     0.03780   0.23842   0.82055   0.00000  Uiso   1.00
H816   H     0.20652   0.04156   0.93849   0.00000  Uiso   1.00
H817   H     0.24656   0.04051   0.89802   0.00000  Uiso   1.00
H818   H     0.08677   0.29283   0.76864   0.00000  Uiso   1.00
H819   H     0.12681   0.29177   0.72818   0.00000  Uiso   1.00
H820   H     0.13888   0.05873   0.73515   0.00000  Uiso   1.00
N821   N     0.16667   0.28573   0.83333   0.00000  Uiso   1.00
N822   N     0.16667   0.04760   0.83333   0.00000  Uiso   1.00
N823   N     0.21560   0.05007   0.90235   0.00000  Uiso   1.00
N824   N     0.11774   0.28327   0.76431   0.00000  Uiso   1.00
N825   N     0.11892   0.04407   0.76074   0.00000  Uiso   1.00
N826   N     0.21442   0.28927   0.90592   0.00000  Uiso   1.00
O827   O     0.10559   0.20487   0.83333   0.00000  Uiso   1.00
O828   O     0.22774   0.12846   0.83334   0.00000  Uiso   1.00
O829   O     0.22774   0.20487   0.83334   0.00000  Uiso   1.00
O830   O     0.10559   0.12846   0.83333   0.00000  Uiso   1.00
O831   O     0.16667   0.20488   0.76178   0.00000  Uiso   1.00
O832   O     0.16666   0.12845   0.90489   0.00000  Uiso   1.00
O833   O     0.16666   0.20488   0.90489   0.00000  Uiso   1.00
O834   O     0.16667   0.12845   0.76178   0.00000  Uiso   1.00
Zn835  Zn    0.16667   0.21771   0.83333   0.00000  Uiso   1.00
Zn836  Zn    0.16667   0.11563   0.83333   0.00000  Uiso   1.00
C837   C     0.42005   0.16657   0.83317   0.00000  Uiso   1.00
C838   C     0.35483   0.20699   0.82626   0.00000  Uiso   1.00
C839   C     0.62416   0.16680   0.83357   0.00000  Uiso   1.00
C840   C     0.37584   0.16653   0.83309   0.00000  Uiso   1.00
C841   C     0.52376   0.02500   0.86716   0.00000  Uiso   1.00
C842   C     0.47624   0.30833   0.79950   0.00000  Uiso   1.00
C843   C     0.47644   0.02279   0.79898   0.00000  Uiso   1.00
C844   C     0.52356   0.31054   0.86768   0.00000  Uiso   1.00
C845   C     0.57995   0.16677   0.83349   0.00000  Uiso   1.00
C846   C     0.49993   0.16652   0.73964   0.00000  Uiso   1.00
C847   C     0.50007   0.16681   0.92702   0.00000  Uiso   1.00
C848   C     0.49997   0.16646   0.68849   0.00000  Uiso   1.00
C849   C     0.50003   0.16687   0.97818   0.00000  Uiso   1.00
C850   C     0.35444   0.12621   0.84013   0.00000  Uiso   1.00
C851   C     0.64556   0.20713   0.82653   0.00000  Uiso   1.00
C852   C     0.64517   0.12634   0.84041   0.00000  Uiso   1.00
H853   H     0.37046   0.09474   0.84570   0.00000  Uiso   1.00
H854   H     0.43274   0.06778   0.77657   0.00000  Uiso   1.00
H855   H     0.56726   0.26556   0.89009   0.00000  Uiso   1.00
H856   H     0.52780   0.27460   0.93151   0.00000  Uiso   1.00
H857   H     0.62954   0.23859   0.82097   0.00000  Uiso   1.00
H858   H     0.62887   0.09491   0.84611   0.00000  Uiso   1.00
H859   H     0.37113   0.23842   0.82055   0.00000  Uiso   1.00
H860   H     0.53986   0.04156   0.93849   0.00000  Uiso   1.00
H861   H     0.57989   0.04051   0.89802   0.00000  Uiso   1.00
H862   H     0.42010   0.29283   0.76864   0.00000  Uiso   1.00
H863   H     0.46015   0.29177   0.72818   0.00000  Uiso   1.00
H864   H     0.47221   0.05873   0.73515   0.00000  Uiso   1.00
N865   N     0.50000   0.28573   0.83333   0.00000  Uiso   1.00
N866   N     0.50000   0.04760   0.83333   0.00000  Uiso   1.00
N867   N     0.54893   0.05007   0.90235   0.00000  Uiso   1.00
N868   N     0.45107   0.28327   0.76431   0.00000  Uiso   1.00
N869   N     0.45226   0.04407   0.76074   0.00000  Uiso   1.00
N870   N     0.54775   0.28927   0.90592   0.00000  Uiso   1.00
O871   O     0.43892   0.20487   0.83333   0.00000  Uiso   1.00
O872   O     0.56108   0.12846   0.83334   0.00000  Uiso   1.00
O873   O     0.56108   0.20487   0.83334   0.00000  Uiso   1.00
O874   O     0.43892   0.12846   0.83333   0.00000  Uiso   1.00
O875   O     0.50000   0.20488   0.76178   0.00000  Uiso   1.00
O876   O     0.50000   0.12845   0.90489   0.00000  Uiso   1.00
O877   O     0.50000   0.20488   0.90489   0.00000  Uiso   1.00
O878   O     0.50000   0.12845   0.76178   0.00000  Uiso   1.00
Zn879  Zn    0.50000   0.21771   0.83333   0.00000  Uiso   1.00
Zn880  Zn    0.50000   0.11563   0.83333   0.00000  Uiso   1.00
C881   C     0.75338   0.16657   0.83317   0.00000  Uiso   1.00
C882   C     0.68816   0.20699   0.82626   0.00000  Uiso   1.00
C883   C     0.95749   0.16680   0.83357   0.00000  Uiso   1.00
C884   C     0.70918   0.16653   0.83309   0.00000  Uiso   1.00
C885   C     0.85709   0.02500   0.86716   0.00000  Uiso   1.00
C886   C     0.80957   0.30833   0.79950   0.00000  Uiso   1.00
C887   C     0.80978   0.02279   0.79898   0.00000  Uiso   1.00
C888   C     0.85689   0.31054   0.86768   0.00000  Uiso   1.00
C889   C     0.91329   0.16677   0.83349   0.00000  Uiso   1.00
C890   C     0.83326   0.16652   0.73964   0.00000  Uiso   1.00
C891   C     0.83341   0.16681   0.92702   0.00000  Uiso   1.00
C892   C     0.83331   0.16646   0.68849   0.00000  Uiso   1.00
C893   C     0.83336   0.16687   0.97818   0.00000  Uiso   1.00
C894   C     0.68778   0.12621   0.84013   0.00000  Uiso   1.00
C895   C     0.97889   0.20713   0.82653   0.00000  Uiso   1.00
C896   C     0.97851   0.12634   0.84041   0.00000  Uiso   1.00
H897   H     0.70379   0.09474   0.84570   0.00000  Uiso   1.00
H898   H     0.76608   0.06778   0.77657   0.00000  Uiso   1.00
H899   H     0.90060   0.26556   0.89009   0.00000  Uiso   1.00
H900   H     0.86113   0.27460   0.93151   0.00000  Uiso   1.00
H901   H     0.96288   0.23859   0.82097   0.00000  Uiso   1.00
H902   H     0.96220   0.09491   0.84611   0.00000  Uiso   1.00
H903   H     0.70446   0.23842   0.82055   0.00000  Uiso   1.00
H904   H     0.87319   0.04156   0.93849   0.00000  Uiso   1.00
H905   H     0.91323   0.04051   0.89802   0.00000  Uiso   1.00
H906   H     0.75344   0.29283   0.76864   0.00000  Uiso   1.00
H907   H     0.79348   0.29177   0.72818   0.00000  Uiso   1.00
H908   H     0.80555   0.05873   0.73515   0.00000  Uiso   1.00
N909   N     0.83333   0.28573   0.83333   0.00000  Uiso   1.00
N910   N     0.83333   0.04760   0.83333   0.00000  Uiso   1.00
N911   N     0.88226   0.05007   0.90235   0.00000  Uiso   1.00
N912   N     0.78440   0.28327   0.76431   0.00000  Uiso   1.00
N913   N     0.78559   0.04407   0.76074   0.00000  Uiso   1.00
N914   N     0.88108   0.28927   0.90592   0.00000  Uiso   1.00
O915   O     0.77226   0.20487   0.83333   0.00000  Uiso   1.00
O916   O     0.89441   0.12846   0.83334   0.00000  Uiso   1.00
O917   O     0.89441   0.20487   0.83334   0.00000  Uiso   1.00
O918   O     0.77226   0.12846   0.83333   0.00000  Uiso   1.00
O919   O     0.83334   0.20488   0.76178   0.00000  Uiso   1.00
O920   O     0.83333   0.12845   0.90489   0.00000  Uiso   1.00
O921   O     0.83333   0.20488   0.90489   0.00000  Uiso   1.00
O922   O     0.83334   0.12845   0.76178   0.00000  Uiso   1.00
Zn923  Zn    0.83333   0.21771   0.83333   0.00000  Uiso   1.00
Zn924  Zn    0.83333   0.11563   0.83333   0.00000  Uiso   1.00
C925   C     0.08671   0.49990   0.83317   0.00000  Uiso   1.00
C926   C     0.02149   0.54032   0.82626   0.00000  Uiso   1.00
C927   C     0.29082   0.50014   0.83357   0.00000  Uiso   1.00
C928   C     0.04251   0.49986   0.83309   0.00000  Uiso   1.00
C929   C     0.19043   0.35834   0.86716   0.00000  Uiso   1.00
C930   C     0.14291   0.64166   0.79950   0.00000  Uiso   1.00
C931   C     0.14311   0.35612   0.79898   0.00000  Uiso   1.00
C932   C     0.19023   0.64388   0.86768   0.00000  Uiso   1.00
C933   C     0.24662   0.50010   0.83349   0.00000  Uiso   1.00
C934   C     0.16659   0.49986   0.73964   0.00000  Uiso   1.00
C935   C     0.16674   0.50014   0.92702   0.00000  Uiso   1.00
C936   C     0.16664   0.49980   0.68849   0.00000  Uiso   1.00
C937   C     0.16669   0.50020   0.97818   0.00000  Uiso   1.00
C938   C     0.02111   0.45954   0.84013   0.00000  Uiso   1.00
C939   C     0.31222   0.54046   0.82653   0.00000  Uiso   1.00
C940   C     0.31184   0.45968   0.84041   0.00000  Uiso   1.00
H941   H     0.03712   0.42807   0.84570   0.00000  Uiso   1.00
H942   H     0.09941   0.40111   0.77657   0.00000  Uiso   1.00
H943   H     0.23393   0.59889   0.89009   0.00000  Uiso   1.00
H944   H     0.19446   0.60793   0.93151   0.00000  Uiso   1.00
H945   H     0.29621   0.57193   0.82097   0.00000  Uiso   1.00
H946   H     0.29554   0.42824   0.84611   0.00000  Uiso   1.00
H947   H     0.03780   0.57176   0.82055   0.00000  Uiso   1.00
H948   H     0.20652   0.37489   0.93849   0.00000  Uiso   1.00
H949   H     0.24656   0.37384   0.89802   0.00000  Uiso   1.00
H950   H     0.08677   0.62616   0.76864   0.00000  Uiso   1.00
H951   H     0.12681   0.62510   0.72818   0.00000  Uiso   1.00
H952   H     0.13888   0.39206   0.73515   0.00000  Uiso   1.00
N953   N     0.16667   0.61907   0.83333   0.00000  Uiso   1.00
N954   N     0.16667   0.38093   0.83333   0.00000  Uiso   1.00
N955   N     0.21560   0.38340   0.90235   0.00000  Uiso   1.00
N956   N     0.11774   0.61660   0.76431   0.00000  Uiso   1.00
N957   N     0.11892   0.37740   0.76074   0.00000  Uiso   1.00
N958   N     0.21442   0.62260   0.90592   0.00000  Uiso   1.00
O959   O     0.10559   0.53821   0.83333   0.00000  Uiso   1.00
O960   O     0.22774   0.46179   0.83334   0.00000  Uiso   1.00
O961   O     0.22774   0.53821   0.83334   0.00000  Uiso   1.00
O962   O     0.10559   0.46179   0.83333   0.00000  Uiso   1.00
O963   O     0.16667   0.53821   0.76178   0.00000  Uiso   1.00
O964   O     0.16666   0.46179   0.90489   0.00000  Uiso   1.00
O965   O     0.16666   0.53821   0.90489   0.00000  Uiso   1.00
O966   O     0.16667   0.46179   0.76178   0.00000  Uiso   1.00
Zn967  Zn    0.16667   0.55104   0.83333   0.00000  Uiso   1.00
Zn968  Zn    0.16667   0.44896   0.83333   0.00000  Uiso   1.00
C969   C     0.42005   0.49990   0.83317   0.00000  Uiso   1.00
C970   C     0.35483   0.54032   0.82626   0.00000  Uiso   1.00
C971   C     0.62416   0.50014   0.83357   0.00000  Uiso   1.00
C972   C     0.37584   0.49986   0.83309   0.00000  Uiso   1.00
C973   C     0.52376   0.35834   0.86716   0.00000  Uiso   1.00
C974   C     0.47624   0.64166   0.79950   0.00000  Uiso   1.00
C975   C     0.47644   0.35612   0.79898   0.00000  Uiso   1.00
C976   C     0.52356   0.64388   0.86768   0.00000  Uiso   1.00
C977   C     0.57995   0.50010   0.83349   0.00000  Uiso   1.00
C978   C     0.49993   0.49986   0.73964   0.00000  Uiso   1.00
C979   C     0.50007   0.50014   0.92702   0.00000  Uiso   1.00
C980   C     0.49997   0.49980   0.68849   0.00000  Uiso   1.00
C981   C     0.50003   0.50020   0.97818   0.00000  Uiso   1.00
C982   C     0.35444   0.45954   0.84013   0.00000  Uiso   1.00
C983   C     0.64556   0.54046   0.82653   0.00000  Uiso   1.00
C984   C     0.64517   0.45968   0.84041   0.00000  Uiso   1.00
H985   H     0.37046   0.42807   0.84570   0.00000  Uiso   1.00
H986   H     0.43274   0.40111   0.77657   0.00000  Uiso   1.00
H987   H     0.56726   0.59889   0.89009   0.00000  Uiso   1.00
H988   H     0.52780   0.60793   0.93151   0.00000  Uiso   1.00
H989   H     0.62954   0.57193   0.82097   0.00000  Uiso   1.00
H990   H     0.62887   0.42824   0.84611   0.00000  Uiso   1.00
H991   H     0.37113   0.57176   0.82055   0.00000  Uiso   1.00
H992   H     0.53986   0.37489   0.93849   0.00000  Uiso   1.00
H993   H     0.57989   0.37384   0.89802   0.00000  Uiso   1.00
H994   H     0.42010   0.62616   0.76864   0.00000  Uiso   1.00
H995   H     0.46015   0.62510   0.72818   0.00000  Uiso   1.00
H996   H     0.47221   0.39206   0.73515   0.00000  Uiso   1.00
N997   N     0.50000   0.61907   0.83333   0.00000  Uiso   1.00
N998   N     0.50000   0.38093   0.83333   0.00000  Uiso   1.00
N999   N     0.54893   0.38340   0.90235   0.00000  Uiso   1.00
N1000  N     0.45107   0.61660   0.76431   0.00000  Uiso   1.00
N1001  N     0.45226   0.37740   0.76074   0.00000  Uiso   1.00
N1002  N     0.54775   0.62260   0.90592   0.00000  Uiso   1.00
O1003  O     0.43892   0.53821   0.83333   0.00000  Uiso   1.00
O1004  O     0.56108   0.46179   0.83334   0.00000  Uiso   1.00
O1005  O     0.56108   0.53821   0.83334   0.00000  Uiso   1.00
O1006  O     0.43892   0.46179   0.83333   0.00000  Uiso   1.00
O1007  O     0.50000   0.53821   0.76178   0.00000  Uiso   1.00
O1008  O     0.50000   0.46179   0.90489   0.00000  Uiso   1.00
O1009  O     0.50000   0.53821   0.90489   0.00000  Uiso   1.00
O1010  O     0.50000   0.46179   0.76178   0.00000  Uiso   1.00
Zn1011 Zn    0.50000   0.55104   0.83333   0.00000  Uiso   1.00
Zn1012 Zn    0.50000   0.44896   0.83333   0.00000  Uiso   1.00
C1013  C     0.75338   0.49990   0.83317   0.00000  Uiso   1.00
C1014  C     0.68816   0.54032   0.82626   0.00000  Uiso   1.00
C1015  C     0.95749   0.50014   0.83357   0.00000  Uiso   1.00
C1016  C     0.70918   0.49986   0.83309   0.00000  Uiso   1.00
C1017  C     0.85709   0.35834   0.86716   0.00000  Uiso   1.00
C1018  C     0.80957   0.64166   0.79950   0.00000  Uiso   1.00
C1019  C     0.80978   0.35612   0.79898   0.00000  Uiso   1.00
C1020  C     0.85689   0.64388   0.86768   0.00000  Uiso   1.00
C1021  C     0.91329   0.50010   0.83349   0.00000  Uiso   1.00
C1022  C     0.83326   0.49986   0.73964   0.00000  Uiso   1.00
C1023  C     0.83341   0.50014   0.92702   0.00000  Uiso   1.00
C1024  C     0.83331   0.49980   0.68849   0.00000  Uiso   1.00
C1025  C     0.83336   0.50020   0.97818   0.00000  Uiso   1.00
C1026  C     0.68778   0.45954   0.84013   0.00000  Uiso   1.00
C1027  C     0.97889   0.54046   0.82653   0.00000  Uiso   1.00
C1028  C     0.97851   0.45968   0.84041   0.00000  Uiso   1.00
H1029  H     0.70379   0.42807   0.84570   0.00000  Uiso   1.00
H1030  H     0.76608   0.40111   0.77657   0.00000  Uiso   1.00
H1031  H     0.90060   0.59889   0.89009   0.00000  Uiso   1.00
H1032  H     0.86113   0.60793   0.93151   0.00000  Uiso   1.00
H1033  H     0.96288   0.57193   0.82097   0.00000  Uiso   1.00
H1034  H     0.96220   0.42824   0.84611   0.00000  Uiso   1.00
H1035  H     0.70446   0.57176   0.82055   0.00000  Uiso   1.00
H1036  H     0.87319   0.37489   0.93849   0.00000  Uiso   1.00
H1037  H     0.91323   0.37384   0.89802   0.00000  Uiso   1.00
H1038  H     0.75344   0.62616   0.76864   0.00000  Uiso   1.00
H1039  H     0.79348   0.62510   0.72818   0.00000  Uiso   1.00
H1040  H     0.80555   0.39206   0.73515   0.00000  Uiso   1.00
N1041  N     0.83333   0.61907   0.83333   0.00000  Uiso   1.00
N1042  N     0.83333   0.38093   0.83333   0.00000  Uiso   1.00
N1043  N     0.88226   0.38340   0.90235   0.00000  Uiso   1.00
N1044  N     0.78440   0.61660   0.76431   0.00000  Uiso   1.00
N1045  N     0.78559   0.37740   0.76074   0.00000  Uiso   1.00
N1046  N     0.88108   0.62260   0.90592   0.00000  Uiso   1.00
O1047  O     0.77226   0.53821   0.83333   0.00000  Uiso   1.00
O1048  O     0.89441   0.46179   0.83334   0.00000  Uiso   1.00
O1049  O     0.89441   0.53821   0.83334   0.00000  Uiso   1.00
O1050  O     0.77226   0.46179   0.83333   0.00000  Uiso   1.00
O1051  O     0.83334   0.53821   0.76178   0.00000  Uiso   1.00
O1052  O     0.83333   0.46179   0.90489   0.00000  Uiso   1.00
O1053  O     0.83333   0.53821   0.90489   0.00000  Uiso   1.00
O1054  O     0.83334   0.46179   0.76178   0.00000  Uiso   1.00
Zn1055 Zn    0.83333   0.55104   0.83333   0.00000  Uiso   1.00
Zn1056 Zn    0.83333   0.44896   0.83333   0.00000  Uiso   1.00
C1057  C     0.08671   0.83323   0.83317   0.00000  Uiso   1.00
C1058  C     0.02149   0.87366   0.82626   0.00000  Uiso   1.00
C1059  C     0.29082   0.83347   0.83357   0.00000  Uiso   1.00
C1060  C     0.04251   0.83320   0.83309   0.00000  Uiso   1.00
C1061  C     0.19043   0.69167   0.86716   0.00000  Uiso   1.00
C1062  C     0.14291   0.97500   0.79950   0.00000  Uiso   1.00
C1063  C     0.14311   0.68946   0.79898   0.00000  Uiso   1.00
C1064  C     0.19023   0.97721   0.86768   0.00000  Uiso   1.00
C1065  C     0.24662   0.83343   0.83349   0.00000  Uiso   1.00
C1066  C     0.16659   0.83319   0.73964   0.00000  Uiso   1.00
C1067  C     0.16674   0.83348   0.92702   0.00000  Uiso   1.00
C1068  C     0.16664   0.83313   0.68849   0.00000  Uiso   1.00
C1069  C     0.16669   0.83354   0.97818   0.00000  Uiso   1.00
C1070  C     0.02111   0.79287   0.84013   0.00000  Uiso   1.00
C1071  C     0.31222   0.87379   0.82653   0.00000  Uiso   1.00
C1072  C     0.31184   0.79301   0.84041   0.00000  Uiso   1.00
H1073  H     0.03712   0.76141   0.84570   0.00000  Uiso   1.00
H1074  H     0.09941   0.73444   0.77657   0.00000  Uiso   1.00
H1075  H     0.23393   0.93223   0.89009   0.00000  Uiso   1.00
H1076  H     0.19446   0.94126   0.93151   0.00000  Uiso   1.00
H1077  H     0.29621   0.90526   0.82097   0.00000  Uiso   1.00
H1078  H     0.29554   0.76158   0.84611   0.00000  Uiso   1.00
H1079  H     0.03780   0.90509   0.82055   0.00000  Uiso   1.00
H1080  H     0.20652   0.70823   0.93849   0.00000  Uiso   1.00
H1081  H     0.24656   0.70717   0.89802   0.00000  Uiso   1.00
H1082  H     0.08677   0.95949   0.76864   0.00000  Uiso   1.00
H1083  H     0.12681   0.95844   0.72818   0.00000  Uiso   1.00
H1084  H     0.13888   0.72540   0.73515   0.00000  Uiso   1.00
N1085  N     0.16667   0.95240   0.83333   0.00000  Uiso   1.00
N1086  N     0.16667   0.71427   0.83333   0.00000  Uiso   1.00
N1087  N     0.21560   0.71673   0.90235   0.00000  Uiso   1.00
N1088  N     0.11774   0.94993   0.76431   0.00000  Uiso   1.00
N1089  N     0.11892   0.71073   0.76074   0.00000  Uiso   1.00
N1090  N     0.21442   0.95593   0.90592   0.00000  Uiso   1.00
O1091  O     0.10559   0.87154   0.83333   0.00000  Uiso   1.00
O1092  O     0.22774   0.79513   0.83334   0.00000  Uiso   1.00
O1093  O     0.22774   0.87154   0.83334   0.00000  Uiso   1.00
O1094  O     0.10559   0.79513   0.83333   0.00000  Uiso   1.00
O1095  O     0.16667   0.87155   0.76178   0.00000  Uiso   1.00
O1096  O     0.16666   0.79512   0.90489   0.00000  Uiso   1.00
O1097  O     0.16666   0.87155   0.90489   0.00000  Uiso   1.00
O1098  O     0.16667   0.79512   0.76178   0.00000  Uiso   1.00
Zn1099 Zn    0.16667   0.88437   0.83333   0.00000  Uiso   1.00
Zn1100 Zn    0.16667   0.78229   0.83333   0.00000  Uiso   1.00
C1101  C     0.42005   0.83323   0.83317   0.00000  Uiso   1.00
C1102  C     0.35483   0.87366   0.82626   0.00000  Uiso   1.00
C1103  C     0.62416   0.83347   0.83357   0.00000  Uiso   1.00
C1104  C     0.37584   0.83320   0.83309   0.00000  Uiso   1.00
C1105  C     0.52376   0.69167   0.86716   0.00000  Uiso   1.00
C1106  C     0.47624   0.97500   0.79950   0.00000  Uiso   1.00
C1107  C     0.47644   0.68946   0.79898   0.00000  Uiso   1.00
C1108  C     0.52356   0.97721   0.86768   0.00000  Uiso   1.00
C1109  C     0.57995   0.83343   0.83349   0.00000  Uiso   1.00
C1110  C     0.49993   0.83319   0.73964   0.00000  Uiso   1.00
C1111  C     0.50007   0.83348   0.92702   0.00000  Uiso   1.00
C1112  C     0.49997   0.83313   0.68849   0.00000  Uiso   1.00
C1113  C     0.50003   0.83354   0.97818   0.00000  Uiso   1.00
C1114  C     0.35444   0.79287   0.84013   0.00000  Uiso   1.00
C1115  C     0.64556   0.87379   0.82653   0.00000  Uiso   1.00
C1116  C     0.64517   0.79301   0.84041   0.00000  Uiso   1.00
H1117  H     0.37046   0.76141   0.84570   0.00000  Uiso   1.00
H1118  H     0.43274   0.73444   0.77657   0.00000  Uiso   1.00
H1119  H     0.56726   0.93223   0.89009   0.00000  Uiso   1.00
H1120  H     0.52780   0.94126   0.93151   0.00000  Uiso   1.00
H1121  H     0.62954   0.90526   0.82097   0.00000  Uiso   1.00
H1122  H     0.62887   0.76158   0.84611   0.00000  Uiso   1.00
H1123  H     0.37113   0.90509   0.82055   0.00000  Uiso   1.00
H1124  H     0.53986   0.70823   0.93849   0.00000  Uiso   1.00
H1125  H     0.57989   0.70717   0.89802   0.00000  Uiso   1.00
H1126  H     0.42010   0.95949   0.76864   0.00000  Uiso   1.00
H1127  H     0.46015   0.95844   0.72818   0.00000  Uiso   1.00
H1128  H     0.47221   0.72540   0.73515   0.00000  Uiso   1.00
N1129  N     0.50000   0.95240   0.83333   0.00000  Uiso   1.00
N1130  N     0.50000   0.71427   0.83333   0.00000  Uiso   1.00
N1131  N     0.54893   0.71673   0.90235   0.00000  Uiso   1.00
N1132  N     0.45107   0.94993   0.76431   0.00000  Uiso   1.00
N1133  N     0.45226   0.71073   0.76074   0.00000  Uiso   1.00
N1134  N     0.54775   0.95593   0.90592   0.00000  Uiso   1.00
O1135  O     0.43892   0.87154   0.83333   0.00000  Uiso   1.00
O1136  O     0.56108   0.79513   0.83334   0.00000  Uiso   1.00
O1137  O     0.56108   0.87154   0.83334   0.00000  Uiso   1.00
O1138  O     0.43892   0.79513   0.83333   0.00000  Uiso   1.00
O1139  O     0.50000   0.87155   0.76178   0.00000  Uiso   1.00
O1140  O     0.50000   0.79512   0.90489   0.00000  Uiso   1.00
O1141  O     0.50000   0.87155   0.90489   0.00000  Uiso   1.00
O1142  O     0.50000   0.79512   0.76178   0.00000  Uiso   1.00
Zn1143 Zn    0.50000   0.88437   0.83333   0.00000  Uiso   1.00
Zn1144 Zn    0.50000   0.78229   0.83333   0.00000  Uiso   1.00
C1145  C     0.75338   0.83323   0.83317   0.00000  Uiso   1.00
C1146  C     0.68816   0.87366   0.82626   0.00000  Uiso   1.00
C1147  C     0.95749   0.83347   0.83357   0.00000  Uiso   1.00
C1148  C     0.70918   0.83320   0.83309   0.00000  Uiso   1.00
C1149  C     0.85709   0.69167   0.86716   0.00000  Uiso   1.00
C1150  C     0.80957   0.97500   0.79950   0.00000  Uiso   1.00
C1151  C     0.80978   0.68946   0.79898   0.00000  Uiso   1.00
C1152  C     0.85689   0.97721   0.86768   0.00000  Uiso   1.00
C1153  C     0.91329   0.83343   0.83349   0.00000  Uiso   1.00
C1154  C     0.83326   0.83319   0.73964   0.00000  Uiso   1.00
C1155  C     0.83341   0.83348   0.92702   0.00000  Uiso   1.00
C1156  C     0.83331   0.83313   0.68849   0.00000  Uiso   1.00
C1157  C     0.83336   0.83354   0.97818   0.00000  Uiso   1.00
C1158  C     0.68778   0.79287   0.84013   0.00000  Uiso   1.00
C1159  C     0.97889   0.87379   0.82653   0.00000  Uiso   1.00
C1160  C     0.97851   0.79301   0.84041   0.00000  Uiso   1.00
H1161  H     0.70379   0.76141   0.84570   0.00000  Uiso   1.00
H1162  H     0.76608   0.73444   0.77657   0.00000  Uiso   1.00
H1163  H     0.90060   0.93223   0.89009   0.00000  Uiso   1.00
H1164  H     0.86113   0.94126   0.93151   0.00000  Uiso   1.00
H1165  H     0.96288   0.90526   0.82097   0.00000  Uiso   1.00
H1166  H     0.96220   0.76158   0.84611   0.00000  Uiso   1.00
H1167  H     0.70446   0.90509   0.82055   0.00000  Uiso   1.00
H1168  H     0.87319   0.70823   0.93849   0.00000  Uiso   1.00
H1169  H     0.91323   0.70717   0.89802   0.00000  Uiso   1.00
H1170  H     0.75344   0.95949   0.76864   0.00000  Uiso   1.00
H1171  H     0.79348   0.95844   0.72818   0.00000  Uiso   1.00
H1172  H     0.80555   0.72540   0.73515   0.00000  Uiso   1.00
N1173  N     0.83333   0.95240   0.83333   0.00000  Uiso   1.00
N1174  N     0.83333   0.71427   0.83333   0.00000  Uiso   1.00
N1175  N     0.88226   0.71673   0.90235   0.00000  Uiso   1.00
N1176  N     0.78440   0.94993   0.76431   0.00000  Uiso   1.00
N1177  N     0.78559   0.71073   0.76074   0.00000  Uiso   1.00
N1178  N     0.88108   0.95593   0.90592   0.00000  Uiso   1.00
O1179  O     0.77226   0.87154   0.83333   0.00000  Uiso   1.00
O1180  O     0.89441   0.79513   0.83334   0.00000  Uiso   1.00
O1181  O     0.89441   0.87154   0.83334   0.00000  Uiso   1.00
O1182  O     0.77226   0.79513   0.83333   0.00000  Uiso   1.00
O1183  O     0.83334   0.87155   0.76178   0.00000  Uiso   1.00
O1184  O     0.83333   0.79512   0.90489   0.00000  Uiso   1.00
O1185  O     0.83333   0.87155   0.90489   0.00000  Uiso   1.00
O1186  O     0.83334   0.79512   0.76178   0.00000  Uiso   1.00
Zn1187 Zn    0.83333   0.88437   0.83333   0.00000  Uiso   1.00
Zn1188 Zn    0.83333   0.78229   0.83333   0.00000  Uiso   1.00
loop_
_geom_bond_atom_site_label_1
_geom_bond_atom_site_label_2
_geom_bond_distance
_geom_bond_site_symmetry_2
_ccdc_geom_bond_type
C1     C4      1.421   .     S
C1     O38     1.292   .     A
C1     O35     1.289   .     A
C2     C4      1.399   .     A
C2     H23     1.083   .     S
C2     C103    1.370   1_455 S
C3     C9      1.421   .     S
C3     C15     1.396   .     A
C3     C16     1.399   .     A
C4     C14     1.396   .     A
C5     N30     1.360   .     A
C5     N31     1.431   .     S
C5     C272    1.424   1_545 S
C6     N32     1.431   .     S
C6     N29     1.360   .     A
C6     C139    1.424   .     S
C7     N33     1.429   .     S
C7     N30     1.384   .     A
C7     C270    1.424   1_545 S
C8     N34     1.429   .     S
C8     N29     1.384   .     A
C8     C137    1.424   .     S
C9     O36     1.289   .     A
C9     O37     1.292   .     A
C10    O42     1.285   .     A
C10    C12     1.366   .     S
C10    O39     1.281   .     A
C11    C13     1.366   .     S
C11    O41     1.285   .     A
C11    O40     1.281   .     A
C12    C805    1.165   1_554 S
C13    C408    1.165   .     S
C14    H17     1.084   .     S
C14    C104    1.370   1_455 S
C15    H21     1.084   .     S
C15    C46     1.370   .     S
C16    H22     1.083   .     S
C16    C58     1.370   .     S
H18    N33     1.040   .     S
H19    N34     1.040   .     S
H20    N34     1.042   .     S
H24    N31     1.045   .     S
H25    N31     1.045   .     S
H26    N32     1.045   .     S
H27    N32     1.046   .     S
H28    N33     1.042   .     S
N29    Zn43    2.027   .     S
N30    Zn44    2.027   .     S
O35    Zn43    1.998   .     S
O36    Zn44    1.998   .     S
O37    Zn43    2.003   .     S
O38    Zn44    2.003   .     S
O39    Zn43    1.944   .     S
O40    Zn44    1.944   .     S
O41    Zn43    1.952   .     S
O42    Zn44    1.952   .     S
C45    C48     1.421   .     S
C45    O82     1.292   .     A
C45    O79     1.289   .     A
C46    C48     1.399   .     A
C46    H67     1.083   .     S
C47    C53     1.421   .     S
C47    C59     1.396   .     A
C47    C60     1.399   .     A
C48    C58     1.396   .     A
C49    N74     1.360   .     A
C49    N75     1.431   .     S
C49    C316    1.424   1_545 S
C50    N76     1.431   .     S
C50    N73     1.360   .     A
C50    C183    1.424   .     S
C51    N77     1.429   .     S
C51    N74     1.384   .     A
C51    C314    1.424   1_545 S
C52    N78     1.429   .     S
C52    N73     1.384   .     A
C52    C181    1.424   .     S
C53    O80     1.289   .     A
C53    O81     1.292   .     A
C54    O86     1.285   .     A
C54    C56     1.366   .     S
C54    O83     1.281   .     A
C55    C57     1.366   .     S
C55    O85     1.285   .     A
C55    O84     1.281   .     A
C56    C849    1.165   1_554 S
C57    C452    1.165   .     S
C58    H61     1.084   .     S
C59    H65     1.084   .     S
C59    C90     1.370   .     S
C60    H66     1.083   .     S
C60    C102    1.370   .     S
H62    N77     1.040   .     S
H63    N78     1.040   .     S
H64    N78     1.042   .     S
H68    N75     1.045   .     S
H69    N75     1.045   .     S
H70    N76     1.045   .     S
H71    N76     1.046   .     S
H72    N77     1.042   .     S
N73    Zn87    2.027   .     S
N74    Zn88    2.027   .     S
O79    Zn87    1.998   .     S
O80    Zn88    1.998   .     S
O81    Zn87    2.003   .     S
O82    Zn88    2.003   .     S
O83    Zn87    1.944   .     S
O84    Zn88    1.944   .     S
O85    Zn87    1.952   .     S
O86    Zn88    1.952   .     S
C89    C92     1.421   .     S
C89    O126    1.292   .     A
C89    O123    1.289   .     A
C90    C92     1.399   .     A
C90    H111    1.083   .     S
C91    C97     1.421   .     S
C91    C103    1.396   .     A
C91    C104    1.399   .     A
C92    C102    1.396   .     A
C93    N118    1.360   .     A
C93    N119    1.431   .     S
C93    C360    1.424   1_545 S
C94    N120    1.431   .     S
C94    N117    1.360   .     A
C94    C227    1.424   .     S
C95    N121    1.429   .     S
C95    N118    1.384   .     A
C95    C358    1.424   1_545 S
C96    N122    1.429   .     S
C96    N117    1.384   .     A
C96    C225    1.424   .     S
C97    O124    1.289   .     A
C97    O125    1.292   .     A
C98    O130    1.285   .     A
C98    C100    1.366   .     S
C98    O127    1.281   .     A
C99    C101    1.366   .     S
C99    O129    1.285   .     A
C99    O128    1.281   .     A
C100   C893    1.165   1_554 S
C101   C496    1.165   .     S
C102   H105    1.084   .     S
C103   H109    1.084   .     S
C103   C2      1.370   1_655 S
C104   H110    1.083   .     S
C104   C14     1.370   1_655 S
H106   N121    1.040   .     S
H107   N122    1.040   .     S
H108   N122    1.042   .     S
H112   N119    1.045   .     S
H113   N119    1.045   .     S
H114   N120    1.045   .     S
H115   N120    1.046   .     S
H116   N121    1.042   .     S
N117   Zn131   2.027   .     S
N118   Zn132   2.027   .     S
O123   Zn131   1.998   .     S
O124   Zn132   1.998   .     S
O125   Zn131   2.003   .     S
O126   Zn132   2.003   .     S
O127   Zn131   1.944   .     S
O128   Zn132   1.944   .     S
O129   Zn131   1.952   .     S
O130   Zn132   1.952   .     S
C133   C136    1.421   .     S
C133   O170    1.292   .     A
C133   O167    1.289   .     A
C134   C136    1.399   .     A
C134   H155    1.083   .     S
C134   C235    1.370   1_455 S
C135   C141    1.421   .     S
C135   C147    1.396   .     A
C135   C148    1.399   .     A
C136   C146    1.396   .     A
C137   N162    1.360   .     A
C137   N163    1.431   .     S
C138   N164    1.431   .     S
C138   N161    1.360   .     A
C138   C271    1.424   .     S
C139   N165    1.429   .     S
C139   N162    1.384   .     A
C140   N166    1.429   .     S
C140   N161    1.384   .     A
C140   C269    1.424   .     S
C141   O168    1.289   .     A
C141   O169    1.292   .     A
C142   O174    1.285   .     A
C142   C144    1.366   .     S
C142   O171    1.281   .     A
C143   C145    1.366   .     S
C143   O173    1.285   .     A
C143   O172    1.281   .     A
C144   C937    1.165   1_554 S
C145   C540    1.165   .     S
C146   H149    1.084   .     S
C146   C236    1.370   1_455 S
C147   H153    1.084   .     S
C147   C178    1.370   .     S
C148   H154    1.083   .     S
C148   C190    1.370   .     S
H150   N165    1.040   .     S
H151   N166    1.040   .     S
H152   N166    1.042   .     S
H156   N163    1.045   .     S
H157   N163    1.045   .     S
H158   N164    1.045   .     S
H159   N164    1.046   .     S
H160   N165    1.042   .     S
N161   Zn175   2.027   .     S
N162   Zn176   2.027   .     S
O167   Zn175   1.998   .     S
O168   Zn176   1.998   .     S
O169   Zn175   2.003   .     S
O170   Zn176   2.003   .     S
O171   Zn175   1.944   .     S
O172   Zn176   1.944   .     S
O173   Zn175   1.952   .     S
O174   Zn176   1.952   .     S
C177   C180    1.421   .     S
C177   O214    1.292   .     A
C177   O211    1.289   .     A
C178   C180    1.399   .     A
C178   H199    1.083   .     S
C179   C185    1.421   .     S
C179   C191    1.396   .     A
C179   C192    1.399   .     A
C180   C190    1.396   .     A
C181   N206    1.360   .     A
C181   N207    1.431   .     S
C182   N208    1.431   .     S
C182   N205    1.360   .     A
C182   C315    1.424   .     S
C183   N209    1.429   .     S
C183   N206    1.384   .     A
C184   N210    1.429   .     S
C184   N205    1.384   .     A
C184   C313    1.424   .     S
C185   O212    1.289   .     A
C185   O213    1.292   .     A
C186   O218    1.285   .     A
C186   C188    1.366   .     S
C186   O215    1.281   .     A
C187   C189    1.366   .     S
C187   O217    1.285   .     A
C187   O216    1.281   .     A
C188   C981    1.165   1_554 S
C189   C584    1.165   .     S
C190   H193    1.084   .     S
C191   H197    1.084   .     S
C191   C222    1.370   .     S
C192   H198    1.083   .     S
C192   C234    1.370   .     S
H194   N209    1.040   .     S
H195   N210    1.040   .     S
H196   N210    1.042   .     S
H200   N207    1.045   .     S
H201   N207    1.045   .     S
H202   N208    1.045   .     S
H203   N208    1.046   .     S
H204   N209    1.042   .     S
N205   Zn219   2.027   .     S
N206   Zn220   2.027   .     S
O211   Zn219   1.998   .     S
O212   Zn220   1.998   .     S
O213   Zn219   2.003   .     S
O214   Zn220   2.003   .     S
O215   Zn219   1.944   .     S
O216   Zn220   1.944   .     S
O217   Zn219   1.952   .     S
O218   Zn220   1.952   .     S
C221   C224    1.421   .     S
C221   O258    1.292   .     A
C221   O255    1.289   .     A
C222   C224    1.399   .     A
C222   H243    1.083   .     S
C223   C229    1.421   .     S
C223   C235    1.396   .     A
C223   C236    1.399   .     A
C224   C234    1.396   .     A
C225   N250    1.360   .     A
C225   N251    1.431   .     S
C226   N252    1.431   .     S
C226   N249    1.360   .     A
C226   C359    1.424   .     S
C227   N253    1.429   .     S
C227   N250    1.384   .     A
C228   N254    1.429   .     S
C228   N249    1.384   .     A
C228   C357    1.424   .     S
C229   O256    1.289   .     A
C229   O257    1.292   .     A
C230   O262    1.285   .     A
C230   C232    1.366   .     S
C230   O259    1.281   .     A
C231   C233    1.366   .     S
C231   O261    1.285   .     A
C231   O260    1.281   .     A
C232   C1025   1.165   1_554 S
C233   C628    1.165   .     S
C234   H237    1.084   .     S
C235   H241    1.084   .     S
C235   C134    1.370   1_655 S
C236   H242    1.083   .     S
C236   C146    1.370   1_655 S
H238   N253    1.040   .     S
H239   N254    1.040   .     S
H240   N254    1.042   .     S
H244   N251    1.045   .     S
H245   N251    1.045   .     S
H246   N252    1.045   .     S
H247   N252    1.046   .     S
H248   N253    1.042   .     S
N249   Zn263   2.027   .     S
N250   Zn264   2.027   .     S
O255   Zn263   1.998   .     S
O256   Zn264   1.998   .     S
O257   Zn263   2.003   .     S
O258   Zn264   2.003   .     S
O259   Zn263   1.944   .     S
O260   Zn264   1.944   .     S
O261   Zn263   1.952   .     S
O262   Zn264   1.952   .     S
C265   C268    1.421   .     S
C265   O302    1.292   .     A
C265   O299    1.289   .     A
C266   C268    1.399   .     A
C266   H287    1.083   .     S
C266   C367    1.370   1_455 S
C267   C273    1.421   .     S
C267   C279    1.396   .     A
C267   C280    1.399   .     A
C268   C278    1.396   .     A
C269   N294    1.360   .     A
C269   N295    1.431   .     S
C270   N296    1.431   .     S
C270   N293    1.360   .     A
C270   C7      1.424   1_565 S
C271   N297    1.429   .     S
C271   N294    1.384   .     A
C272   N298    1.429   .     S
C272   N293    1.384   .     A
C272   C5      1.424   1_565 S
C273   O300    1.289   .     A
C273   O301    1.292   .     A
C274   O306    1.285   .     A
C274   C276    1.366   .     S
C274   O303    1.281   .     A
C275   C277    1.366   .     S
C275   O305    1.285   .     A
C275   O304    1.281   .     A
C276   C1069   1.165   1_554 S
C277   C672    1.165   .     S
C278   H281    1.084   .     S
C278   C368    1.370   1_455 S
C279   H285    1.084   .     S
C279   C310    1.370   .     S
C280   H286    1.083   .     S
C280   C322    1.370   .     S
H282   N297    1.040   .     S
H283   N298    1.040   .     S
H284   N298    1.042   .     S
H288   N295    1.045   .     S
H289   N295    1.045   .     S
H290   N296    1.045   .     S
H291   N296    1.046   .     S
H292   N297    1.042   .     S
N293   Zn307   2.027   .     S
N294   Zn308   2.027   .     S
O299   Zn307   1.998   .     S
O300   Zn308   1.998   .     S
O301   Zn307   2.003   .     S
O302   Zn308   2.003   .     S
O303   Zn307   1.944   .     S
O304   Zn308   1.944   .     S
O305   Zn307   1.952   .     S
O306   Zn308   1.952   .     S
C309   C312    1.421   .     S
C309   O346    1.292   .     A
C309   O343    1.289   .     A
C310   C312    1.399   .     A
C310   H331    1.083   .     S
C311   C317    1.421   .     S
C311   C323    1.396   .     A
C311   C324    1.399   .     A
C312   C322    1.396   .     A
C313   N338    1.360   .     A
C313   N339    1.431   .     S
C314   N340    1.431   .     S
C314   N337    1.360   .     A
C314   C51     1.424   1_565 S
C315   N341    1.429   .     S
C315   N338    1.384   .     A
C316   N342    1.429   .     S
C316   N337    1.384   .     A
C316   C49     1.424   1_565 S
C317   O344    1.289   .     A
C317   O345    1.292   .     A
C318   O350    1.285   .     A
C318   C320    1.366   .     S
C318   O347    1.281   .     A
C319   C321    1.366   .     S
C319   O349    1.285   .     A
C319   O348    1.281   .     A
C320   C1113   1.165   1_554 S
C321   C716    1.165   .     S
C322   H325    1.084   .     S
C323   H329    1.084   .     S
C323   C354    1.370   .     S
C324   H330    1.083   .     S
C324   C366    1.370   .     S
H326   N341    1.040   .     S
H327   N342    1.040   .     S
H328   N342    1.042   .     S
H332   N339    1.045   .     S
H333   N339    1.045   .     S
H334   N340    1.045   .     S
H335   N340    1.046   .     S
H336   N341    1.042   .     S
N337   Zn351   2.027   .     S
N338   Zn352   2.027   .     S
O343   Zn351   1.998   .     S
O344   Zn352   1.998   .     S
O345   Zn351   2.003   .     S
O346   Zn352   2.003   .     S
O347   Zn351   1.944   .     S
O348   Zn352   1.944   .     S
O349   Zn351   1.952   .     S
O350   Zn352   1.952   .     S
C353   C356    1.421   .     S
C353   O390    1.292   .     A
C353   O387    1.289   .     A
C354   C356    1.399   .     A
C354   H375    1.083   .     S
C355   C361    1.421   .     S
C355   C367    1.396   .     A
C355   C368    1.399   .     A
C356   C366    1.396   .     A
C357   N382    1.360   .     A
C357   N383    1.431   .     S
C358   N384    1.431   .     S
C358   N381    1.360   .     A
C358   C95     1.424   1_565 S
C359   N385    1.429   .     S
C359   N382    1.384   .     A
C360   N386    1.429   .     S
C360   N381    1.384   .     A
C360   C93     1.424   1_565 S
C361   O388    1.289   .     A
C361   O389    1.292   .     A
C362   O394    1.285   .     A
C362   C364    1.366   .     S
C362   O391    1.281   .     A
C363   C365    1.366   .     S
C363   O393    1.285   .     A
C363   O392    1.281   .     A
C364   C1157   1.165   1_554 S
C365   C760    1.165   .     S
C366   H369    1.084   .     S
C367   H373    1.084   .     S
C367   C266    1.370   1_655 S
C368   H374    1.083   .     S
C368   C278    1.370   1_655 S
H370   N385    1.040   .     S
H371   N386    1.040   .     S
H372   N386    1.042   .     S
H376   N383    1.045   .     S
H377   N383    1.045   .     S
H378   N384    1.045   .     S
H379   N384    1.046   .     S
H380   N385    1.042   .     S
N381   Zn395   2.027   .     S
N382   Zn396   2.027   .     S
O387   Zn395   1.998   .     S
O388   Zn396   1.998   .     S
O389   Zn395   2.003   .     S
O390   Zn396   2.003   .     S
O391   Zn395   1.944   .     S
O392   Zn396   1.944   .     S
O393   Zn395   1.952   .     S
O394   Zn396   1.952   .     S
C397   C400    1.421   .     S
C397   O434    1.292   .     A
C397   O431    1.289   .     A
C398   C400    1.399   .     A
C398   H419    1.083   .     S
C398   C499    1.370   1_455 S
C399   C405    1.421   .     S
C399   C411    1.396   .     A
C399   C412    1.399   .     A
C400   C410    1.396   .     A
C401   N426    1.360   .     A
C401   N427    1.431   .     S
C401   C668    1.424   1_545 S
C402   N428    1.431   .     S
C402   N425    1.360   .     A
C402   C535    1.424   .     S
C403   N429    1.429   .     S
C403   N426    1.384   .     A
C403   C666    1.424   1_545 S
C404   N430    1.429   .     S
C404   N425    1.384   .     A
C404   C533    1.424   .     S
C405   O432    1.289   .     A
C405   O433    1.292   .     A
C406   O438    1.285   .     A
C406   C408    1.366   .     S
C406   O435    1.281   .     A
C407   C409    1.366   .     S
C407   O437    1.285   .     A
C407   O436    1.281   .     A
C409   C804    1.165   .     S
C410   H413    1.084   .     S
C410   C500    1.370   1_455 S
C411   H417    1.084   .     S
C411   C442    1.370   .     S
C412   H418    1.083   .     S
C412   C454    1.370   .     S
H414   N429    1.040   .     S
H415   N430    1.040   .     S
H416   N430    1.042   .     S
H420   N427    1.045   .     S
H421   N427    1.045   .     S
H422   N428    1.045   .     S
H423   N428    1.046   .     S
H424   N429    1.042   .     S
N425   Zn439   2.027   .     S
N426   Zn440   2.027   .     S
O431   Zn439   1.998   .     S
O432   Zn440   1.998   .     S
O433   Zn439   2.003   .     S
O434   Zn440   2.003   .     S
O435   Zn439   1.944   .     S
O436   Zn440   1.944   .     S
O437   Zn439   1.952   .     S
O438   Zn440   1.952   .     S
C441   C444    1.421   .     S
C441   O478    1.292   .     A
C441   O475    1.289   .     A
C442   C444    1.399   .     A
C442   H463    1.083   .     S
C443   C449    1.421   .     S
C443   C455    1.396   .     A
C443   C456    1.399   .     A
C444   C454    1.396   .     A
C445   N470    1.360   .     A
C445   N471    1.431   .     S
C445   C712    1.424   1_545 S
C446   N472    1.431   .     S
C446   N469    1.360   .     A
C446   C579    1.424   .     S
C447   N473    1.429   .     S
C447   N470    1.384   .     A
C447   C710    1.424   1_545 S
C448   N474    1.429   .     S
C448   N469    1.384   .     A
C448   C577    1.424   .     S
C449   O476    1.289   .     A
C449   O477    1.292   .     A
C450   O482    1.285   .     A
C450   C452    1.366   .     S
C450   O479    1.281   .     A
C451   C453    1.366   .     S
C451   O481    1.285   .     A
C451   O480    1.281   .     A
C453   C848    1.165   .     S
C454   H457    1.084   .     S
C455   H461    1.084   .     S
C455   C486    1.370   .     S
C456   H462    1.083   .     S
C456   C498    1.370   .     S
H458   N473    1.040   .     S
H459   N474    1.040   .     S
H460   N474    1.042   .     S
H464   N471    1.045   .     S
H465   N471    1.045   .     S
H466   N472    1.045   .     S
H467   N472    1.046   .     S
H468   N473    1.042   .     S
N469   Zn483   2.027   .     S
N470   Zn484   2.027   .     S
O475   Zn483   1.998   .     S
O476   Zn484   1.998   .     S
O477   Zn483   2.003   .     S
O478   Zn484   2.003   .     S
O479   Zn483   1.944   .     S
O480   Zn484   1.944   .     S
O481   Zn483   1.952   .     S
O482   Zn484   1.952   .     S
C485   C488    1.421   .     S
C485   O522    1.292   .     A
C485   O519    1.289   .     A
C486   C488    1.399   .     A
C486   H507    1.083   .     S
C487   C493    1.421   .     S
C487   C499    1.396   .     A
C487   C500    1.399   .     A
C488   C498    1.396   .     A
C489   N514    1.360   .     A
C489   N515    1.431   .     S
C489   C756    1.424   1_545 S
C490   N516    1.431   .     S
C490   N513    1.360   .     A
C490   C623    1.424   .     S
C491   N517    1.429   .     S
C491   N514    1.384   .     A
C491   C754    1.424   1_545 S
C492   N518    1.429   .     S
C492   N513    1.384   .     A
C492   C621    1.424   .     S
C493   O520    1.289   .     A
C493   O521    1.292   .     A
C494   O526    1.285   .     A
C494   C496    1.366   .     S
C494   O523    1.281   .     A
C495   C497    1.366   .     S
C495   O525    1.285   .     A
C495   O524    1.281   .     A
C497   C892    1.165   .     S
C498   H501    1.084   .     S
C499   H505    1.084   .     S
C499   C398    1.370   1_655 S
C500   H506    1.083   .     S
C500   C410    1.370   1_655 S
H502   N517    1.040   .     S
H503   N518    1.040   .     S
H504   N518    1.042   .     S
H508   N515    1.045   .     S
H509   N515    1.045   .     S
H510   N516    1.045   .     S
H511   N516    1.046   .     S
H512   N517    1.042   .     S
N513   Zn527   2.027   .     S
N514   Zn528   2.027   .     S
O519   Zn527   1.998   .     S
O520   Zn528   1.998   .     S
O521   Zn527   2.003   .     S
O522   Zn528   2.003   .     S
O523   Zn527   1.944   .     S
O524   Zn528   1.944   .     S
O525   Zn527   1.952   .     S
O526   Zn528   1.952   .     S
C529   C532    1.421   .     S
C529   O566    1.292   .     A
C529   O563    1.289   .     A
C530   C532    1.399   .     A
C530   H551    1.083   .     S
C530   C631    1.370   1_455 S
C531   C537    1.421   .     S
C531   C543    1.396   .     A
C531   C544    1.399   .     A
C532   C542    1.396   .     A
C533   N558    1.360   .     A
C533   N559    1.431   .     S
C534   N560    1.431   .     S
C534   N557    1.360   .     A
C534   C667    1.424   .     S
C535   N561    1.429   .     S
C535   N558    1.384   .     A
C536   N562    1.429   .     S
C536   N557    1.384   .     A
C536   C665    1.424   .     S
C537   O564    1.289   .     A
C537   O565    1.292   .     A
C538   O570    1.285   .     A
C538   C540    1.366   .     S
C538   O567    1.281   .     A
C539   C541    1.366   .     S
C539   O569    1.285   .     A
C539   O568    1.281   .     A
C541   C936    1.165   .     S
C542   H545    1.084   .     S
C542   C632    1.370   1_455 S
C543   H549    1.084   .     S
C543   C574    1.370   .     S
C544   H550    1.083   .     S
C544   C586    1.370   .     S
H546   N561    1.040   .     S
H547   N562    1.040   .     S
H548   N562    1.042   .     S
H552   N559    1.045   .     S
H553   N559    1.045   .     S
H554   N560    1.045   .     S
H555   N560    1.046   .     S
H556   N561    1.042   .     S
N557   Zn571   2.027   .     S
N558   Zn572   2.027   .     S
O563   Zn571   1.998   .     S
O564   Zn572   1.998   .     S
O565   Zn571   2.003   .     S
O566   Zn572   2.003   .     S
O567   Zn571   1.944   .     S
O568   Zn572   1.944   .     S
O569   Zn571   1.952   .     S
O570   Zn572   1.952   .     S
C573   C576    1.421   .     S
C573   O610    1.292   .     A
C573   O607    1.289   .     A
C574   C576    1.399   .     A
C574   H595    1.083   .     S
C575   C581    1.421   .     S
C575   C587    1.396   .     A
C575   C588    1.399   .     A
C576   C586    1.396   .     A
C577   N602    1.360   .     A
C577   N603    1.431   .     S
C578   N604    1.431   .     S
C578   N601    1.360   .     A
C578   C711    1.424   .     S
C579   N605    1.429   .     S
C579   N602    1.384   .     A
C580   N606    1.429   .     S
C580   N601    1.384   .     A
C580   C709    1.424   .     S
C581   O608    1.289   .     A
C581   O609    1.292   .     A
C582   O614    1.285   .     A
C582   C584    1.366   .     S
C582   O611    1.281   .     A
C583   C585    1.366   .     S
C583   O613    1.285   .     A
C583   O612    1.281   .     A
C585   C980    1.165   .     S
C586   H589    1.084   .     S
C587   H593    1.084   .     S
C587   C618    1.370   .     S
C588   H594    1.083   .     S
C588   C630    1.370   .     S
H590   N605    1.040   .     S
H591   N606    1.040   .     S
H592   N606    1.042   .     S
H596   N603    1.045   .     S
H597   N603    1.045   .     S
H598   N604    1.045   .     S
H599   N604    1.046   .     S
H600   N605    1.042   .     S
N601   Zn615   2.027   .     S
N602   Zn616   2.027   .     S
O607   Zn615   1.998   .     S
O608   Zn616   1.998   .     S
O609   Zn615   2.003   .     S
O610   Zn616   2.003   .     S
O611   Zn615   1.944   .     S
O612   Zn616   1.944   .     S
O613   Zn615   1.952   .     S
O614   Zn616   1.952   .     S
C617   C620    1.421   .     S
C617   O654    1.292   .     A
C617   O651    1.289   .     A
C618   C620    1.399   .     A
C618   H639    1.083   .     S
C619   C625    1.421   .     S
C619   C631    1.396   .     A
C619   C632    1.399   .     A
C620   C630    1.396   .     A
C621   N646    1.360   .     A
C621   N647    1.431   .     S
C622   N648    1.431   .     S
C622   N645    1.360   .     A
C622   C755    1.424   .     S
C623   N649    1.429   .     S
C623   N646    1.384   .     A
C624   N650    1.429   .     S
C624   N645    1.384   .     A
C624   C753    1.424   .     S
C625   O652    1.289   .     A
C625   O653    1.292   .     A
C626   O658    1.285   .     A
C626   C628    1.366   .     S
C626   O655    1.281   .     A
C627   C629    1.366   .     S
C627   O657    1.285   .     A
C627   O656    1.281   .     A
C629   C1024   1.165   .     S
C630   H633    1.084   .     S
C631   H637    1.084   .     S
C631   C530    1.370   1_655 S
C632   H638    1.083   .     S
C632   C542    1.370   1_655 S
H634   N649    1.040   .     S
H635   N650    1.040   .     S
H636   N650    1.042   .     S
H640   N647    1.045   .     S
H641   N647    1.045   .     S
H642   N648    1.045   .     S
H643   N648    1.046   .     S
H644   N649    1.042   .     S
N645   Zn659   2.027   .     S
N646   Zn660   2.027   .     S
O651   Zn659   1.998   .     S
O652   Zn660   1.998   .     S
O653   Zn659   2.003   .     S
O654   Zn660   2.003   .     S
O655   Zn659   1.944   .     S
O656   Zn660   1.944   .     S
O657   Zn659   1.952   .     S
O658   Zn660   1.952   .     S
C661   C664    1.421   .     S
C661   O698    1.292   .     A
C661   O695    1.289   .     A
C662   C664    1.399   .     A
C662   H683    1.083   .     S
C662   C763    1.370   1_455 S
C663   C669    1.421   .     S
C663   C675    1.396   .     A
C663   C676    1.399   .     A
C664   C674    1.396   .     A
C665   N690    1.360   .     A
C665   N691    1.431   .     S
C666   N692    1.431   .     S
C666   N689    1.360   .     A
C666   C403    1.424   1_565 S
C667   N693    1.429   .     S
C667   N690    1.384   .     A
C668   N694    1.429   .     S
C668   N689    1.384   .     A
C668   C401    1.424   1_565 S
C669   O696    1.289   .     A
C669   O697    1.292   .     A
C670   O702    1.285   .     A
C670   C672    1.366   .     S
C670   O699    1.281   .     A
C671   C673    1.366   .     S
C671   O701    1.285   .     A
C671   O700    1.281   .     A
C673   C1068   1.165   .     S
C674   H677    1.084   .     S
C674   C764    1.370   1_455 S
C675   H681    1.084   .     S
C675   C706    1.370   .     S
C676   H682    1.083   .     S
C676   C718    1.370   .     S
H678   N693    1.040   .     S
H679   N694    1.040   .     S
H680   N694    1.042   .     S
H684   N691    1.045   .     S
H685   N691    1.045   .     S
H686   N692    1.045   .     S
H687   N692    1.046   .     S
H688   N693    1.042   .     S
N689   Zn703   2.027   .     S
N690   Zn704   2.027   .     S
O695   Zn703   1.998   .     S
O696   Zn704   1.998   .     S
O697   Zn703   2.003   .     S
O698   Zn704   2.003   .     S
O699   Zn703   1.944   .     S
O700   Zn704   1.944   .     S
O701   Zn703   1.952   .     S
O702   Zn704   1.952   .     S
C705   C708    1.421   .     S
C705   O742    1.292   .     A
C705   O739    1.289   .     A
C706   C708    1.399   .     A
C706   H727    1.083   .     S
C707   C713    1.421   .     S
C707   C719    1.396   .     A
C707   C720    1.399   .     A
C708   C718    1.396   .     A
C709   N734    1.360   .     A
C709   N735    1.431   .     S
C710   N736    1.431   .     S
C710   N733    1.360   .     A
C710   C447    1.424   1_565 S
C711   N737    1.429   .     S
C711   N734    1.384   .     A
C712   N738    1.429   .     S
C712   N733    1.384   .     A
C712   C445    1.424   1_565 S
C713   O740    1.289   .     A
C713   O741    1.292   .     A
C714   O746    1.285   .     A
C714   C716    1.366   .     S
C714   O743    1.281   .     A
C715   C717    1.366   .     S
C715   O745    1.285   .     A
C715   O744    1.281   .     A
C717   C1112   1.165   .     S
C718   H721    1.084   .     S
C719   H725    1.084   .     S
C719   C750    1.370   .     S
C720   H726    1.083   .     S
C720   C762    1.370   .     S
H722   N737    1.040   .     S
H723   N738    1.040   .     S
H724   N738    1.042   .     S
H728   N735    1.045   .     S
H729   N735    1.045   .     S
H730   N736    1.045   .     S
H731   N736    1.046   .     S
H732   N737    1.042   .     S
N733   Zn747   2.027   .     S
N734   Zn748   2.027   .     S
O739   Zn747   1.998   .     S
O740   Zn748   1.998   .     S
O741   Zn747   2.003   .     S
O742   Zn748   2.003   .     S
O743   Zn747   1.944   .     S
O744   Zn748   1.944   .     S
O745   Zn747   1.952   .     S
O746   Zn748   1.952   .     S
C749   C752    1.421   .     S
C749   O786    1.292   .     A
C749   O783    1.289   .     A
C750   C752    1.399   .     A
C750   H771    1.083   .     S
C751   C757    1.421   .     S
C751   C763    1.396   .     A
C751   C764    1.399   .     A
C752   C762    1.396   .     A
C753   N778    1.360   .     A
C753   N779    1.431   .     S
C754   N780    1.431   .     S
C754   N777    1.360   .     A
C754   C491    1.424   1_565 S
C755   N781    1.429   .     S
C755   N778    1.384   .     A
C756   N782    1.429   .     S
C756   N777    1.384   .     A
C756   C489    1.424   1_565 S
C757   O784    1.289   .     A
C757   O785    1.292   .     A
C758   O790    1.285   .     A
C758   C760    1.366   .     S
C758   O787    1.281   .     A
C759   C761    1.366   .     S
C759   O789    1.285   .     A
C759   O788    1.281   .     A
C761   C1156   1.165   .     S
C762   H765    1.084   .     S
C763   H769    1.084   .     S
C763   C662    1.370   1_655 S
C764   H770    1.083   .     S
C764   C674    1.370   1_655 S
H766   N781    1.040   .     S
H767   N782    1.040   .     S
H768   N782    1.042   .     S
H772   N779    1.045   .     S
H773   N779    1.045   .     S
H774   N780    1.045   .     S
H775   N780    1.046   .     S
H776   N781    1.042   .     S
N777   Zn791   2.027   .     S
N778   Zn792   2.027   .     S
O783   Zn791   1.998   .     S
O784   Zn792   1.998   .     S
O785   Zn791   2.003   .     S
O786   Zn792   2.003   .     S
O787   Zn791   1.944   .     S
O788   Zn792   1.944   .     S
O789   Zn791   1.952   .     S
O790   Zn792   1.952   .     S
C793   C796    1.421   .     S
C793   O830    1.292   .     A
C793   O827    1.289   .     A
C794   C796    1.399   .     A
C794   H815    1.083   .     S
C794   C895    1.370   1_455 S
C795   C801    1.421   .     S
C795   C807    1.396   .     A
C795   C808    1.399   .     A
C796   C806    1.396   .     A
C797   N822    1.360   .     A
C797   N823    1.431   .     S
C797   C1064   1.424   1_545 S
C798   N824    1.431   .     S
C798   N821    1.360   .     A
C798   C931    1.424   .     S
C799   N825    1.429   .     S
C799   N822    1.384   .     A
C799   C1062   1.424   1_545 S
C800   N826    1.429   .     S
C800   N821    1.384   .     A
C800   C929    1.424   .     S
C801   O828    1.289   .     A
C801   O829    1.292   .     A
C802   O834    1.285   .     A
C802   C804    1.366   .     S
C802   O831    1.281   .     A
C803   C805    1.366   .     S
C803   O833    1.285   .     A
C803   O832    1.281   .     A
C805   C12     1.165   1_556 S
C806   H809    1.084   .     S
C806   C896    1.370   1_455 S
C807   H813    1.084   .     S
C807   C838    1.370   .     S
C808   H814    1.083   .     S
C808   C850    1.370   .     S
H810   N825    1.040   .     S
H811   N826    1.040   .     S
H812   N826    1.042   .     S
H816   N823    1.045   .     S
H817   N823    1.045   .     S
H818   N824    1.045   .     S
H819   N824    1.046   .     S
H820   N825    1.042   .     S
N821   Zn835   2.027   .     S
N822   Zn836   2.027   .     S
O827   Zn835   1.998   .     S
O828   Zn836   1.998   .     S
O829   Zn835   2.003   .     S
O830   Zn836   2.003   .     S
O831   Zn835   1.944   .     S
O832   Zn836   1.944   .     S
O833   Zn835   1.952   .     S
O834   Zn836   1.952   .     S
C837   C840    1.421   .     S
C837   O874    1.292   .     A
C837   O871    1.289   .     A
C838   C840    1.399   .     A
C838   H859    1.083   .     S
C839   C845    1.421   .     S
C839   C851    1.396   .     A
C839   C852    1.399   .     A
C840   C850    1.396   .     A
C841   N866    1.360   .     A
C841   N867    1.431   .     S
C841   C1108   1.424   1_545 S
C842   N868    1.431   .     S
C842   N865    1.360   .     A
C842   C975    1.424   .     S
C843   N869    1.429   .     S
C843   N866    1.384   .     A
C843   C1106   1.424   1_545 S
C844   N870    1.429   .     S
C844   N865    1.384   .     A
C844   C973    1.424   .     S
C845   O872    1.289   .     A
C845   O873    1.292   .     A
C846   O878    1.285   .     A
C846   C848    1.366   .     S
C846   O875    1.281   .     A
C847   C849    1.366   .     S
C847   O877    1.285   .     A
C847   O876    1.281   .     A
C849   C56     1.165   1_556 S
C850   H853    1.084   .     S
C851   H857    1.084   .     S
C851   C882    1.370   .     S
C852   H858    1.083   .     S
C852   C894    1.370   .     S
H854   N869    1.040   .     S
H855   N870    1.040   .     S
H856   N870    1.042   .     S
H860   N867    1.045   .     S
H861   N867    1.045   .     S
H862   N868    1.045   .     S
H863   N868    1.046   .     S
H864   N869    1.042   .     S
N865   Zn879   2.027   .     S
N866   Zn880   2.027   .     S
O871   Zn879   1.998   .     S
O872   Zn880   1.998   .     S
O873   Zn879   2.003   .     S
O874   Zn880   2.003   .     S
O875   Zn879   1.944   .     S
O876   Zn880   1.944   .     S
O877   Zn879   1.952   .     S
O878   Zn880   1.952   .     S
C881   C884    1.421   .     S
C881   O918    1.292   .     A
C881   O915    1.289   .     A
C882   C884    1.399   .     A
C882   H903    1.083   .     S
C883   C889    1.421   .     S
C883   C895    1.396   .     A
C883   C896    1.399   .     A
C884   C894    1.396   .     A
C885   N910    1.360   .     A
C885   N911    1.431   .     S
C885   C1152   1.424   1_545 S
C886   N912    1.431   .     S
C886   N909    1.360   .     A
C886   C1019   1.424   .     S
C887   N913    1.429   .     S
C887   N910    1.384   .     A
C887   C1150   1.424   1_545 S
C888   N914    1.429   .     S
C888   N909    1.384   .     A
C888   C1017   1.424   .     S
C889   O916    1.289   .     A
C889   O917    1.292   .     A
C890   O922    1.285   .     A
C890   C892    1.366   .     S
C890   O919    1.281   .     A
C891   C893    1.366   .     S
C891   O921    1.285   .     A
C891   O920    1.281   .     A
C893   C100    1.165   1_556 S
C894   H897    1.084   .     S
C895   H901    1.084   .     S
C895   C794    1.370   1_655 S
C896   H902    1.083   .     S
C896   C806    1.370   1_655 S
H898   N913    1.040   .     S
H899   N914    1.040   .     S
H900   N914    1.042   .     S
H904   N911    1.045   .     S
H905   N911    1.045   .     S
H906   N912    1.045   .     S
H907   N912    1.046   .     S
H908   N913    1.042   .     S
N909   Zn923   2.027   .     S
N910   Zn924   2.027   .     S
O915   Zn923   1.998   .     S
O916   Zn924   1.998   .     S
O917   Zn923   2.003   .     S
O918   Zn924   2.003   .     S
O919   Zn923   1.944   .     S
O920   Zn924   1.944   .     S
O921   Zn923   1.952   .     S
O922   Zn924   1.952   .     S
C925   C928    1.421   .     S
C925   O962    1.292   .     A
C925   O959    1.289   .     A
C926   C928    1.399   .     A
C926   H947    1.083   .     S
C926   C1027   1.370   1_455 S
C927   C933    1.421   .     S
C927   C939    1.396   .     A
C927   C940    1.399   .     A
C928   C938    1.396   .     A
C929   N954    1.360   .     A
C929   N955    1.431   .     S
C930   N956    1.431   .     S
C930   N953    1.360   .     A
C930   C1063   1.424   .     S
C931   N957    1.429   .     S
C931   N954    1.384   .     A
C932   N958    1.429   .     S
C932   N953    1.384   .     A
C932   C1061   1.424   .     S
C933   O960    1.289   .     A
C933   O961    1.292   .     A
C934   O966    1.285   .     A
C934   C936    1.366   .     S
C934   O963    1.281   .     A
C935   C937    1.366   .     S
C935   O965    1.285   .     A
C935   O964    1.281   .     A
C937   C144    1.165   1_556 S
C938   H941    1.084   .     S
C938   C1028   1.370   1_455 S
C939   H945    1.084   .     S
C939   C970    1.370   .     S
C940   H946    1.083   .     S
C940   C982    1.370   .     S
H942   N957    1.040   .     S
H943   N958    1.040   .     S
H944   N958    1.042   .     S
H948   N955    1.045   .     S
H949   N955    1.045   .     S
H950   N956    1.045   .     S
H951   N956    1.046   .     S
H952   N957    1.042   .     S
N953   Zn967   2.027   .     S
N954   Zn968   2.027   .     S
O959   Zn967   1.998   .     S
O960   Zn968   1.998   .     S
O961   Zn967   2.003   .     S
O962   Zn968   2.003   .     S
O963   Zn967   1.944   .     S
O964   Zn968   1.944   .     S
O965   Zn967   1.952   .     S
O966   Zn968   1.952   .     S
C969   C972    1.421   .     S
C969   O1006   1.292   .     A
C969   O1003   1.289   .     A
C970   C972    1.399   .     A
C970   H991    1.083   .     S
C971   C977    1.421   .     S
C971   C983    1.396   .     A
C971   C984    1.399   .     A
C972   C982    1.396   .     A
C973   N998    1.360   .     A
C973   N999    1.431   .     S
C974   N1000   1.431   .     S
C974   N997    1.360   .     A
C974   C1107   1.424   .     S
C975   N1001   1.429   .     S
C975   N998    1.384   .     A
C976   N1002   1.429   .     S
C976   N997    1.384   .     A
C976   C1105   1.424   .     S
C977   O1004   1.289   .     A
C977   O1005   1.292   .     A
C978   O1010   1.285   .     A
C978   C980    1.366   .     S
C978   O1007   1.281   .     A
C979   C981    1.366   .     S
C979   O1009   1.285   .     A
C979   O1008   1.281   .     A
C981   C188    1.165   1_556 S
C982   H985    1.084   .     S
C983   H989    1.084   .     S
C983   C1014   1.370   .     S
C984   H990    1.083   .     S
C984   C1026   1.370   .     S
H986   N1001   1.040   .     S
H987   N1002   1.040   .     S
H988   N1002   1.042   .     S
H992   N999    1.045   .     S
H993   N999    1.045   .     S
H994   N1000   1.045   .     S
H995   N1000   1.046   .     S
H996   N1001   1.042   .     S
N997   Zn1011  2.027   .     S
N998   Zn1012  2.027   .     S
O1003  Zn1011  1.998   .     S
O1004  Zn1012  1.998   .     S
O1005  Zn1011  2.003   .     S
O1006  Zn1012  2.003   .     S
O1007  Zn1011  1.944   .     S
O1008  Zn1012  1.944   .     S
O1009  Zn1011  1.952   .     S
O1010  Zn1012  1.952   .     S
C1013  C1016   1.421   .     S
C1013  O1050   1.292   .     A
C1013  O1047   1.289   .     A
C1014  C1016   1.399   .     A
C1014  H1035   1.083   .     S
C1015  C1021   1.421   .     S
C1015  C1027   1.396   .     A
C1015  C1028   1.399   .     A
C1016  C1026   1.396   .     A
C1017  N1042   1.360   .     A
C1017  N1043   1.431   .     S
C1018  N1044   1.431   .     S
C1018  N1041   1.360   .     A
C1018  C1151   1.424   .     S
C1019  N1045   1.429   .     S
C1019  N1042   1.384   .     A
C1020  N1046   1.429   .     S
C1020  N1041   1.384   .     A
C1020  C1149   1.424   .     S
C1021  O1048   1.289   .     A
C1021  O1049   1.292   .     A
C1022  O1054   1.285   .     A
C1022  C1024   1.366   .     S
C1022  O1051   1.281   .     A
C1023  C1025   1.366   .     S
C1023  O1053   1.285   .     A
C1023  O1052   1.281   .     A
C1025  C232    1.165   1_556 S
C1026  H1029   1.084   .     S
C1027  H1033   1.084   .     S
C1027  C926    1.370   1_655 S
C1028  H1034   1.083   .     S
C1028  C938    1.370   1_655 S
H1030  N1045   1.040   .     S
H1031  N1046   1.040   .     S
H1032  N1046   1.042   .     S
H1036  N1043   1.045   .     S
H1037  N1043   1.045   .     S
H1038  N1044   1.045   .     S
H1039  N1044   1.046   .     S
H1040  N1045   1.042   .     S
N1041  Zn1055  2.027   .     S
N1042  Zn1056  2.027   .     S
O1047  Zn1055  1.998   .     S
O1048  Zn1056  1.998   .     S
O1049  Zn1055  2.003   .     S
O1050  Zn1056  2.003   .     S
O1051  Zn1055  1.944   .     S
O1052  Zn1056  1.944   .     S
O1053  Zn1055  1.952   .     S
O1054  Zn1056  1.952   .     S
C1057  C1060   1.421   .     S
C1057  O1094   1.292   .     A
C1057  O1091   1.289   .     A
C1058  C1060   1.399   .     A
C1058  H1079   1.083   .     S
C1058  C1159   1.370   1_455 S
C1059  C1065   1.421   .     S
C1059  C1071   1.396   .     A
C1059  C1072   1.399   .     A
C1060  C1070   1.396   .     A
C1061  N1086   1.360   .     A
C1061  N1087   1.431   .     S
C1062  N1088   1.431   .     S
C1062  N1085   1.360   .     A
C1062  C799    1.424   1_565 S
C1063  N1089   1.429   .     S
C1063  N1086   1.384   .     A
C1064  N1090   1.429   .     S
C1064  N1085   1.384   .     A
C1064  C797    1.424   1_565 S
C1065  O1092   1.289   .     A
C1065  O1093   1.292   .     A
C1066  O1098   1.285   .     A
C1066  C1068   1.366   .     S
C1066  O1095   1.281   .     A
C1067  C1069   1.366   .     S
C1067  O1097   1.285   .     A
C1067  O1096   1.281   .     A
C1069  C276    1.165   1_556 S
C1070  H1073   1.084   .     S
C1070  C1160   1.370   1_455 S
C1071  H1077   1.084   .     S
C1071  C1102   1.370   .     S
C1072  H1078   1.083   .     S
C1072  C1114   1.370   .     S
H1074  N1089   1.040   .     S
H1075  N1090   1.040   .     S
H1076  N1090   1.042   .     S
H1080  N1087   1.045   .     S
H1081  N1087   1.045   .     S
H1082  N1088   1.045   .     S
H1083  N1088   1.046   .     S
H1084  N1089   1.042   .     S
N1085  Zn1099  2.027   .     S
N1086  Zn1100  2.027   .     S
O1091  Zn1099  1.998   .     S
O1092  Zn1100  1.998   .     S
O1093  Zn1099  2.003   .     S
O1094  Zn1100  2.003   .     S
O1095  Zn1099  1.944   .     S
O1096  Zn1100  1.944   .     S
O1097  Zn1099  1.952   .     S
O1098  Zn1100  1.952   .     S
C1101  C1104   1.421   .     S
C1101  O1138   1.292   .     A
C1101  O1135   1.289   .     A
C1102  C1104   1.399   .     A
C1102  H1123   1.083   .     S
C1103  C1109   1.421   .     S
C1103  C1115   1.396   .     A
C1103  C1116   1.399   .     A
C1104  C1114   1.396   .     A
C1105  N1130   1.360   .     A
C1105  N1131   1.431   .     S
C1106  N1132   1.431   .     S
C1106  N1129   1.360   .     A
C1106  C843    1.424   1_565 S
C1107  N1133   1.429   .     S
C1107  N1130   1.384   .     A
C1108  N1134   1.429   .     S
C1108  N1129   1.384   .     A
C1108  C841    1.424   1_565 S
C1109  O1136   1.289   .     A
C1109  O1137   1.292   .     A
C1110  O1142   1.285   .     A
C1110  C1112   1.366   .     S
C1110  O1139   1.281   .     A
C1111  C1113   1.366   .     S
C1111  O1141   1.285   .     A
C1111  O1140   1.281   .     A
C1113  C320    1.165   1_556 S
C1114  H1117   1.084   .     S
C1115  H1121   1.084   .     S
C1115  C1146   1.370   .     S
C1116  H1122   1.083   .     S
C1116  C1158   1.370   .     S
H1118  N1133   1.040   .     S
H1119  N1134   1.040   .     S
H1120  N1134   1.042   .     S
H1124  N1131   1.045   .     S
H1125  N1131   1.045   .     S
H1126  N1132   1.045   .     S
H1127  N1132   1.046   .     S
H1128  N1133   1.042   .     S
N1129  Zn1143  2.027   .     S
N1130  Zn1144  2.027   .     S
O1135  Zn1143  1.998   .     S
O1136  Zn1144  1.998   .     S
O1137  Zn1143  2.003   .     S
O1138  Zn1144  2.003   .     S
O1139  Zn1143  1.944   .     S
O1140  Zn1144  1.944   .     S
O1141  Zn1143  1.952   .     S
O1142  Zn1144  1.952   .     S
C1145  C1148   1.421   .     S
C1145  O1182   1.292   .     A
C1145  O1179   1.289   .     A
C1146  C1148   1.399   .     A
C1146  H1167   1.083   .     S
C1147  C1153   1.421   .     S
C1147  C1159   1.396   .     A
C1147  C1160   1.399   .     A
C1148  C1158   1.396   .     A
C1149  N1174   1.360   .     A
C1149  N1175   1.431   .     S
C1150  N1176   1.431   .     S
C1150  N1173   1.360   .     A
C1150  C887    1.424   1_565 S
C1151  N1177   1.429   .     S
C1151  N1174   1.384   .     A
C1152  N1178   1.429   .     S
C1152  N1173   1.384   .     A
C1152  C885    1.424   1_565 S
C1153  O1180   1.289   .     A
C1153  O1181   1.292   .     A
C1154  O1186   1.285   .     A
C1154  C1156   1.366   .     S
C1154  O1183   1.281   .     A
C1155  C1157   1.366   .     S
C1155  O1185   1.285   .     A
C1155  O1184   1.281   .     A
C1157  C364    1.165   1_556 S
C1158  H1161   1.084   .     S
C1159  H1165   1.084   .     S
C1159  C1058   1.370   1_655 S
C1160  H1166   1.083   .     S
C1160  C1070   1.370   1_655 S
H1162  N1177   1.040   .     S
H1163  N1178   1.040   .     S
H1164  N1178   1.042   .     S
H1168  N1175   1.045   .     S
H1169  N1175   1.045   .     S
H1170  N1176   1.045   .     S
H1171  N1176   1.046   .     S
H1172  N1177   1.042   .     S
N1173  Zn1187  2.027   .     S
N1174  Zn1188  2.027   .     S
O1179  Zn1187  1.998   .     S
O1180  Zn1188  1.998   .     S
O1181  Zn1187  2.003   .     S
O1182  Zn1188  2.003   .     S
O1183  Zn1187  1.944   .     S
O1184  Zn1188  1.944   .     S
O1185  Zn1187  1.952   .     S
O1186  Zn1188  1.952   .     S
