data_str_m3_o10_o18_pcu_sym.42
_audit_creation_date              2020-01-03
_audit_creation_method            'Materials Studio'
_symmetry_space_group_name_H-M    'P1'
_symmetry_Int_Tables_number       1
_symmetry_cell_setting            triclinic
loop_
_symmetry_equiv_pos_as_xyz
  x,y,z
_cell_length_a                    23.6554
_cell_length_b                    25.4150
_cell_length_c                    27.7163
_cell_angle_alpha                 93.9427
_cell_angle_beta                  93.5587
_cell_angle_gamma                 93.9008
loop_
_atom_site_label
_atom_site_type_symbol
_atom_site_fract_x
_atom_site_fract_y
_atom_site_fract_z
_atom_site_U_iso_or_equiv
_atom_site_adp_type
_atom_site_occupancy
C1     C     0.01601   0.26542   0.25253   0.00000  Uiso   1.00
C2     C     0.31208   0.16299   0.15923   0.00000  Uiso   1.00
C3     C     0.03010   0.17222   0.39334   0.00000  Uiso   1.00
C4     C     0.29984   0.15386   0.10742   0.00000  Uiso   1.00
C5     C     0.01168   0.21022   0.47250   0.00000  Uiso   1.00
C6     C     0.30651   0.09810   0.03453   0.00000  Uiso   1.00
C7     C     0.32876   0.20024   0.42346   0.00000  Uiso   1.00
C8     C     0.32868   0.11725   0.08042   0.00000  Uiso   1.00
C9     C     0.07745   0.14988   0.41289   0.00000  Uiso   1.00
C10    C     0.25101   0.17368   0.08770   0.00000  Uiso   1.00
C11    C     0.09531   0.16001   0.46186   0.00000  Uiso   1.00
C12    C     0.31959   0.06845   0.25527   0.00000  Uiso   1.00
C13    C     0.22468   0.15121   0.04393   0.00000  Uiso   1.00
C14    C     0.06275   0.19243   0.49137   0.00000  Uiso   1.00
C15    C     0.25393   0.11370   0.01669   0.00000  Uiso   1.00
C16    C     0.14718   0.14263   0.48092   0.00000  Uiso   1.00
C17    C     0.16960   0.16374   0.02737   0.00000  Uiso   1.00
C18    C     0.08914   0.00778   0.27579   0.00000  Uiso   1.00
C19    C     0.29309   0.01382   0.32215   0.00000  Uiso   1.00
C20    C     0.13272   0.09960   0.16809   0.00000  Uiso   1.00
C21    C     0.16166   0.05874   0.13672   0.00000  Uiso   1.00
C22    C     0.12546   0.03862   0.09086   0.00000  Uiso   1.00
C23    C     0.13539   0.19504   0.05631   0.00000  Uiso   1.00
C24    C     0.19155   0.23846   0.32834   0.00000  Uiso   1.00
C25    C     0.16755   0.24539   0.37825   0.00000  Uiso   1.00
C26    C     0.18635   0.29799   0.40560   0.00000  Uiso   1.00
C27    C     0.17733   0.10494   0.45498   0.00000  Uiso   1.00
C28    C     0.08249   0.20827   0.03873   0.00000  Uiso   1.00
C29    C     0.22964   0.09072   0.47287   0.00000  Uiso   1.00
C30    C     0.02855   0.32082   0.26475   0.00000  Uiso   1.00
C31    C     0.31837   0.01714   0.27470   0.00000  Uiso   1.00
C32    C     0.02093   0.16990   0.34088   0.00000  Uiso   1.00
H33    H     0.05770   0.23246   0.06190   0.00000  Uiso   1.00
H34    H     0.16056   0.08410   0.42148   0.00000  Uiso   1.00
H35    H     0.14491   0.05727   0.31793   0.00000  Uiso   1.00
H36    H     0.24736   0.05101   0.37116   0.00000  Uiso   1.00
H37    H     0.12513   0.13431   0.14687   0.00000  Uiso   1.00
H38    H     0.09231   0.08065   0.17859   0.00000  Uiso   1.00
H39    H     0.20289   0.07657   0.12627   0.00000  Uiso   1.00
H40    H     0.17053   0.02453   0.15823   0.00000  Uiso   1.00
H41    H     0.08406   0.02013   0.10027   0.00000  Uiso   1.00
H42    H     0.14791   0.00839   0.07019   0.00000  Uiso   1.00
H43    H     0.11826   0.07152   0.06742   0.00000  Uiso   1.00
H44    H     0.25112   0.06100   0.45277   0.00000  Uiso   1.00
H45    H     0.17659   0.26935   0.30524   0.00000  Uiso   1.00
H46    H     0.23830   0.24180   0.33256   0.00000  Uiso   1.00
H47    H     0.12053   0.24273   0.37352   0.00000  Uiso   1.00
H48    H     0.18099   0.21314   0.40053   0.00000  Uiso   1.00
H49    H     0.23323   0.30229   0.41179   0.00000  Uiso   1.00
H50    H     0.16771   0.29990   0.44144   0.00000  Uiso   1.00
H51    H     0.17063   0.33043   0.38499   0.00000  Uiso   1.00
H52    H     0.23292   0.20460   0.10893   0.00000  Uiso   1.00
H53    H     0.10264   0.12892   0.38799   0.00000  Uiso   1.00
H54    H     0.03304   0.10158   0.09587   0.00000  Uiso   1.00
H55    H     0.29115   0.21697   0.40871   0.00000  Uiso   1.00
H56    H     0.31919   0.23396   0.49510   0.00000  Uiso   1.00
H57    H     0.32894   0.06920   0.01407   0.00000  Uiso   1.00
H58    H     0.14745   0.20905   0.09329   0.00000  Uiso   1.00
N59    N     0.14695   0.15216   0.23739   0.00000  Uiso   1.00
N60    N     0.18638   0.18117   0.26260   0.00000  Uiso   1.00
O61    O     0.29719   0.24631   0.25309   0.00000  Uiso   1.00
O62    O     0.10347   0.04387   0.31577   0.00000  Uiso   1.00
O63    O     0.31053   0.31691   0.35121   0.00000  Uiso   1.00
O64    O     0.25326   0.04932   0.33540   0.00000  Uiso   1.00
O65    O     0.16952   0.11491   0.20895   0.00000  Uiso   1.00
O66    O     0.17168   0.18797   0.30857   0.00000  Uiso   1.00
O67    O     0.03614   0.08702   0.24691   0.00000  Uiso   1.00
O68    O     0.05822   0.23702   0.24501   0.00000  Uiso   1.00
O69    O     0.27512   0.09632   0.25498   0.00000  Uiso   1.00
O70    O     0.30328   0.17397   0.32247   0.00000  Uiso   1.00
O71    O     0.03005   0.15937   0.17753   0.00000  Uiso   1.00
O72    O     0.06431   0.16467   0.31439   0.00000  Uiso   1.00
O73    O     0.26902   0.16866   0.18561   0.00000  Uiso   1.00
O74    O     0.12568   0.32761   0.24914   0.00000  Uiso   1.00
Zn75   Zn    0.27033   0.17287   0.25539   0.00000  Uiso   1.00
Zn76   Zn    0.06300   0.16046   0.24461   0.00000  Uiso   1.00
C77    C     0.34934   0.26542   0.25253   0.00000  Uiso   1.00
C78    C     0.64542   0.16299   0.15923   0.00000  Uiso   1.00
C79    C     0.36344   0.17222   0.39334   0.00000  Uiso   1.00
C80    C     0.63318   0.15386   0.10742   0.00000  Uiso   1.00
C81    C     0.34501   0.21022   0.47250   0.00000  Uiso   1.00
C82    C     0.63984   0.09810   0.03453   0.00000  Uiso   1.00
C83    C     0.66210   0.20024   0.42346   0.00000  Uiso   1.00
C84    C     0.66201   0.11725   0.08042   0.00000  Uiso   1.00
C85    C     0.41079   0.14988   0.41289   0.00000  Uiso   1.00
C86    C     0.58434   0.17368   0.08770   0.00000  Uiso   1.00
C87    C     0.42864   0.16001   0.46186   0.00000  Uiso   1.00
C88    C     0.65293   0.06845   0.25527   0.00000  Uiso   1.00
C89    C     0.55801   0.15121   0.04393   0.00000  Uiso   1.00
C90    C     0.39609   0.19243   0.49137   0.00000  Uiso   1.00
C91    C     0.58727   0.11370   0.01669   0.00000  Uiso   1.00
C92    C     0.48052   0.14263   0.48092   0.00000  Uiso   1.00
C93    C     0.50293   0.16374   0.02737   0.00000  Uiso   1.00
C94    C     0.42247   0.00778   0.27579   0.00000  Uiso   1.00
C95    C     0.62642   0.01382   0.32215   0.00000  Uiso   1.00
C96    C     0.46606   0.09960   0.16809   0.00000  Uiso   1.00
C97    C     0.49499   0.05874   0.13672   0.00000  Uiso   1.00
C98    C     0.45879   0.03862   0.09086   0.00000  Uiso   1.00
C99    C     0.46872   0.19504   0.05631   0.00000  Uiso   1.00
C100   C     0.52488   0.23846   0.32834   0.00000  Uiso   1.00
C101   C     0.50088   0.24539   0.37825   0.00000  Uiso   1.00
C102   C     0.51969   0.29799   0.40560   0.00000  Uiso   1.00
C103   C     0.51066   0.10494   0.45498   0.00000  Uiso   1.00
C104   C     0.41583   0.20827   0.03873   0.00000  Uiso   1.00
C105   C     0.56297   0.09072   0.47287   0.00000  Uiso   1.00
C106   C     0.36188   0.32082   0.26475   0.00000  Uiso   1.00
C107   C     0.65171   0.01714   0.27470   0.00000  Uiso   1.00
C108   C     0.35426   0.16990   0.34088   0.00000  Uiso   1.00
H109   H     0.39103   0.23246   0.06190   0.00000  Uiso   1.00
H110   H     0.49389   0.08410   0.42148   0.00000  Uiso   1.00
H111   H     0.47824   0.05727   0.31793   0.00000  Uiso   1.00
H112   H     0.58070   0.05101   0.37116   0.00000  Uiso   1.00
H113   H     0.45846   0.13431   0.14687   0.00000  Uiso   1.00
H114   H     0.42564   0.08065   0.17859   0.00000  Uiso   1.00
H115   H     0.53622   0.07657   0.12627   0.00000  Uiso   1.00
H116   H     0.50387   0.02453   0.15823   0.00000  Uiso   1.00
H117   H     0.41740   0.02013   0.10027   0.00000  Uiso   1.00
H118   H     0.48124   0.00839   0.07019   0.00000  Uiso   1.00
H119   H     0.45160   0.07152   0.06742   0.00000  Uiso   1.00
H120   H     0.58446   0.06100   0.45277   0.00000  Uiso   1.00
H121   H     0.50992   0.26935   0.30524   0.00000  Uiso   1.00
H122   H     0.57163   0.24180   0.33256   0.00000  Uiso   1.00
H123   H     0.45386   0.24273   0.37352   0.00000  Uiso   1.00
H124   H     0.51432   0.21314   0.40053   0.00000  Uiso   1.00
H125   H     0.56656   0.30229   0.41179   0.00000  Uiso   1.00
H126   H     0.50104   0.29990   0.44144   0.00000  Uiso   1.00
H127   H     0.50396   0.33043   0.38499   0.00000  Uiso   1.00
H128   H     0.56626   0.20460   0.10893   0.00000  Uiso   1.00
H129   H     0.43597   0.12892   0.38799   0.00000  Uiso   1.00
H130   H     0.36637   0.10158   0.09587   0.00000  Uiso   1.00
H131   H     0.62448   0.21697   0.40871   0.00000  Uiso   1.00
H132   H     0.65253   0.23396   0.49510   0.00000  Uiso   1.00
H133   H     0.66227   0.06920   0.01407   0.00000  Uiso   1.00
H134   H     0.48079   0.20905   0.09329   0.00000  Uiso   1.00
N135   N     0.48029   0.15216   0.23739   0.00000  Uiso   1.00
N136   N     0.51971   0.18117   0.26260   0.00000  Uiso   1.00
O137   O     0.63052   0.24631   0.25309   0.00000  Uiso   1.00
O138   O     0.43680   0.04387   0.31577   0.00000  Uiso   1.00
O139   O     0.64386   0.31691   0.35121   0.00000  Uiso   1.00
O140   O     0.58660   0.04932   0.33540   0.00000  Uiso   1.00
O141   O     0.50286   0.11491   0.20895   0.00000  Uiso   1.00
O142   O     0.50501   0.18797   0.30857   0.00000  Uiso   1.00
O143   O     0.36948   0.08702   0.24691   0.00000  Uiso   1.00
O144   O     0.39155   0.23702   0.24501   0.00000  Uiso   1.00
O145   O     0.60845   0.09632   0.25498   0.00000  Uiso   1.00
O146   O     0.63662   0.17397   0.32247   0.00000  Uiso   1.00
O147   O     0.36338   0.15937   0.17753   0.00000  Uiso   1.00
O148   O     0.39764   0.16467   0.31439   0.00000  Uiso   1.00
O149   O     0.60236   0.16866   0.18561   0.00000  Uiso   1.00
O150   O     0.45901   0.32761   0.24914   0.00000  Uiso   1.00
Zn151  Zn    0.60366   0.17287   0.25539   0.00000  Uiso   1.00
Zn152  Zn    0.39634   0.16046   0.24461   0.00000  Uiso   1.00
C153   C     0.68267   0.26542   0.25253   0.00000  Uiso   1.00
C154   C     0.97875   0.16299   0.15923   0.00000  Uiso   1.00
C155   C     0.69677   0.17222   0.39334   0.00000  Uiso   1.00
C156   C     0.96651   0.15386   0.10742   0.00000  Uiso   1.00
C157   C     0.67835   0.21022   0.47250   0.00000  Uiso   1.00
C158   C     0.97317   0.09810   0.03453   0.00000  Uiso   1.00
C159   C     0.99543   0.20024   0.42346   0.00000  Uiso   1.00
C160   C     0.99534   0.11725   0.08042   0.00000  Uiso   1.00
C161   C     0.74412   0.14988   0.41289   0.00000  Uiso   1.00
C162   C     0.91768   0.17368   0.08770   0.00000  Uiso   1.00
C163   C     0.76197   0.16001   0.46186   0.00000  Uiso   1.00
C164   C     0.98626   0.06845   0.25527   0.00000  Uiso   1.00
C165   C     0.89134   0.15121   0.04393   0.00000  Uiso   1.00
C166   C     0.72942   0.19243   0.49137   0.00000  Uiso   1.00
C167   C     0.92060   0.11370   0.01669   0.00000  Uiso   1.00
C168   C     0.81385   0.14263   0.48092   0.00000  Uiso   1.00
C169   C     0.83627   0.16374   0.02737   0.00000  Uiso   1.00
C170   C     0.75581   0.00778   0.27579   0.00000  Uiso   1.00
C171   C     0.95975   0.01382   0.32215   0.00000  Uiso   1.00
C172   C     0.79939   0.09960   0.16809   0.00000  Uiso   1.00
C173   C     0.82833   0.05874   0.13672   0.00000  Uiso   1.00
C174   C     0.79213   0.03862   0.09086   0.00000  Uiso   1.00
C175   C     0.80205   0.19504   0.05631   0.00000  Uiso   1.00
C176   C     0.85821   0.23846   0.32834   0.00000  Uiso   1.00
C177   C     0.83421   0.24539   0.37825   0.00000  Uiso   1.00
C178   C     0.85302   0.29799   0.40560   0.00000  Uiso   1.00
C179   C     0.84400   0.10494   0.45498   0.00000  Uiso   1.00
C180   C     0.74916   0.20827   0.03873   0.00000  Uiso   1.00
C181   C     0.89631   0.09072   0.47287   0.00000  Uiso   1.00
C182   C     0.69522   0.32082   0.26475   0.00000  Uiso   1.00
C183   C     0.98504   0.01714   0.27470   0.00000  Uiso   1.00
C184   C     0.68759   0.16990   0.34088   0.00000  Uiso   1.00
H185   H     0.72437   0.23246   0.06190   0.00000  Uiso   1.00
H186   H     0.82722   0.08410   0.42148   0.00000  Uiso   1.00
H187   H     0.81157   0.05727   0.31793   0.00000  Uiso   1.00
H188   H     0.91403   0.05101   0.37116   0.00000  Uiso   1.00
H189   H     0.79180   0.13431   0.14687   0.00000  Uiso   1.00
H190   H     0.75897   0.08065   0.17859   0.00000  Uiso   1.00
H191   H     0.86956   0.07657   0.12627   0.00000  Uiso   1.00
H192   H     0.83720   0.02453   0.15823   0.00000  Uiso   1.00
H193   H     0.75073   0.02013   0.10027   0.00000  Uiso   1.00
H194   H     0.81458   0.00839   0.07019   0.00000  Uiso   1.00
H195   H     0.78493   0.07152   0.06742   0.00000  Uiso   1.00
H196   H     0.91779   0.06100   0.45277   0.00000  Uiso   1.00
H197   H     0.84325   0.26935   0.30524   0.00000  Uiso   1.00
H198   H     0.90497   0.24180   0.33256   0.00000  Uiso   1.00
H199   H     0.78719   0.24273   0.37352   0.00000  Uiso   1.00
H200   H     0.84765   0.21314   0.40053   0.00000  Uiso   1.00
H201   H     0.89989   0.30229   0.41179   0.00000  Uiso   1.00
H202   H     0.83438   0.29990   0.44144   0.00000  Uiso   1.00
H203   H     0.83730   0.33043   0.38499   0.00000  Uiso   1.00
H204   H     0.89959   0.20460   0.10893   0.00000  Uiso   1.00
H205   H     0.76931   0.12892   0.38799   0.00000  Uiso   1.00
H206   H     0.69971   0.10158   0.09587   0.00000  Uiso   1.00
H207   H     0.95782   0.21697   0.40871   0.00000  Uiso   1.00
H208   H     0.98586   0.23396   0.49510   0.00000  Uiso   1.00
H209   H     0.99560   0.06920   0.01407   0.00000  Uiso   1.00
H210   H     0.81412   0.20905   0.09329   0.00000  Uiso   1.00
N211   N     0.81362   0.15216   0.23739   0.00000  Uiso   1.00
N212   N     0.85305   0.18117   0.26260   0.00000  Uiso   1.00
O213   O     0.96386   0.24631   0.25309   0.00000  Uiso   1.00
O214   O     0.77013   0.04387   0.31577   0.00000  Uiso   1.00
O215   O     0.97719   0.31691   0.35121   0.00000  Uiso   1.00
O216   O     0.91993   0.04932   0.33540   0.00000  Uiso   1.00
O217   O     0.83619   0.11491   0.20895   0.00000  Uiso   1.00
O218   O     0.83835   0.18797   0.30857   0.00000  Uiso   1.00
O219   O     0.70281   0.08702   0.24691   0.00000  Uiso   1.00
O220   O     0.72488   0.23702   0.24501   0.00000  Uiso   1.00
O221   O     0.94178   0.09632   0.25498   0.00000  Uiso   1.00
O222   O     0.96995   0.17397   0.32247   0.00000  Uiso   1.00
O223   O     0.69672   0.15937   0.17753   0.00000  Uiso   1.00
O224   O     0.73098   0.16467   0.31439   0.00000  Uiso   1.00
O225   O     0.93569   0.16866   0.18561   0.00000  Uiso   1.00
O226   O     0.79235   0.32761   0.24914   0.00000  Uiso   1.00
Zn227  Zn    0.93700   0.17287   0.25539   0.00000  Uiso   1.00
Zn228  Zn    0.72967   0.16046   0.24461   0.00000  Uiso   1.00
C229   C     0.01601   0.59875   0.25253   0.00000  Uiso   1.00
C230   C     0.31208   0.49632   0.15923   0.00000  Uiso   1.00
C231   C     0.03010   0.50555   0.39334   0.00000  Uiso   1.00
C232   C     0.29984   0.48719   0.10742   0.00000  Uiso   1.00
C233   C     0.01168   0.54355   0.47250   0.00000  Uiso   1.00
C234   C     0.30651   0.43143   0.03453   0.00000  Uiso   1.00
C235   C     0.32876   0.53357   0.42346   0.00000  Uiso   1.00
C236   C     0.32868   0.45058   0.08042   0.00000  Uiso   1.00
C237   C     0.07745   0.48321   0.41289   0.00000  Uiso   1.00
C238   C     0.25101   0.50701   0.08770   0.00000  Uiso   1.00
C239   C     0.09531   0.49334   0.46186   0.00000  Uiso   1.00
C240   C     0.31959   0.40178   0.25527   0.00000  Uiso   1.00
C241   C     0.22468   0.48454   0.04393   0.00000  Uiso   1.00
C242   C     0.06275   0.52576   0.49137   0.00000  Uiso   1.00
C243   C     0.25393   0.44703   0.01669   0.00000  Uiso   1.00
C244   C     0.14718   0.47596   0.48092   0.00000  Uiso   1.00
C245   C     0.16960   0.49708   0.02737   0.00000  Uiso   1.00
C246   C     0.08914   0.34111   0.27579   0.00000  Uiso   1.00
C247   C     0.29309   0.34716   0.32215   0.00000  Uiso   1.00
C248   C     0.13272   0.43293   0.16809   0.00000  Uiso   1.00
C249   C     0.16166   0.39207   0.13672   0.00000  Uiso   1.00
C250   C     0.12546   0.37196   0.09086   0.00000  Uiso   1.00
C251   C     0.13539   0.52837   0.05631   0.00000  Uiso   1.00
C252   C     0.19155   0.57180   0.32834   0.00000  Uiso   1.00
C253   C     0.16755   0.57873   0.37825   0.00000  Uiso   1.00
C254   C     0.18635   0.63133   0.40560   0.00000  Uiso   1.00
C255   C     0.17733   0.43827   0.45498   0.00000  Uiso   1.00
C256   C     0.08249   0.54160   0.03873   0.00000  Uiso   1.00
C257   C     0.22964   0.42405   0.47287   0.00000  Uiso   1.00
C258   C     0.02855   0.65415   0.26475   0.00000  Uiso   1.00
C259   C     0.31837   0.35048   0.27470   0.00000  Uiso   1.00
C260   C     0.02093   0.50324   0.34088   0.00000  Uiso   1.00
H261   H     0.05770   0.56579   0.06190   0.00000  Uiso   1.00
H262   H     0.16056   0.41743   0.42148   0.00000  Uiso   1.00
H263   H     0.14491   0.39060   0.31793   0.00000  Uiso   1.00
H264   H     0.24736   0.38434   0.37116   0.00000  Uiso   1.00
H265   H     0.12513   0.46764   0.14687   0.00000  Uiso   1.00
H266   H     0.09231   0.41398   0.17859   0.00000  Uiso   1.00
H267   H     0.20289   0.40990   0.12627   0.00000  Uiso   1.00
H268   H     0.17053   0.35786   0.15823   0.00000  Uiso   1.00
H269   H     0.08406   0.35346   0.10027   0.00000  Uiso   1.00
H270   H     0.14791   0.34173   0.07019   0.00000  Uiso   1.00
H271   H     0.11826   0.40485   0.06742   0.00000  Uiso   1.00
H272   H     0.25112   0.39434   0.45277   0.00000  Uiso   1.00
H273   H     0.17659   0.60269   0.30524   0.00000  Uiso   1.00
H274   H     0.23830   0.57513   0.33256   0.00000  Uiso   1.00
H275   H     0.12053   0.57607   0.37352   0.00000  Uiso   1.00
H276   H     0.18099   0.54648   0.40053   0.00000  Uiso   1.00
H277   H     0.23323   0.63563   0.41179   0.00000  Uiso   1.00
H278   H     0.16771   0.63323   0.44144   0.00000  Uiso   1.00
H279   H     0.17063   0.66377   0.38499   0.00000  Uiso   1.00
H280   H     0.23292   0.53793   0.10893   0.00000  Uiso   1.00
H281   H     0.10264   0.46225   0.38799   0.00000  Uiso   1.00
H282   H     0.03304   0.43492   0.09587   0.00000  Uiso   1.00
H283   H     0.29115   0.55030   0.40871   0.00000  Uiso   1.00
H284   H     0.31919   0.56729   0.49510   0.00000  Uiso   1.00
H285   H     0.32894   0.40254   0.01407   0.00000  Uiso   1.00
H286   H     0.14745   0.54238   0.09329   0.00000  Uiso   1.00
N287   N     0.14695   0.48550   0.23739   0.00000  Uiso   1.00
N288   N     0.18638   0.51450   0.26260   0.00000  Uiso   1.00
O289   O     0.29719   0.57964   0.25309   0.00000  Uiso   1.00
O290   O     0.10347   0.37720   0.31577   0.00000  Uiso   1.00
O291   O     0.31053   0.65024   0.35121   0.00000  Uiso   1.00
O292   O     0.25326   0.38266   0.33540   0.00000  Uiso   1.00
O293   O     0.16952   0.44824   0.20895   0.00000  Uiso   1.00
O294   O     0.17168   0.52131   0.30857   0.00000  Uiso   1.00
O295   O     0.03614   0.42036   0.24691   0.00000  Uiso   1.00
O296   O     0.05822   0.57035   0.24501   0.00000  Uiso   1.00
O297   O     0.27512   0.42965   0.25498   0.00000  Uiso   1.00
O298   O     0.30328   0.50730   0.32247   0.00000  Uiso   1.00
O299   O     0.03005   0.49270   0.17753   0.00000  Uiso   1.00
O300   O     0.06431   0.49801   0.31439   0.00000  Uiso   1.00
O301   O     0.26902   0.50199   0.18561   0.00000  Uiso   1.00
O302   O     0.12568   0.66094   0.24914   0.00000  Uiso   1.00
Zn303  Zn    0.27033   0.50621   0.25539   0.00000  Uiso   1.00
Zn304  Zn    0.06300   0.49379   0.24461   0.00000  Uiso   1.00
C305   C     0.34934   0.59875   0.25253   0.00000  Uiso   1.00
C306   C     0.64542   0.49632   0.15923   0.00000  Uiso   1.00
C307   C     0.36344   0.50555   0.39334   0.00000  Uiso   1.00
C308   C     0.63318   0.48719   0.10742   0.00000  Uiso   1.00
C309   C     0.34501   0.54355   0.47250   0.00000  Uiso   1.00
C310   C     0.63984   0.43143   0.03453   0.00000  Uiso   1.00
C311   C     0.66210   0.53357   0.42346   0.00000  Uiso   1.00
C312   C     0.66201   0.45058   0.08042   0.00000  Uiso   1.00
C313   C     0.41079   0.48321   0.41289   0.00000  Uiso   1.00
C314   C     0.58434   0.50701   0.08770   0.00000  Uiso   1.00
C315   C     0.42864   0.49334   0.46186   0.00000  Uiso   1.00
C316   C     0.65293   0.40178   0.25527   0.00000  Uiso   1.00
C317   C     0.55801   0.48454   0.04393   0.00000  Uiso   1.00
C318   C     0.39609   0.52576   0.49137   0.00000  Uiso   1.00
C319   C     0.58727   0.44703   0.01669   0.00000  Uiso   1.00
C320   C     0.48052   0.47596   0.48092   0.00000  Uiso   1.00
C321   C     0.50293   0.49708   0.02737   0.00000  Uiso   1.00
C322   C     0.42247   0.34111   0.27579   0.00000  Uiso   1.00
C323   C     0.62642   0.34716   0.32215   0.00000  Uiso   1.00
C324   C     0.46606   0.43293   0.16809   0.00000  Uiso   1.00
C325   C     0.49499   0.39207   0.13672   0.00000  Uiso   1.00
C326   C     0.45879   0.37196   0.09086   0.00000  Uiso   1.00
C327   C     0.46872   0.52837   0.05631   0.00000  Uiso   1.00
C328   C     0.52488   0.57180   0.32834   0.00000  Uiso   1.00
C329   C     0.50088   0.57873   0.37825   0.00000  Uiso   1.00
C330   C     0.51969   0.63133   0.40560   0.00000  Uiso   1.00
C331   C     0.51066   0.43827   0.45498   0.00000  Uiso   1.00
C332   C     0.41583   0.54160   0.03873   0.00000  Uiso   1.00
C333   C     0.56297   0.42405   0.47287   0.00000  Uiso   1.00
C334   C     0.36188   0.65415   0.26475   0.00000  Uiso   1.00
C335   C     0.65171   0.35048   0.27470   0.00000  Uiso   1.00
C336   C     0.35426   0.50324   0.34088   0.00000  Uiso   1.00
H337   H     0.39103   0.56579   0.06190   0.00000  Uiso   1.00
H338   H     0.49389   0.41743   0.42148   0.00000  Uiso   1.00
H339   H     0.47824   0.39060   0.31793   0.00000  Uiso   1.00
H340   H     0.58070   0.38434   0.37116   0.00000  Uiso   1.00
H341   H     0.45846   0.46764   0.14687   0.00000  Uiso   1.00
H342   H     0.42564   0.41398   0.17859   0.00000  Uiso   1.00
H343   H     0.53622   0.40990   0.12627   0.00000  Uiso   1.00
H344   H     0.50387   0.35786   0.15823   0.00000  Uiso   1.00
H345   H     0.41740   0.35346   0.10027   0.00000  Uiso   1.00
H346   H     0.48124   0.34173   0.07019   0.00000  Uiso   1.00
H347   H     0.45160   0.40485   0.06742   0.00000  Uiso   1.00
H348   H     0.58446   0.39434   0.45277   0.00000  Uiso   1.00
H349   H     0.50992   0.60269   0.30524   0.00000  Uiso   1.00
H350   H     0.57163   0.57513   0.33256   0.00000  Uiso   1.00
H351   H     0.45386   0.57607   0.37352   0.00000  Uiso   1.00
H352   H     0.51432   0.54648   0.40053   0.00000  Uiso   1.00
H353   H     0.56656   0.63563   0.41179   0.00000  Uiso   1.00
H354   H     0.50104   0.63323   0.44144   0.00000  Uiso   1.00
H355   H     0.50396   0.66377   0.38499   0.00000  Uiso   1.00
H356   H     0.56626   0.53793   0.10893   0.00000  Uiso   1.00
H357   H     0.43597   0.46225   0.38799   0.00000  Uiso   1.00
H358   H     0.36637   0.43492   0.09587   0.00000  Uiso   1.00
H359   H     0.62448   0.55030   0.40871   0.00000  Uiso   1.00
H360   H     0.65253   0.56729   0.49510   0.00000  Uiso   1.00
H361   H     0.66227   0.40254   0.01407   0.00000  Uiso   1.00
H362   H     0.48079   0.54238   0.09329   0.00000  Uiso   1.00
N363   N     0.48029   0.48550   0.23739   0.00000  Uiso   1.00
N364   N     0.51971   0.51450   0.26260   0.00000  Uiso   1.00
O365   O     0.63052   0.57964   0.25309   0.00000  Uiso   1.00
O366   O     0.43680   0.37720   0.31577   0.00000  Uiso   1.00
O367   O     0.64386   0.65024   0.35121   0.00000  Uiso   1.00
O368   O     0.58660   0.38266   0.33540   0.00000  Uiso   1.00
O369   O     0.50286   0.44824   0.20895   0.00000  Uiso   1.00
O370   O     0.50501   0.52131   0.30857   0.00000  Uiso   1.00
O371   O     0.36948   0.42036   0.24691   0.00000  Uiso   1.00
O372   O     0.39155   0.57035   0.24501   0.00000  Uiso   1.00
O373   O     0.60845   0.42965   0.25498   0.00000  Uiso   1.00
O374   O     0.63662   0.50730   0.32247   0.00000  Uiso   1.00
O375   O     0.36338   0.49270   0.17753   0.00000  Uiso   1.00
O376   O     0.39764   0.49801   0.31439   0.00000  Uiso   1.00
O377   O     0.60236   0.50199   0.18561   0.00000  Uiso   1.00
O378   O     0.45901   0.66094   0.24914   0.00000  Uiso   1.00
Zn379  Zn    0.60366   0.50621   0.25539   0.00000  Uiso   1.00
Zn380  Zn    0.39634   0.49379   0.24461   0.00000  Uiso   1.00
C381   C     0.68267   0.59875   0.25253   0.00000  Uiso   1.00
C382   C     0.97875   0.49632   0.15923   0.00000  Uiso   1.00
C383   C     0.69677   0.50555   0.39334   0.00000  Uiso   1.00
C384   C     0.96651   0.48719   0.10742   0.00000  Uiso   1.00
C385   C     0.67835   0.54355   0.47250   0.00000  Uiso   1.00
C386   C     0.97317   0.43143   0.03453   0.00000  Uiso   1.00
C387   C     0.99543   0.53357   0.42346   0.00000  Uiso   1.00
C388   C     0.99534   0.45058   0.08042   0.00000  Uiso   1.00
C389   C     0.74412   0.48321   0.41289   0.00000  Uiso   1.00
C390   C     0.91768   0.50701   0.08770   0.00000  Uiso   1.00
C391   C     0.76197   0.49334   0.46186   0.00000  Uiso   1.00
C392   C     0.98626   0.40178   0.25527   0.00000  Uiso   1.00
C393   C     0.89134   0.48454   0.04393   0.00000  Uiso   1.00
C394   C     0.72942   0.52576   0.49137   0.00000  Uiso   1.00
C395   C     0.92060   0.44703   0.01669   0.00000  Uiso   1.00
C396   C     0.81385   0.47596   0.48092   0.00000  Uiso   1.00
C397   C     0.83627   0.49708   0.02737   0.00000  Uiso   1.00
C398   C     0.75581   0.34111   0.27579   0.00000  Uiso   1.00
C399   C     0.95975   0.34716   0.32215   0.00000  Uiso   1.00
C400   C     0.79939   0.43293   0.16809   0.00000  Uiso   1.00
C401   C     0.82833   0.39207   0.13672   0.00000  Uiso   1.00
C402   C     0.79213   0.37196   0.09086   0.00000  Uiso   1.00
C403   C     0.80205   0.52837   0.05631   0.00000  Uiso   1.00
C404   C     0.85821   0.57180   0.32834   0.00000  Uiso   1.00
C405   C     0.83421   0.57873   0.37825   0.00000  Uiso   1.00
C406   C     0.85302   0.63133   0.40560   0.00000  Uiso   1.00
C407   C     0.84400   0.43827   0.45498   0.00000  Uiso   1.00
C408   C     0.74916   0.54160   0.03873   0.00000  Uiso   1.00
C409   C     0.89631   0.42405   0.47287   0.00000  Uiso   1.00
C410   C     0.69522   0.65415   0.26475   0.00000  Uiso   1.00
C411   C     0.98504   0.35048   0.27470   0.00000  Uiso   1.00
C412   C     0.68759   0.50324   0.34088   0.00000  Uiso   1.00
H413   H     0.72437   0.56579   0.06190   0.00000  Uiso   1.00
H414   H     0.82722   0.41743   0.42148   0.00000  Uiso   1.00
H415   H     0.81157   0.39060   0.31793   0.00000  Uiso   1.00
H416   H     0.91403   0.38434   0.37116   0.00000  Uiso   1.00
H417   H     0.79180   0.46764   0.14687   0.00000  Uiso   1.00
H418   H     0.75897   0.41398   0.17859   0.00000  Uiso   1.00
H419   H     0.86956   0.40990   0.12627   0.00000  Uiso   1.00
H420   H     0.83720   0.35786   0.15823   0.00000  Uiso   1.00
H421   H     0.75073   0.35346   0.10027   0.00000  Uiso   1.00
H422   H     0.81458   0.34173   0.07019   0.00000  Uiso   1.00
H423   H     0.78493   0.40485   0.06742   0.00000  Uiso   1.00
H424   H     0.91779   0.39434   0.45277   0.00000  Uiso   1.00
H425   H     0.84325   0.60269   0.30524   0.00000  Uiso   1.00
H426   H     0.90497   0.57513   0.33256   0.00000  Uiso   1.00
H427   H     0.78719   0.57607   0.37352   0.00000  Uiso   1.00
H428   H     0.84765   0.54648   0.40053   0.00000  Uiso   1.00
H429   H     0.89989   0.63563   0.41179   0.00000  Uiso   1.00
H430   H     0.83438   0.63323   0.44144   0.00000  Uiso   1.00
H431   H     0.83730   0.66377   0.38499   0.00000  Uiso   1.00
H432   H     0.89959   0.53793   0.10893   0.00000  Uiso   1.00
H433   H     0.76931   0.46225   0.38799   0.00000  Uiso   1.00
H434   H     0.69971   0.43492   0.09587   0.00000  Uiso   1.00
H435   H     0.95782   0.55030   0.40871   0.00000  Uiso   1.00
H436   H     0.98586   0.56729   0.49510   0.00000  Uiso   1.00
H437   H     0.99560   0.40254   0.01407   0.00000  Uiso   1.00
H438   H     0.81412   0.54238   0.09329   0.00000  Uiso   1.00
N439   N     0.81362   0.48550   0.23739   0.00000  Uiso   1.00
N440   N     0.85305   0.51450   0.26260   0.00000  Uiso   1.00
O441   O     0.96386   0.57964   0.25309   0.00000  Uiso   1.00
O442   O     0.77013   0.37720   0.31577   0.00000  Uiso   1.00
O443   O     0.97719   0.65024   0.35121   0.00000  Uiso   1.00
O444   O     0.91993   0.38266   0.33540   0.00000  Uiso   1.00
O445   O     0.83619   0.44824   0.20895   0.00000  Uiso   1.00
O446   O     0.83835   0.52131   0.30857   0.00000  Uiso   1.00
O447   O     0.70281   0.42036   0.24691   0.00000  Uiso   1.00
O448   O     0.72488   0.57035   0.24501   0.00000  Uiso   1.00
O449   O     0.94178   0.42965   0.25498   0.00000  Uiso   1.00
O450   O     0.96995   0.50730   0.32247   0.00000  Uiso   1.00
O451   O     0.69672   0.49270   0.17753   0.00000  Uiso   1.00
O452   O     0.73098   0.49801   0.31439   0.00000  Uiso   1.00
O453   O     0.93569   0.50199   0.18561   0.00000  Uiso   1.00
O454   O     0.79235   0.66094   0.24914   0.00000  Uiso   1.00
Zn455  Zn    0.93700   0.50621   0.25539   0.00000  Uiso   1.00
Zn456  Zn    0.72967   0.49379   0.24461   0.00000  Uiso   1.00
C457   C     0.01601   0.93208   0.25253   0.00000  Uiso   1.00
C458   C     0.31208   0.82966   0.15923   0.00000  Uiso   1.00
C459   C     0.03010   0.83889   0.39334   0.00000  Uiso   1.00
C460   C     0.29984   0.82052   0.10742   0.00000  Uiso   1.00
C461   C     0.01168   0.87689   0.47250   0.00000  Uiso   1.00
C462   C     0.30651   0.76476   0.03453   0.00000  Uiso   1.00
C463   C     0.32876   0.86690   0.42346   0.00000  Uiso   1.00
C464   C     0.32868   0.78391   0.08042   0.00000  Uiso   1.00
C465   C     0.07745   0.81655   0.41289   0.00000  Uiso   1.00
C466   C     0.25101   0.84034   0.08770   0.00000  Uiso   1.00
C467   C     0.09531   0.82667   0.46186   0.00000  Uiso   1.00
C468   C     0.31959   0.73511   0.25527   0.00000  Uiso   1.00
C469   C     0.22468   0.81788   0.04393   0.00000  Uiso   1.00
C470   C     0.06275   0.85910   0.49137   0.00000  Uiso   1.00
C471   C     0.25393   0.78037   0.01669   0.00000  Uiso   1.00
C472   C     0.14718   0.80929   0.48092   0.00000  Uiso   1.00
C473   C     0.16960   0.83041   0.02737   0.00000  Uiso   1.00
C474   C     0.08914   0.67444   0.27579   0.00000  Uiso   1.00
C475   C     0.29309   0.68049   0.32215   0.00000  Uiso   1.00
C476   C     0.13272   0.76626   0.16809   0.00000  Uiso   1.00
C477   C     0.16166   0.72541   0.13672   0.00000  Uiso   1.00
C478   C     0.12546   0.70529   0.09086   0.00000  Uiso   1.00
C479   C     0.13539   0.86171   0.05631   0.00000  Uiso   1.00
C480   C     0.19155   0.90513   0.32834   0.00000  Uiso   1.00
C481   C     0.16755   0.91206   0.37825   0.00000  Uiso   1.00
C482   C     0.18635   0.96466   0.40560   0.00000  Uiso   1.00
C483   C     0.17733   0.77160   0.45498   0.00000  Uiso   1.00
C484   C     0.08249   0.87493   0.03873   0.00000  Uiso   1.00
C485   C     0.22964   0.75738   0.47287   0.00000  Uiso   1.00
C486   C     0.02855   0.98749   0.26475   0.00000  Uiso   1.00
C487   C     0.31837   0.68381   0.27470   0.00000  Uiso   1.00
C488   C     0.02093   0.83657   0.34088   0.00000  Uiso   1.00
H489   H     0.05770   0.89912   0.06190   0.00000  Uiso   1.00
H490   H     0.16056   0.75076   0.42148   0.00000  Uiso   1.00
H491   H     0.14491   0.72394   0.31793   0.00000  Uiso   1.00
H492   H     0.24736   0.71767   0.37116   0.00000  Uiso   1.00
H493   H     0.12513   0.80097   0.14687   0.00000  Uiso   1.00
H494   H     0.09231   0.74731   0.17859   0.00000  Uiso   1.00
H495   H     0.20289   0.74323   0.12627   0.00000  Uiso   1.00
H496   H     0.17053   0.69120   0.15823   0.00000  Uiso   1.00
H497   H     0.08406   0.68680   0.10027   0.00000  Uiso   1.00
H498   H     0.14791   0.67506   0.07019   0.00000  Uiso   1.00
H499   H     0.11826   0.73818   0.06742   0.00000  Uiso   1.00
H500   H     0.25112   0.72767   0.45277   0.00000  Uiso   1.00
H501   H     0.17659   0.93602   0.30524   0.00000  Uiso   1.00
H502   H     0.23830   0.90847   0.33256   0.00000  Uiso   1.00
H503   H     0.12053   0.90940   0.37352   0.00000  Uiso   1.00
H504   H     0.18099   0.87981   0.40053   0.00000  Uiso   1.00
H505   H     0.23323   0.96896   0.41179   0.00000  Uiso   1.00
H506   H     0.16771   0.96657   0.44144   0.00000  Uiso   1.00
H507   H     0.17063   0.99710   0.38499   0.00000  Uiso   1.00
H508   H     0.23292   0.87126   0.10893   0.00000  Uiso   1.00
H509   H     0.10264   0.79559   0.38799   0.00000  Uiso   1.00
H510   H     0.03304   0.76825   0.09587   0.00000  Uiso   1.00
H511   H     0.29115   0.88363   0.40871   0.00000  Uiso   1.00
H512   H     0.31919   0.90063   0.49510   0.00000  Uiso   1.00
H513   H     0.32894   0.73587   0.01407   0.00000  Uiso   1.00
H514   H     0.14745   0.87571   0.09329   0.00000  Uiso   1.00
N515   N     0.14695   0.81883   0.23739   0.00000  Uiso   1.00
N516   N     0.18638   0.84784   0.26260   0.00000  Uiso   1.00
O517   O     0.29719   0.91298   0.25309   0.00000  Uiso   1.00
O518   O     0.10347   0.71053   0.31577   0.00000  Uiso   1.00
O519   O     0.31053   0.98358   0.35121   0.00000  Uiso   1.00
O520   O     0.25326   0.71599   0.33540   0.00000  Uiso   1.00
O521   O     0.16952   0.78158   0.20895   0.00000  Uiso   1.00
O522   O     0.17168   0.85464   0.30857   0.00000  Uiso   1.00
O523   O     0.03614   0.75369   0.24691   0.00000  Uiso   1.00
O524   O     0.05822   0.90368   0.24501   0.00000  Uiso   1.00
O525   O     0.27512   0.76298   0.25498   0.00000  Uiso   1.00
O526   O     0.30328   0.84063   0.32247   0.00000  Uiso   1.00
O527   O     0.03005   0.82603   0.17753   0.00000  Uiso   1.00
O528   O     0.06431   0.83134   0.31439   0.00000  Uiso   1.00
O529   O     0.26902   0.83533   0.18561   0.00000  Uiso   1.00
O530   O     0.12568   0.99427   0.24914   0.00000  Uiso   1.00
Zn531  Zn    0.27033   0.83954   0.25539   0.00000  Uiso   1.00
Zn532  Zn    0.06300   0.82713   0.24461   0.00000  Uiso   1.00
C533   C     0.34934   0.93208   0.25253   0.00000  Uiso   1.00
C534   C     0.64542   0.82966   0.15923   0.00000  Uiso   1.00
C535   C     0.36344   0.83889   0.39334   0.00000  Uiso   1.00
C536   C     0.63318   0.82052   0.10742   0.00000  Uiso   1.00
C537   C     0.34501   0.87689   0.47250   0.00000  Uiso   1.00
C538   C     0.63984   0.76476   0.03453   0.00000  Uiso   1.00
C539   C     0.66210   0.86690   0.42346   0.00000  Uiso   1.00
C540   C     0.66201   0.78391   0.08042   0.00000  Uiso   1.00
C541   C     0.41079   0.81655   0.41289   0.00000  Uiso   1.00
C542   C     0.58434   0.84034   0.08770   0.00000  Uiso   1.00
C543   C     0.42864   0.82667   0.46186   0.00000  Uiso   1.00
C544   C     0.65293   0.73511   0.25527   0.00000  Uiso   1.00
C545   C     0.55801   0.81788   0.04393   0.00000  Uiso   1.00
C546   C     0.39609   0.85910   0.49137   0.00000  Uiso   1.00
C547   C     0.58727   0.78037   0.01669   0.00000  Uiso   1.00
C548   C     0.48052   0.80929   0.48092   0.00000  Uiso   1.00
C549   C     0.50293   0.83041   0.02737   0.00000  Uiso   1.00
C550   C     0.42247   0.67444   0.27579   0.00000  Uiso   1.00
C551   C     0.62642   0.68049   0.32215   0.00000  Uiso   1.00
C552   C     0.46606   0.76626   0.16809   0.00000  Uiso   1.00
C553   C     0.49499   0.72541   0.13672   0.00000  Uiso   1.00
C554   C     0.45879   0.70529   0.09086   0.00000  Uiso   1.00
C555   C     0.46872   0.86171   0.05631   0.00000  Uiso   1.00
C556   C     0.52488   0.90513   0.32834   0.00000  Uiso   1.00
C557   C     0.50088   0.91206   0.37825   0.00000  Uiso   1.00
C558   C     0.51969   0.96466   0.40560   0.00000  Uiso   1.00
C559   C     0.51066   0.77160   0.45498   0.00000  Uiso   1.00
C560   C     0.41583   0.87493   0.03873   0.00000  Uiso   1.00
C561   C     0.56297   0.75738   0.47287   0.00000  Uiso   1.00
C562   C     0.36188   0.98749   0.26475   0.00000  Uiso   1.00
C563   C     0.65171   0.68381   0.27470   0.00000  Uiso   1.00
C564   C     0.35426   0.83657   0.34088   0.00000  Uiso   1.00
H565   H     0.39103   0.89912   0.06190   0.00000  Uiso   1.00
H566   H     0.49389   0.75076   0.42148   0.00000  Uiso   1.00
H567   H     0.47824   0.72394   0.31793   0.00000  Uiso   1.00
H568   H     0.58070   0.71767   0.37116   0.00000  Uiso   1.00
H569   H     0.45846   0.80097   0.14687   0.00000  Uiso   1.00
H570   H     0.42564   0.74731   0.17859   0.00000  Uiso   1.00
H571   H     0.53622   0.74323   0.12627   0.00000  Uiso   1.00
H572   H     0.50387   0.69120   0.15823   0.00000  Uiso   1.00
H573   H     0.41740   0.68680   0.10027   0.00000  Uiso   1.00
H574   H     0.48124   0.67506   0.07019   0.00000  Uiso   1.00
H575   H     0.45160   0.73818   0.06742   0.00000  Uiso   1.00
H576   H     0.58446   0.72767   0.45277   0.00000  Uiso   1.00
H577   H     0.50992   0.93602   0.30524   0.00000  Uiso   1.00
H578   H     0.57163   0.90847   0.33256   0.00000  Uiso   1.00
H579   H     0.45386   0.90940   0.37352   0.00000  Uiso   1.00
H580   H     0.51432   0.87981   0.40053   0.00000  Uiso   1.00
H581   H     0.56656   0.96896   0.41179   0.00000  Uiso   1.00
H582   H     0.50104   0.96657   0.44144   0.00000  Uiso   1.00
H583   H     0.50396   0.99710   0.38499   0.00000  Uiso   1.00
H584   H     0.56626   0.87126   0.10893   0.00000  Uiso   1.00
H585   H     0.43597   0.79559   0.38799   0.00000  Uiso   1.00
H586   H     0.36637   0.76825   0.09587   0.00000  Uiso   1.00
H587   H     0.62448   0.88363   0.40871   0.00000  Uiso   1.00
H588   H     0.65253   0.90063   0.49510   0.00000  Uiso   1.00
H589   H     0.66227   0.73587   0.01407   0.00000  Uiso   1.00
H590   H     0.48079   0.87571   0.09329   0.00000  Uiso   1.00
N591   N     0.48029   0.81883   0.23739   0.00000  Uiso   1.00
N592   N     0.51971   0.84784   0.26260   0.00000  Uiso   1.00
O593   O     0.63052   0.91298   0.25309   0.00000  Uiso   1.00
O594   O     0.43680   0.71053   0.31577   0.00000  Uiso   1.00
O595   O     0.64386   0.98358   0.35121   0.00000  Uiso   1.00
O596   O     0.58660   0.71599   0.33540   0.00000  Uiso   1.00
O597   O     0.50286   0.78158   0.20895   0.00000  Uiso   1.00
O598   O     0.50501   0.85464   0.30857   0.00000  Uiso   1.00
O599   O     0.36948   0.75369   0.24691   0.00000  Uiso   1.00
O600   O     0.39155   0.90368   0.24501   0.00000  Uiso   1.00
O601   O     0.60845   0.76298   0.25498   0.00000  Uiso   1.00
O602   O     0.63662   0.84063   0.32247   0.00000  Uiso   1.00
O603   O     0.36338   0.82603   0.17753   0.00000  Uiso   1.00
O604   O     0.39764   0.83134   0.31439   0.00000  Uiso   1.00
O605   O     0.60236   0.83533   0.18561   0.00000  Uiso   1.00
O606   O     0.45901   0.99427   0.24914   0.00000  Uiso   1.00
Zn607  Zn    0.60366   0.83954   0.25539   0.00000  Uiso   1.00
Zn608  Zn    0.39634   0.82713   0.24461   0.00000  Uiso   1.00
C609   C     0.68267   0.93208   0.25253   0.00000  Uiso   1.00
C610   C     0.97875   0.82966   0.15923   0.00000  Uiso   1.00
C611   C     0.69677   0.83889   0.39334   0.00000  Uiso   1.00
C612   C     0.96651   0.82052   0.10742   0.00000  Uiso   1.00
C613   C     0.67835   0.87689   0.47250   0.00000  Uiso   1.00
C614   C     0.97317   0.76476   0.03453   0.00000  Uiso   1.00
C615   C     0.99543   0.86690   0.42346   0.00000  Uiso   1.00
C616   C     0.99534   0.78391   0.08042   0.00000  Uiso   1.00
C617   C     0.74412   0.81655   0.41289   0.00000  Uiso   1.00
C618   C     0.91768   0.84034   0.08770   0.00000  Uiso   1.00
C619   C     0.76197   0.82667   0.46186   0.00000  Uiso   1.00
C620   C     0.98626   0.73511   0.25527   0.00000  Uiso   1.00
C621   C     0.89134   0.81788   0.04393   0.00000  Uiso   1.00
C622   C     0.72942   0.85910   0.49137   0.00000  Uiso   1.00
C623   C     0.92060   0.78037   0.01669   0.00000  Uiso   1.00
C624   C     0.81385   0.80929   0.48092   0.00000  Uiso   1.00
C625   C     0.83627   0.83041   0.02737   0.00000  Uiso   1.00
C626   C     0.75581   0.67444   0.27579   0.00000  Uiso   1.00
C627   C     0.95975   0.68049   0.32215   0.00000  Uiso   1.00
C628   C     0.79939   0.76626   0.16809   0.00000  Uiso   1.00
C629   C     0.82833   0.72541   0.13672   0.00000  Uiso   1.00
C630   C     0.79213   0.70529   0.09086   0.00000  Uiso   1.00
C631   C     0.80205   0.86171   0.05631   0.00000  Uiso   1.00
C632   C     0.85821   0.90513   0.32834   0.00000  Uiso   1.00
C633   C     0.83421   0.91206   0.37825   0.00000  Uiso   1.00
C634   C     0.85302   0.96466   0.40560   0.00000  Uiso   1.00
C635   C     0.84400   0.77160   0.45498   0.00000  Uiso   1.00
C636   C     0.74916   0.87493   0.03873   0.00000  Uiso   1.00
C637   C     0.89631   0.75738   0.47287   0.00000  Uiso   1.00
C638   C     0.69522   0.98749   0.26475   0.00000  Uiso   1.00
C639   C     0.98504   0.68381   0.27470   0.00000  Uiso   1.00
C640   C     0.68759   0.83657   0.34088   0.00000  Uiso   1.00
H641   H     0.72437   0.89912   0.06190   0.00000  Uiso   1.00
H642   H     0.82722   0.75076   0.42148   0.00000  Uiso   1.00
H643   H     0.81157   0.72394   0.31793   0.00000  Uiso   1.00
H644   H     0.91403   0.71767   0.37116   0.00000  Uiso   1.00
H645   H     0.79180   0.80097   0.14687   0.00000  Uiso   1.00
H646   H     0.75897   0.74731   0.17859   0.00000  Uiso   1.00
H647   H     0.86956   0.74323   0.12627   0.00000  Uiso   1.00
H648   H     0.83720   0.69120   0.15823   0.00000  Uiso   1.00
H649   H     0.75073   0.68680   0.10027   0.00000  Uiso   1.00
H650   H     0.81458   0.67506   0.07019   0.00000  Uiso   1.00
H651   H     0.78493   0.73818   0.06742   0.00000  Uiso   1.00
H652   H     0.91779   0.72767   0.45277   0.00000  Uiso   1.00
H653   H     0.84325   0.93602   0.30524   0.00000  Uiso   1.00
H654   H     0.90497   0.90847   0.33256   0.00000  Uiso   1.00
H655   H     0.78719   0.90940   0.37352   0.00000  Uiso   1.00
H656   H     0.84765   0.87981   0.40053   0.00000  Uiso   1.00
H657   H     0.89989   0.96896   0.41179   0.00000  Uiso   1.00
H658   H     0.83438   0.96657   0.44144   0.00000  Uiso   1.00
H659   H     0.83730   0.99710   0.38499   0.00000  Uiso   1.00
H660   H     0.89959   0.87126   0.10893   0.00000  Uiso   1.00
H661   H     0.76931   0.79559   0.38799   0.00000  Uiso   1.00
H662   H     0.69971   0.76825   0.09587   0.00000  Uiso   1.00
H663   H     0.95782   0.88363   0.40871   0.00000  Uiso   1.00
H664   H     0.98586   0.90063   0.49510   0.00000  Uiso   1.00
H665   H     0.99560   0.73587   0.01407   0.00000  Uiso   1.00
H666   H     0.81412   0.87571   0.09329   0.00000  Uiso   1.00
N667   N     0.81362   0.81883   0.23739   0.00000  Uiso   1.00
N668   N     0.85305   0.84784   0.26260   0.00000  Uiso   1.00
O669   O     0.96386   0.91298   0.25309   0.00000  Uiso   1.00
O670   O     0.77013   0.71053   0.31577   0.00000  Uiso   1.00
O671   O     0.97719   0.98358   0.35121   0.00000  Uiso   1.00
O672   O     0.91993   0.71599   0.33540   0.00000  Uiso   1.00
O673   O     0.83619   0.78158   0.20895   0.00000  Uiso   1.00
O674   O     0.83835   0.85464   0.30857   0.00000  Uiso   1.00
O675   O     0.70281   0.75369   0.24691   0.00000  Uiso   1.00
O676   O     0.72488   0.90368   0.24501   0.00000  Uiso   1.00
O677   O     0.94178   0.76298   0.25498   0.00000  Uiso   1.00
O678   O     0.96995   0.84063   0.32247   0.00000  Uiso   1.00
O679   O     0.69672   0.82603   0.17753   0.00000  Uiso   1.00
O680   O     0.73098   0.83134   0.31439   0.00000  Uiso   1.00
O681   O     0.93569   0.83533   0.18561   0.00000  Uiso   1.00
O682   O     0.79235   0.99427   0.24914   0.00000  Uiso   1.00
Zn683  Zn    0.93700   0.83954   0.25539   0.00000  Uiso   1.00
Zn684  Zn    0.72967   0.82713   0.24461   0.00000  Uiso   1.00
C685   C     0.01601   0.26542   0.75253   0.00000  Uiso   1.00
C686   C     0.31208   0.16299   0.65923   0.00000  Uiso   1.00
C687   C     0.03010   0.17222   0.89334   0.00000  Uiso   1.00
C688   C     0.29984   0.15386   0.60742   0.00000  Uiso   1.00
C689   C     0.01168   0.21022   0.97250   0.00000  Uiso   1.00
C690   C     0.30651   0.09810   0.53453   0.00000  Uiso   1.00
C691   C     0.32876   0.20024   0.92346   0.00000  Uiso   1.00
C692   C     0.32868   0.11725   0.58042   0.00000  Uiso   1.00
C693   C     0.07745   0.14988   0.91289   0.00000  Uiso   1.00
C694   C     0.25101   0.17368   0.58770   0.00000  Uiso   1.00
C695   C     0.09531   0.16001   0.96186   0.00000  Uiso   1.00
C696   C     0.31959   0.06845   0.75527   0.00000  Uiso   1.00
C697   C     0.22468   0.15121   0.54393   0.00000  Uiso   1.00
C698   C     0.06275   0.19243   0.99137   0.00000  Uiso   1.00
C699   C     0.25393   0.11370   0.51669   0.00000  Uiso   1.00
C700   C     0.14718   0.14263   0.98092   0.00000  Uiso   1.00
C701   C     0.16960   0.16374   0.52737   0.00000  Uiso   1.00
C702   C     0.08914   0.00778   0.77579   0.00000  Uiso   1.00
C703   C     0.29309   0.01382   0.82215   0.00000  Uiso   1.00
C704   C     0.13272   0.09960   0.66809   0.00000  Uiso   1.00
C705   C     0.16166   0.05874   0.63672   0.00000  Uiso   1.00
C706   C     0.12546   0.03862   0.59086   0.00000  Uiso   1.00
C707   C     0.13539   0.19504   0.55631   0.00000  Uiso   1.00
C708   C     0.19155   0.23846   0.82834   0.00000  Uiso   1.00
C709   C     0.16755   0.24539   0.87825   0.00000  Uiso   1.00
C710   C     0.18635   0.29799   0.90560   0.00000  Uiso   1.00
C711   C     0.17733   0.10494   0.95498   0.00000  Uiso   1.00
C712   C     0.08249   0.20827   0.53873   0.00000  Uiso   1.00
C713   C     0.22964   0.09072   0.97287   0.00000  Uiso   1.00
C714   C     0.02855   0.32082   0.76475   0.00000  Uiso   1.00
C715   C     0.31837   0.01714   0.77470   0.00000  Uiso   1.00
C716   C     0.02093   0.16990   0.84088   0.00000  Uiso   1.00
H717   H     0.05770   0.23246   0.56190   0.00000  Uiso   1.00
H718   H     0.16056   0.08410   0.92148   0.00000  Uiso   1.00
H719   H     0.14491   0.05727   0.81793   0.00000  Uiso   1.00
H720   H     0.24736   0.05101   0.87116   0.00000  Uiso   1.00
H721   H     0.12513   0.13431   0.64687   0.00000  Uiso   1.00
H722   H     0.09231   0.08065   0.67859   0.00000  Uiso   1.00
H723   H     0.20289   0.07657   0.62627   0.00000  Uiso   1.00
H724   H     0.17053   0.02453   0.65823   0.00000  Uiso   1.00
H725   H     0.08406   0.02013   0.60027   0.00000  Uiso   1.00
H726   H     0.14791   0.00839   0.57019   0.00000  Uiso   1.00
H727   H     0.11826   0.07152   0.56742   0.00000  Uiso   1.00
H728   H     0.25112   0.06100   0.95277   0.00000  Uiso   1.00
H729   H     0.17659   0.26935   0.80524   0.00000  Uiso   1.00
H730   H     0.23830   0.24180   0.83256   0.00000  Uiso   1.00
H731   H     0.12053   0.24273   0.87352   0.00000  Uiso   1.00
H732   H     0.18099   0.21314   0.90053   0.00000  Uiso   1.00
H733   H     0.23323   0.30229   0.91179   0.00000  Uiso   1.00
H734   H     0.16771   0.29990   0.94144   0.00000  Uiso   1.00
H735   H     0.17063   0.33043   0.88499   0.00000  Uiso   1.00
H736   H     0.23292   0.20460   0.60893   0.00000  Uiso   1.00
H737   H     0.10264   0.12892   0.88799   0.00000  Uiso   1.00
H738   H     0.03304   0.10158   0.59587   0.00000  Uiso   1.00
H739   H     0.29115   0.21697   0.90871   0.00000  Uiso   1.00
H740   H     0.31919   0.23396   0.99510   0.00000  Uiso   1.00
H741   H     0.32894   0.06920   0.51407   0.00000  Uiso   1.00
H742   H     0.14745   0.20905   0.59329   0.00000  Uiso   1.00
N743   N     0.14695   0.15216   0.73739   0.00000  Uiso   1.00
N744   N     0.18638   0.18117   0.76260   0.00000  Uiso   1.00
O745   O     0.29719   0.24631   0.75309   0.00000  Uiso   1.00
O746   O     0.10347   0.04387   0.81577   0.00000  Uiso   1.00
O747   O     0.31053   0.31691   0.85121   0.00000  Uiso   1.00
O748   O     0.25326   0.04932   0.83540   0.00000  Uiso   1.00
O749   O     0.16952   0.11491   0.70895   0.00000  Uiso   1.00
O750   O     0.17168   0.18797   0.80857   0.00000  Uiso   1.00
O751   O     0.03614   0.08702   0.74691   0.00000  Uiso   1.00
O752   O     0.05822   0.23702   0.74501   0.00000  Uiso   1.00
O753   O     0.27512   0.09632   0.75498   0.00000  Uiso   1.00
O754   O     0.30328   0.17397   0.82247   0.00000  Uiso   1.00
O755   O     0.03005   0.15937   0.67753   0.00000  Uiso   1.00
O756   O     0.06431   0.16467   0.81439   0.00000  Uiso   1.00
O757   O     0.26902   0.16866   0.68561   0.00000  Uiso   1.00
O758   O     0.12568   0.32761   0.74914   0.00000  Uiso   1.00
Zn759  Zn    0.27033   0.17287   0.75539   0.00000  Uiso   1.00
Zn760  Zn    0.06300   0.16046   0.74461   0.00000  Uiso   1.00
C761   C     0.34934   0.26542   0.75253   0.00000  Uiso   1.00
C762   C     0.64542   0.16299   0.65923   0.00000  Uiso   1.00
C763   C     0.36344   0.17222   0.89334   0.00000  Uiso   1.00
C764   C     0.63318   0.15386   0.60742   0.00000  Uiso   1.00
C765   C     0.34501   0.21022   0.97250   0.00000  Uiso   1.00
C766   C     0.63984   0.09810   0.53453   0.00000  Uiso   1.00
C767   C     0.66210   0.20024   0.92346   0.00000  Uiso   1.00
C768   C     0.66201   0.11725   0.58042   0.00000  Uiso   1.00
C769   C     0.41079   0.14988   0.91289   0.00000  Uiso   1.00
C770   C     0.58434   0.17368   0.58770   0.00000  Uiso   1.00
C771   C     0.42864   0.16001   0.96186   0.00000  Uiso   1.00
C772   C     0.65293   0.06845   0.75527   0.00000  Uiso   1.00
C773   C     0.55801   0.15121   0.54393   0.00000  Uiso   1.00
C774   C     0.39609   0.19243   0.99137   0.00000  Uiso   1.00
C775   C     0.58727   0.11370   0.51669   0.00000  Uiso   1.00
C776   C     0.48052   0.14263   0.98092   0.00000  Uiso   1.00
C777   C     0.50293   0.16374   0.52737   0.00000  Uiso   1.00
C778   C     0.42247   0.00778   0.77579   0.00000  Uiso   1.00
C779   C     0.62642   0.01382   0.82215   0.00000  Uiso   1.00
C780   C     0.46606   0.09960   0.66809   0.00000  Uiso   1.00
C781   C     0.49499   0.05874   0.63672   0.00000  Uiso   1.00
C782   C     0.45879   0.03862   0.59086   0.00000  Uiso   1.00
C783   C     0.46872   0.19504   0.55631   0.00000  Uiso   1.00
C784   C     0.52488   0.23846   0.82834   0.00000  Uiso   1.00
C785   C     0.50088   0.24539   0.87825   0.00000  Uiso   1.00
C786   C     0.51969   0.29799   0.90560   0.00000  Uiso   1.00
C787   C     0.51066   0.10494   0.95498   0.00000  Uiso   1.00
C788   C     0.41583   0.20827   0.53873   0.00000  Uiso   1.00
C789   C     0.56297   0.09072   0.97287   0.00000  Uiso   1.00
C790   C     0.36188   0.32082   0.76475   0.00000  Uiso   1.00
C791   C     0.65171   0.01714   0.77470   0.00000  Uiso   1.00
C792   C     0.35426   0.16990   0.84088   0.00000  Uiso   1.00
H793   H     0.39103   0.23246   0.56190   0.00000  Uiso   1.00
H794   H     0.49389   0.08410   0.92148   0.00000  Uiso   1.00
H795   H     0.47824   0.05727   0.81793   0.00000  Uiso   1.00
H796   H     0.58070   0.05101   0.87116   0.00000  Uiso   1.00
H797   H     0.45846   0.13431   0.64687   0.00000  Uiso   1.00
H798   H     0.42564   0.08065   0.67859   0.00000  Uiso   1.00
H799   H     0.53622   0.07657   0.62627   0.00000  Uiso   1.00
H800   H     0.50387   0.02453   0.65823   0.00000  Uiso   1.00
H801   H     0.41740   0.02013   0.60027   0.00000  Uiso   1.00
H802   H     0.48124   0.00839   0.57019   0.00000  Uiso   1.00
H803   H     0.45160   0.07152   0.56742   0.00000  Uiso   1.00
H804   H     0.58446   0.06100   0.95277   0.00000  Uiso   1.00
H805   H     0.50992   0.26935   0.80524   0.00000  Uiso   1.00
H806   H     0.57163   0.24180   0.83256   0.00000  Uiso   1.00
H807   H     0.45386   0.24273   0.87352   0.00000  Uiso   1.00
H808   H     0.51432   0.21314   0.90053   0.00000  Uiso   1.00
H809   H     0.56656   0.30229   0.91179   0.00000  Uiso   1.00
H810   H     0.50104   0.29990   0.94144   0.00000  Uiso   1.00
H811   H     0.50396   0.33043   0.88499   0.00000  Uiso   1.00
H812   H     0.56626   0.20460   0.60893   0.00000  Uiso   1.00
H813   H     0.43597   0.12892   0.88799   0.00000  Uiso   1.00
H814   H     0.36637   0.10158   0.59587   0.00000  Uiso   1.00
H815   H     0.62448   0.21697   0.90871   0.00000  Uiso   1.00
H816   H     0.65253   0.23396   0.99510   0.00000  Uiso   1.00
H817   H     0.66227   0.06920   0.51407   0.00000  Uiso   1.00
H818   H     0.48079   0.20905   0.59329   0.00000  Uiso   1.00
N819   N     0.48029   0.15216   0.73739   0.00000  Uiso   1.00
N820   N     0.51971   0.18117   0.76260   0.00000  Uiso   1.00
O821   O     0.63052   0.24631   0.75309   0.00000  Uiso   1.00
O822   O     0.43680   0.04387   0.81577   0.00000  Uiso   1.00
O823   O     0.64386   0.31691   0.85121   0.00000  Uiso   1.00
O824   O     0.58660   0.04932   0.83540   0.00000  Uiso   1.00
O825   O     0.50286   0.11491   0.70895   0.00000  Uiso   1.00
O826   O     0.50501   0.18797   0.80857   0.00000  Uiso   1.00
O827   O     0.36948   0.08702   0.74691   0.00000  Uiso   1.00
O828   O     0.39155   0.23702   0.74501   0.00000  Uiso   1.00
O829   O     0.60845   0.09632   0.75498   0.00000  Uiso   1.00
O830   O     0.63662   0.17397   0.82247   0.00000  Uiso   1.00
O831   O     0.36338   0.15937   0.67753   0.00000  Uiso   1.00
O832   O     0.39764   0.16467   0.81439   0.00000  Uiso   1.00
O833   O     0.60236   0.16866   0.68561   0.00000  Uiso   1.00
O834   O     0.45901   0.32761   0.74914   0.00000  Uiso   1.00
Zn835  Zn    0.60366   0.17287   0.75539   0.00000  Uiso   1.00
Zn836  Zn    0.39634   0.16046   0.74461   0.00000  Uiso   1.00
C837   C     0.68267   0.26542   0.75253   0.00000  Uiso   1.00
C838   C     0.97875   0.16299   0.65923   0.00000  Uiso   1.00
C839   C     0.69677   0.17222   0.89334   0.00000  Uiso   1.00
C840   C     0.96651   0.15386   0.60742   0.00000  Uiso   1.00
C841   C     0.67835   0.21022   0.97250   0.00000  Uiso   1.00
C842   C     0.97317   0.09810   0.53453   0.00000  Uiso   1.00
C843   C     0.99543   0.20024   0.92346   0.00000  Uiso   1.00
C844   C     0.99534   0.11725   0.58042   0.00000  Uiso   1.00
C845   C     0.74412   0.14988   0.91289   0.00000  Uiso   1.00
C846   C     0.91768   0.17368   0.58770   0.00000  Uiso   1.00
C847   C     0.76197   0.16001   0.96186   0.00000  Uiso   1.00
C848   C     0.98626   0.06845   0.75527   0.00000  Uiso   1.00
C849   C     0.89134   0.15121   0.54393   0.00000  Uiso   1.00
C850   C     0.72942   0.19243   0.99137   0.00000  Uiso   1.00
C851   C     0.92060   0.11370   0.51669   0.00000  Uiso   1.00
C852   C     0.81385   0.14263   0.98092   0.00000  Uiso   1.00
C853   C     0.83627   0.16374   0.52737   0.00000  Uiso   1.00
C854   C     0.75581   0.00778   0.77579   0.00000  Uiso   1.00
C855   C     0.95975   0.01382   0.82215   0.00000  Uiso   1.00
C856   C     0.79939   0.09960   0.66809   0.00000  Uiso   1.00
C857   C     0.82833   0.05874   0.63672   0.00000  Uiso   1.00
C858   C     0.79213   0.03862   0.59086   0.00000  Uiso   1.00
C859   C     0.80205   0.19504   0.55631   0.00000  Uiso   1.00
C860   C     0.85821   0.23846   0.82834   0.00000  Uiso   1.00
C861   C     0.83421   0.24539   0.87825   0.00000  Uiso   1.00
C862   C     0.85302   0.29799   0.90560   0.00000  Uiso   1.00
C863   C     0.84400   0.10494   0.95498   0.00000  Uiso   1.00
C864   C     0.74916   0.20827   0.53873   0.00000  Uiso   1.00
C865   C     0.89631   0.09072   0.97287   0.00000  Uiso   1.00
C866   C     0.69522   0.32082   0.76475   0.00000  Uiso   1.00
C867   C     0.98504   0.01714   0.77470   0.00000  Uiso   1.00
C868   C     0.68759   0.16990   0.84088   0.00000  Uiso   1.00
H869   H     0.72437   0.23246   0.56190   0.00000  Uiso   1.00
H870   H     0.82722   0.08410   0.92148   0.00000  Uiso   1.00
H871   H     0.81157   0.05727   0.81793   0.00000  Uiso   1.00
H872   H     0.91403   0.05101   0.87116   0.00000  Uiso   1.00
H873   H     0.79180   0.13431   0.64687   0.00000  Uiso   1.00
H874   H     0.75897   0.08065   0.67859   0.00000  Uiso   1.00
H875   H     0.86956   0.07657   0.62627   0.00000  Uiso   1.00
H876   H     0.83720   0.02453   0.65823   0.00000  Uiso   1.00
H877   H     0.75073   0.02013   0.60027   0.00000  Uiso   1.00
H878   H     0.81458   0.00839   0.57019   0.00000  Uiso   1.00
H879   H     0.78493   0.07152   0.56742   0.00000  Uiso   1.00
H880   H     0.91779   0.06100   0.95277   0.00000  Uiso   1.00
H881   H     0.84325   0.26935   0.80524   0.00000  Uiso   1.00
H882   H     0.90497   0.24180   0.83256   0.00000  Uiso   1.00
H883   H     0.78719   0.24273   0.87352   0.00000  Uiso   1.00
H884   H     0.84765   0.21314   0.90053   0.00000  Uiso   1.00
H885   H     0.89989   0.30229   0.91179   0.00000  Uiso   1.00
H886   H     0.83438   0.29990   0.94144   0.00000  Uiso   1.00
H887   H     0.83730   0.33043   0.88499   0.00000  Uiso   1.00
H888   H     0.89959   0.20460   0.60893   0.00000  Uiso   1.00
H889   H     0.76931   0.12892   0.88799   0.00000  Uiso   1.00
H890   H     0.69971   0.10158   0.59587   0.00000  Uiso   1.00
H891   H     0.95782   0.21697   0.90871   0.00000  Uiso   1.00
H892   H     0.98586   0.23396   0.99510   0.00000  Uiso   1.00
H893   H     0.99560   0.06920   0.51407   0.00000  Uiso   1.00
H894   H     0.81412   0.20905   0.59329   0.00000  Uiso   1.00
N895   N     0.81362   0.15216   0.73739   0.00000  Uiso   1.00
N896   N     0.85305   0.18117   0.76260   0.00000  Uiso   1.00
O897   O     0.96386   0.24631   0.75309   0.00000  Uiso   1.00
O898   O     0.77013   0.04387   0.81577   0.00000  Uiso   1.00
O899   O     0.97719   0.31691   0.85121   0.00000  Uiso   1.00
O900   O     0.91993   0.04932   0.83540   0.00000  Uiso   1.00
O901   O     0.83619   0.11491   0.70895   0.00000  Uiso   1.00
O902   O     0.83835   0.18797   0.80857   0.00000  Uiso   1.00
O903   O     0.70281   0.08702   0.74691   0.00000  Uiso   1.00
O904   O     0.72488   0.23702   0.74501   0.00000  Uiso   1.00
O905   O     0.94178   0.09632   0.75498   0.00000  Uiso   1.00
O906   O     0.96995   0.17397   0.82247   0.00000  Uiso   1.00
O907   O     0.69672   0.15937   0.67753   0.00000  Uiso   1.00
O908   O     0.73098   0.16467   0.81439   0.00000  Uiso   1.00
O909   O     0.93569   0.16866   0.68561   0.00000  Uiso   1.00
O910   O     0.79235   0.32761   0.74914   0.00000  Uiso   1.00
Zn911  Zn    0.93700   0.17287   0.75539   0.00000  Uiso   1.00
Zn912  Zn    0.72967   0.16046   0.74461   0.00000  Uiso   1.00
C913   C     0.01601   0.59875   0.75253   0.00000  Uiso   1.00
C914   C     0.31208   0.49632   0.65923   0.00000  Uiso   1.00
C915   C     0.03010   0.50555   0.89334   0.00000  Uiso   1.00
C916   C     0.29984   0.48719   0.60742   0.00000  Uiso   1.00
C917   C     0.01168   0.54355   0.97250   0.00000  Uiso   1.00
C918   C     0.30651   0.43143   0.53453   0.00000  Uiso   1.00
C919   C     0.32876   0.53357   0.92346   0.00000  Uiso   1.00
C920   C     0.32868   0.45058   0.58042   0.00000  Uiso   1.00
C921   C     0.07745   0.48321   0.91289   0.00000  Uiso   1.00
C922   C     0.25101   0.50701   0.58770   0.00000  Uiso   1.00
C923   C     0.09531   0.49334   0.96186   0.00000  Uiso   1.00
C924   C     0.31959   0.40178   0.75527   0.00000  Uiso   1.00
C925   C     0.22468   0.48454   0.54393   0.00000  Uiso   1.00
C926   C     0.06275   0.52576   0.99137   0.00000  Uiso   1.00
C927   C     0.25393   0.44703   0.51669   0.00000  Uiso   1.00
C928   C     0.14718   0.47596   0.98092   0.00000  Uiso   1.00
C929   C     0.16960   0.49708   0.52737   0.00000  Uiso   1.00
C930   C     0.08914   0.34111   0.77579   0.00000  Uiso   1.00
C931   C     0.29309   0.34716   0.82215   0.00000  Uiso   1.00
C932   C     0.13272   0.43293   0.66809   0.00000  Uiso   1.00
C933   C     0.16166   0.39207   0.63672   0.00000  Uiso   1.00
C934   C     0.12546   0.37196   0.59086   0.00000  Uiso   1.00
C935   C     0.13539   0.52837   0.55631   0.00000  Uiso   1.00
C936   C     0.19155   0.57180   0.82834   0.00000  Uiso   1.00
C937   C     0.16755   0.57873   0.87825   0.00000  Uiso   1.00
C938   C     0.18635   0.63133   0.90560   0.00000  Uiso   1.00
C939   C     0.17733   0.43827   0.95498   0.00000  Uiso   1.00
C940   C     0.08249   0.54160   0.53873   0.00000  Uiso   1.00
C941   C     0.22964   0.42405   0.97287   0.00000  Uiso   1.00
C942   C     0.02855   0.65415   0.76475   0.00000  Uiso   1.00
C943   C     0.31837   0.35048   0.77470   0.00000  Uiso   1.00
C944   C     0.02093   0.50324   0.84088   0.00000  Uiso   1.00
H945   H     0.05770   0.56579   0.56190   0.00000  Uiso   1.00
H946   H     0.16056   0.41743   0.92148   0.00000  Uiso   1.00
H947   H     0.14491   0.39060   0.81793   0.00000  Uiso   1.00
H948   H     0.24736   0.38434   0.87116   0.00000  Uiso   1.00
H949   H     0.12513   0.46764   0.64687   0.00000  Uiso   1.00
H950   H     0.09231   0.41398   0.67859   0.00000  Uiso   1.00
H951   H     0.20289   0.40990   0.62627   0.00000  Uiso   1.00
H952   H     0.17053   0.35786   0.65823   0.00000  Uiso   1.00
H953   H     0.08406   0.35346   0.60027   0.00000  Uiso   1.00
H954   H     0.14791   0.34173   0.57019   0.00000  Uiso   1.00
H955   H     0.11826   0.40485   0.56742   0.00000  Uiso   1.00
H956   H     0.25112   0.39434   0.95277   0.00000  Uiso   1.00
H957   H     0.17659   0.60269   0.80524   0.00000  Uiso   1.00
H958   H     0.23830   0.57513   0.83256   0.00000  Uiso   1.00
H959   H     0.12053   0.57607   0.87352   0.00000  Uiso   1.00
H960   H     0.18099   0.54648   0.90053   0.00000  Uiso   1.00
H961   H     0.23323   0.63563   0.91179   0.00000  Uiso   1.00
H962   H     0.16771   0.63323   0.94144   0.00000  Uiso   1.00
H963   H     0.17063   0.66377   0.88499   0.00000  Uiso   1.00
H964   H     0.23292   0.53793   0.60893   0.00000  Uiso   1.00
H965   H     0.10264   0.46225   0.88799   0.00000  Uiso   1.00
H966   H     0.03304   0.43492   0.59587   0.00000  Uiso   1.00
H967   H     0.29115   0.55030   0.90871   0.00000  Uiso   1.00
H968   H     0.31919   0.56729   0.99510   0.00000  Uiso   1.00
H969   H     0.32894   0.40254   0.51407   0.00000  Uiso   1.00
H970   H     0.14745   0.54238   0.59329   0.00000  Uiso   1.00
N971   N     0.14695   0.48550   0.73739   0.00000  Uiso   1.00
N972   N     0.18638   0.51450   0.76260   0.00000  Uiso   1.00
O973   O     0.29719   0.57964   0.75309   0.00000  Uiso   1.00
O974   O     0.10347   0.37720   0.81577   0.00000  Uiso   1.00
O975   O     0.31053   0.65024   0.85121   0.00000  Uiso   1.00
O976   O     0.25326   0.38266   0.83540   0.00000  Uiso   1.00
O977   O     0.16952   0.44824   0.70895   0.00000  Uiso   1.00
O978   O     0.17168   0.52131   0.80857   0.00000  Uiso   1.00
O979   O     0.03614   0.42036   0.74691   0.00000  Uiso   1.00
O980   O     0.05822   0.57035   0.74501   0.00000  Uiso   1.00
O981   O     0.27512   0.42965   0.75498   0.00000  Uiso   1.00
O982   O     0.30328   0.50730   0.82247   0.00000  Uiso   1.00
O983   O     0.03005   0.49270   0.67753   0.00000  Uiso   1.00
O984   O     0.06431   0.49801   0.81439   0.00000  Uiso   1.00
O985   O     0.26902   0.50199   0.68561   0.00000  Uiso   1.00
O986   O     0.12568   0.66094   0.74914   0.00000  Uiso   1.00
Zn987  Zn    0.27033   0.50621   0.75539   0.00000  Uiso   1.00
Zn988  Zn    0.06300   0.49379   0.74461   0.00000  Uiso   1.00
C989   C     0.34934   0.59875   0.75253   0.00000  Uiso   1.00
C990   C     0.64542   0.49632   0.65923   0.00000  Uiso   1.00
C991   C     0.36344   0.50555   0.89334   0.00000  Uiso   1.00
C992   C     0.63318   0.48719   0.60742   0.00000  Uiso   1.00
C993   C     0.34501   0.54355   0.97250   0.00000  Uiso   1.00
C994   C     0.63984   0.43143   0.53453   0.00000  Uiso   1.00
C995   C     0.66210   0.53357   0.92346   0.00000  Uiso   1.00
C996   C     0.66201   0.45058   0.58042   0.00000  Uiso   1.00
C997   C     0.41079   0.48321   0.91289   0.00000  Uiso   1.00
C998   C     0.58434   0.50701   0.58770   0.00000  Uiso   1.00
C999   C     0.42864   0.49334   0.96186   0.00000  Uiso   1.00
C1000  C     0.65293   0.40178   0.75527   0.00000  Uiso   1.00
C1001  C     0.55801   0.48454   0.54393   0.00000  Uiso   1.00
C1002  C     0.39609   0.52576   0.99137   0.00000  Uiso   1.00
C1003  C     0.58727   0.44703   0.51669   0.00000  Uiso   1.00
C1004  C     0.48052   0.47596   0.98092   0.00000  Uiso   1.00
C1005  C     0.50293   0.49708   0.52737   0.00000  Uiso   1.00
C1006  C     0.42247   0.34111   0.77579   0.00000  Uiso   1.00
C1007  C     0.62642   0.34716   0.82215   0.00000  Uiso   1.00
C1008  C     0.46606   0.43293   0.66809   0.00000  Uiso   1.00
C1009  C     0.49499   0.39207   0.63672   0.00000  Uiso   1.00
C1010  C     0.45879   0.37196   0.59086   0.00000  Uiso   1.00
C1011  C     0.46872   0.52837   0.55631   0.00000  Uiso   1.00
C1012  C     0.52488   0.57180   0.82834   0.00000  Uiso   1.00
C1013  C     0.50088   0.57873   0.87825   0.00000  Uiso   1.00
C1014  C     0.51969   0.63133   0.90560   0.00000  Uiso   1.00
C1015  C     0.51066   0.43827   0.95498   0.00000  Uiso   1.00
C1016  C     0.41583   0.54160   0.53873   0.00000  Uiso   1.00
C1017  C     0.56297   0.42405   0.97287   0.00000  Uiso   1.00
C1018  C     0.36188   0.65415   0.76475   0.00000  Uiso   1.00
C1019  C     0.65171   0.35048   0.77470   0.00000  Uiso   1.00
C1020  C     0.35426   0.50324   0.84088   0.00000  Uiso   1.00
H1021  H     0.39103   0.56579   0.56190   0.00000  Uiso   1.00
H1022  H     0.49389   0.41743   0.92148   0.00000  Uiso   1.00
H1023  H     0.47824   0.39060   0.81793   0.00000  Uiso   1.00
H1024  H     0.58070   0.38434   0.87116   0.00000  Uiso   1.00
H1025  H     0.45846   0.46764   0.64687   0.00000  Uiso   1.00
H1026  H     0.42564   0.41398   0.67859   0.00000  Uiso   1.00
H1027  H     0.53622   0.40990   0.62627   0.00000  Uiso   1.00
H1028  H     0.50387   0.35786   0.65823   0.00000  Uiso   1.00
H1029  H     0.41740   0.35346   0.60027   0.00000  Uiso   1.00
H1030  H     0.48124   0.34173   0.57019   0.00000  Uiso   1.00
H1031  H     0.45160   0.40485   0.56742   0.00000  Uiso   1.00
H1032  H     0.58446   0.39434   0.95277   0.00000  Uiso   1.00
H1033  H     0.50992   0.60269   0.80524   0.00000  Uiso   1.00
H1034  H     0.57163   0.57513   0.83256   0.00000  Uiso   1.00
H1035  H     0.45386   0.57607   0.87352   0.00000  Uiso   1.00
H1036  H     0.51432   0.54648   0.90053   0.00000  Uiso   1.00
H1037  H     0.56656   0.63563   0.91179   0.00000  Uiso   1.00
H1038  H     0.50104   0.63323   0.94144   0.00000  Uiso   1.00
H1039  H     0.50396   0.66377   0.88499   0.00000  Uiso   1.00
H1040  H     0.56626   0.53793   0.60893   0.00000  Uiso   1.00
H1041  H     0.43597   0.46225   0.88799   0.00000  Uiso   1.00
H1042  H     0.36637   0.43492   0.59587   0.00000  Uiso   1.00
H1043  H     0.62448   0.55030   0.90871   0.00000  Uiso   1.00
H1044  H     0.65253   0.56729   0.99510   0.00000  Uiso   1.00
H1045  H     0.66227   0.40254   0.51407   0.00000  Uiso   1.00
H1046  H     0.48079   0.54238   0.59329   0.00000  Uiso   1.00
N1047  N     0.48029   0.48550   0.73739   0.00000  Uiso   1.00
N1048  N     0.51971   0.51450   0.76260   0.00000  Uiso   1.00
O1049  O     0.63052   0.57964   0.75309   0.00000  Uiso   1.00
O1050  O     0.43680   0.37720   0.81577   0.00000  Uiso   1.00
O1051  O     0.64386   0.65024   0.85121   0.00000  Uiso   1.00
O1052  O     0.58660   0.38266   0.83540   0.00000  Uiso   1.00
O1053  O     0.50286   0.44824   0.70895   0.00000  Uiso   1.00
O1054  O     0.50501   0.52131   0.80857   0.00000  Uiso   1.00
O1055  O     0.36948   0.42036   0.74691   0.00000  Uiso   1.00
O1056  O     0.39155   0.57035   0.74501   0.00000  Uiso   1.00
O1057  O     0.60845   0.42965   0.75498   0.00000  Uiso   1.00
O1058  O     0.63662   0.50730   0.82247   0.00000  Uiso   1.00
O1059  O     0.36338   0.49270   0.67753   0.00000  Uiso   1.00
O1060  O     0.39764   0.49801   0.81439   0.00000  Uiso   1.00
O1061  O     0.60236   0.50199   0.68561   0.00000  Uiso   1.00
O1062  O     0.45901   0.66094   0.74914   0.00000  Uiso   1.00
Zn1063 Zn    0.60366   0.50621   0.75539   0.00000  Uiso   1.00
Zn1064 Zn    0.39634   0.49379   0.74461   0.00000  Uiso   1.00
C1065  C     0.68267   0.59875   0.75253   0.00000  Uiso   1.00
C1066  C     0.97875   0.49632   0.65923   0.00000  Uiso   1.00
C1067  C     0.69677   0.50555   0.89334   0.00000  Uiso   1.00
C1068  C     0.96651   0.48719   0.60742   0.00000  Uiso   1.00
C1069  C     0.67835   0.54355   0.97250   0.00000  Uiso   1.00
C1070  C     0.97317   0.43143   0.53453   0.00000  Uiso   1.00
C1071  C     0.99543   0.53357   0.92346   0.00000  Uiso   1.00
C1072  C     0.99534   0.45058   0.58042   0.00000  Uiso   1.00
C1073  C     0.74412   0.48321   0.91289   0.00000  Uiso   1.00
C1074  C     0.91768   0.50701   0.58770   0.00000  Uiso   1.00
C1075  C     0.76197   0.49334   0.96186   0.00000  Uiso   1.00
C1076  C     0.98626   0.40178   0.75527   0.00000  Uiso   1.00
C1077  C     0.89134   0.48454   0.54393   0.00000  Uiso   1.00
C1078  C     0.72942   0.52576   0.99137   0.00000  Uiso   1.00
C1079  C     0.92060   0.44703   0.51669   0.00000  Uiso   1.00
C1080  C     0.81385   0.47596   0.98092   0.00000  Uiso   1.00
C1081  C     0.83627   0.49708   0.52737   0.00000  Uiso   1.00
C1082  C     0.75581   0.34111   0.77579   0.00000  Uiso   1.00
C1083  C     0.95975   0.34716   0.82215   0.00000  Uiso   1.00
C1084  C     0.79939   0.43293   0.66809   0.00000  Uiso   1.00
C1085  C     0.82833   0.39207   0.63672   0.00000  Uiso   1.00
C1086  C     0.79213   0.37196   0.59086   0.00000  Uiso   1.00
C1087  C     0.80205   0.52837   0.55631   0.00000  Uiso   1.00
C1088  C     0.85821   0.57180   0.82834   0.00000  Uiso   1.00
C1089  C     0.83421   0.57873   0.87825   0.00000  Uiso   1.00
C1090  C     0.85302   0.63133   0.90560   0.00000  Uiso   1.00
C1091  C     0.84400   0.43827   0.95498   0.00000  Uiso   1.00
C1092  C     0.74916   0.54160   0.53873   0.00000  Uiso   1.00
C1093  C     0.89631   0.42405   0.97287   0.00000  Uiso   1.00
C1094  C     0.69522   0.65415   0.76475   0.00000  Uiso   1.00
C1095  C     0.98504   0.35048   0.77470   0.00000  Uiso   1.00
C1096  C     0.68759   0.50324   0.84088   0.00000  Uiso   1.00
H1097  H     0.72437   0.56579   0.56190   0.00000  Uiso   1.00
H1098  H     0.82722   0.41743   0.92148   0.00000  Uiso   1.00
H1099  H     0.81157   0.39060   0.81793   0.00000  Uiso   1.00
H1100  H     0.91403   0.38434   0.87116   0.00000  Uiso   1.00
H1101  H     0.79180   0.46764   0.64687   0.00000  Uiso   1.00
H1102  H     0.75897   0.41398   0.67859   0.00000  Uiso   1.00
H1103  H     0.86956   0.40990   0.62627   0.00000  Uiso   1.00
H1104  H     0.83720   0.35786   0.65823   0.00000  Uiso   1.00
H1105  H     0.75073   0.35346   0.60027   0.00000  Uiso   1.00
H1106  H     0.81458   0.34173   0.57019   0.00000  Uiso   1.00
H1107  H     0.78493   0.40485   0.56742   0.00000  Uiso   1.00
H1108  H     0.91779   0.39434   0.95277   0.00000  Uiso   1.00
H1109  H     0.84325   0.60269   0.80524   0.00000  Uiso   1.00
H1110  H     0.90497   0.57513   0.83256   0.00000  Uiso   1.00
H1111  H     0.78719   0.57607   0.87352   0.00000  Uiso   1.00
H1112  H     0.84765   0.54648   0.90053   0.00000  Uiso   1.00
H1113  H     0.89989   0.63563   0.91179   0.00000  Uiso   1.00
H1114  H     0.83438   0.63323   0.94144   0.00000  Uiso   1.00
H1115  H     0.83730   0.66377   0.88499   0.00000  Uiso   1.00
H1116  H     0.89959   0.53793   0.60893   0.00000  Uiso   1.00
H1117  H     0.76931   0.46225   0.88799   0.00000  Uiso   1.00
H1118  H     0.69971   0.43492   0.59587   0.00000  Uiso   1.00
H1119  H     0.95782   0.55030   0.90871   0.00000  Uiso   1.00
H1120  H     0.98586   0.56729   0.99510   0.00000  Uiso   1.00
H1121  H     0.99560   0.40254   0.51407   0.00000  Uiso   1.00
H1122  H     0.81412   0.54238   0.59329   0.00000  Uiso   1.00
N1123  N     0.81362   0.48550   0.73739   0.00000  Uiso   1.00
N1124  N     0.85305   0.51450   0.76260   0.00000  Uiso   1.00
O1125  O     0.96386   0.57964   0.75309   0.00000  Uiso   1.00
O1126  O     0.77013   0.37720   0.81577   0.00000  Uiso   1.00
O1127  O     0.97719   0.65024   0.85121   0.00000  Uiso   1.00
O1128  O     0.91993   0.38266   0.83540   0.00000  Uiso   1.00
O1129  O     0.83619   0.44824   0.70895   0.00000  Uiso   1.00
O1130  O     0.83835   0.52131   0.80857   0.00000  Uiso   1.00
O1131  O     0.70281   0.42036   0.74691   0.00000  Uiso   1.00
O1132  O     0.72488   0.57035   0.74501   0.00000  Uiso   1.00
O1133  O     0.94178   0.42965   0.75498   0.00000  Uiso   1.00
O1134  O     0.96995   0.50730   0.82247   0.00000  Uiso   1.00
O1135  O     0.69672   0.49270   0.67753   0.00000  Uiso   1.00
O1136  O     0.73098   0.49801   0.81439   0.00000  Uiso   1.00
O1137  O     0.93569   0.50199   0.68561   0.00000  Uiso   1.00
O1138  O     0.79235   0.66094   0.74914   0.00000  Uiso   1.00
Zn1139 Zn    0.93700   0.50621   0.75539   0.00000  Uiso   1.00
Zn1140 Zn    0.72967   0.49379   0.74461   0.00000  Uiso   1.00
C1141  C     0.01601   0.93208   0.75253   0.00000  Uiso   1.00
C1142  C     0.31208   0.82966   0.65923   0.00000  Uiso   1.00
C1143  C     0.03010   0.83889   0.89334   0.00000  Uiso   1.00
C1144  C     0.29984   0.82052   0.60742   0.00000  Uiso   1.00
C1145  C     0.01168   0.87689   0.97250   0.00000  Uiso   1.00
C1146  C     0.30651   0.76476   0.53453   0.00000  Uiso   1.00
C1147  C     0.32876   0.86690   0.92346   0.00000  Uiso   1.00
C1148  C     0.32868   0.78391   0.58042   0.00000  Uiso   1.00
C1149  C     0.07745   0.81655   0.91289   0.00000  Uiso   1.00
C1150  C     0.25101   0.84034   0.58770   0.00000  Uiso   1.00
C1151  C     0.09531   0.82667   0.96186   0.00000  Uiso   1.00
C1152  C     0.31959   0.73511   0.75527   0.00000  Uiso   1.00
C1153  C     0.22468   0.81788   0.54393   0.00000  Uiso   1.00
C1154  C     0.06275   0.85910   0.99137   0.00000  Uiso   1.00
C1155  C     0.25393   0.78037   0.51669   0.00000  Uiso   1.00
C1156  C     0.14718   0.80929   0.98092   0.00000  Uiso   1.00
C1157  C     0.16960   0.83041   0.52737   0.00000  Uiso   1.00
C1158  C     0.08914   0.67444   0.77579   0.00000  Uiso   1.00
C1159  C     0.29309   0.68049   0.82215   0.00000  Uiso   1.00
C1160  C     0.13272   0.76626   0.66809   0.00000  Uiso   1.00
C1161  C     0.16166   0.72541   0.63672   0.00000  Uiso   1.00
C1162  C     0.12546   0.70529   0.59086   0.00000  Uiso   1.00
C1163  C     0.13539   0.86171   0.55631   0.00000  Uiso   1.00
C1164  C     0.19155   0.90513   0.82834   0.00000  Uiso   1.00
C1165  C     0.16755   0.91206   0.87825   0.00000  Uiso   1.00
C1166  C     0.18635   0.96466   0.90560   0.00000  Uiso   1.00
C1167  C     0.17733   0.77160   0.95498   0.00000  Uiso   1.00
C1168  C     0.08249   0.87493   0.53873   0.00000  Uiso   1.00
C1169  C     0.22964   0.75738   0.97287   0.00000  Uiso   1.00
C1170  C     0.02855   0.98749   0.76475   0.00000  Uiso   1.00
C1171  C     0.31837   0.68381   0.77470   0.00000  Uiso   1.00
C1172  C     0.02093   0.83657   0.84088   0.00000  Uiso   1.00
H1173  H     0.05770   0.89912   0.56190   0.00000  Uiso   1.00
H1174  H     0.16056   0.75076   0.92148   0.00000  Uiso   1.00
H1175  H     0.14491   0.72394   0.81793   0.00000  Uiso   1.00
H1176  H     0.24736   0.71767   0.87116   0.00000  Uiso   1.00
H1177  H     0.12513   0.80097   0.64687   0.00000  Uiso   1.00
H1178  H     0.09231   0.74731   0.67859   0.00000  Uiso   1.00
H1179  H     0.20289   0.74323   0.62627   0.00000  Uiso   1.00
H1180  H     0.17053   0.69120   0.65823   0.00000  Uiso   1.00
H1181  H     0.08406   0.68680   0.60027   0.00000  Uiso   1.00
H1182  H     0.14791   0.67506   0.57019   0.00000  Uiso   1.00
H1183  H     0.11826   0.73818   0.56742   0.00000  Uiso   1.00
H1184  H     0.25112   0.72767   0.95277   0.00000  Uiso   1.00
H1185  H     0.17659   0.93602   0.80524   0.00000  Uiso   1.00
H1186  H     0.23830   0.90847   0.83256   0.00000  Uiso   1.00
H1187  H     0.12053   0.90940   0.87352   0.00000  Uiso   1.00
H1188  H     0.18099   0.87981   0.90053   0.00000  Uiso   1.00
H1189  H     0.23323   0.96896   0.91179   0.00000  Uiso   1.00
H1190  H     0.16771   0.96657   0.94144   0.00000  Uiso   1.00
H1191  H     0.17063   0.99710   0.88499   0.00000  Uiso   1.00
H1192  H     0.23292   0.87126   0.60893   0.00000  Uiso   1.00
H1193  H     0.10264   0.79559   0.88799   0.00000  Uiso   1.00
H1194  H     0.03304   0.76825   0.59587   0.00000  Uiso   1.00
H1195  H     0.29115   0.88363   0.90871   0.00000  Uiso   1.00
H1196  H     0.31919   0.90063   0.99510   0.00000  Uiso   1.00
H1197  H     0.32894   0.73587   0.51407   0.00000  Uiso   1.00
H1198  H     0.14745   0.87571   0.59329   0.00000  Uiso   1.00
N1199  N     0.14695   0.81883   0.73739   0.00000  Uiso   1.00
N1200  N     0.18638   0.84784   0.76260   0.00000  Uiso   1.00
O1201  O     0.29719   0.91298   0.75309   0.00000  Uiso   1.00
O1202  O     0.10347   0.71053   0.81577   0.00000  Uiso   1.00
O1203  O     0.31053   0.98358   0.85121   0.00000  Uiso   1.00
O1204  O     0.25326   0.71599   0.83540   0.00000  Uiso   1.00
O1205  O     0.16952   0.78158   0.70895   0.00000  Uiso   1.00
O1206  O     0.17168   0.85464   0.80857   0.00000  Uiso   1.00
O1207  O     0.03614   0.75369   0.74691   0.00000  Uiso   1.00
O1208  O     0.05822   0.90368   0.74501   0.00000  Uiso   1.00
O1209  O     0.27512   0.76298   0.75498   0.00000  Uiso   1.00
O1210  O     0.30328   0.84063   0.82247   0.00000  Uiso   1.00
O1211  O     0.03005   0.82603   0.67753   0.00000  Uiso   1.00
O1212  O     0.06431   0.83134   0.81439   0.00000  Uiso   1.00
O1213  O     0.26902   0.83533   0.68561   0.00000  Uiso   1.00
O1214  O     0.12568   0.99427   0.74914   0.00000  Uiso   1.00
Zn1215 Zn    0.27033   0.83954   0.75539   0.00000  Uiso   1.00
Zn1216 Zn    0.06300   0.82713   0.74461   0.00000  Uiso   1.00
C1217  C     0.34934   0.93208   0.75253   0.00000  Uiso   1.00
C1218  C     0.64542   0.82966   0.65923   0.00000  Uiso   1.00
C1219  C     0.36344   0.83889   0.89334   0.00000  Uiso   1.00
C1220  C     0.63318   0.82052   0.60742   0.00000  Uiso   1.00
C1221  C     0.34501   0.87689   0.97250   0.00000  Uiso   1.00
C1222  C     0.63984   0.76476   0.53453   0.00000  Uiso   1.00
C1223  C     0.66210   0.86690   0.92346   0.00000  Uiso   1.00
C1224  C     0.66201   0.78391   0.58042   0.00000  Uiso   1.00
C1225  C     0.41079   0.81655   0.91289   0.00000  Uiso   1.00
C1226  C     0.58434   0.84034   0.58770   0.00000  Uiso   1.00
C1227  C     0.42864   0.82667   0.96186   0.00000  Uiso   1.00
C1228  C     0.65293   0.73511   0.75527   0.00000  Uiso   1.00
C1229  C     0.55801   0.81788   0.54393   0.00000  Uiso   1.00
C1230  C     0.39609   0.85910   0.99137   0.00000  Uiso   1.00
C1231  C     0.58727   0.78037   0.51669   0.00000  Uiso   1.00
C1232  C     0.48052   0.80929   0.98092   0.00000  Uiso   1.00
C1233  C     0.50293   0.83041   0.52737   0.00000  Uiso   1.00
C1234  C     0.42247   0.67444   0.77579   0.00000  Uiso   1.00
C1235  C     0.62642   0.68049   0.82215   0.00000  Uiso   1.00
C1236  C     0.46606   0.76626   0.66809   0.00000  Uiso   1.00
C1237  C     0.49499   0.72541   0.63672   0.00000  Uiso   1.00
C1238  C     0.45879   0.70529   0.59086   0.00000  Uiso   1.00
C1239  C     0.46872   0.86171   0.55631   0.00000  Uiso   1.00
C1240  C     0.52488   0.90513   0.82834   0.00000  Uiso   1.00
C1241  C     0.50088   0.91206   0.87825   0.00000  Uiso   1.00
C1242  C     0.51969   0.96466   0.90560   0.00000  Uiso   1.00
C1243  C     0.51066   0.77160   0.95498   0.00000  Uiso   1.00
C1244  C     0.41583   0.87493   0.53873   0.00000  Uiso   1.00
C1245  C     0.56297   0.75738   0.97287   0.00000  Uiso   1.00
C1246  C     0.36188   0.98749   0.76475   0.00000  Uiso   1.00
C1247  C     0.65171   0.68381   0.77470   0.00000  Uiso   1.00
C1248  C     0.35426   0.83657   0.84088   0.00000  Uiso   1.00
H1249  H     0.39103   0.89912   0.56190   0.00000  Uiso   1.00
H1250  H     0.49389   0.75076   0.92148   0.00000  Uiso   1.00
H1251  H     0.47824   0.72394   0.81793   0.00000  Uiso   1.00
H1252  H     0.58070   0.71767   0.87116   0.00000  Uiso   1.00
H1253  H     0.45846   0.80097   0.64687   0.00000  Uiso   1.00
H1254  H     0.42564   0.74731   0.67859   0.00000  Uiso   1.00
H1255  H     0.53622   0.74323   0.62627   0.00000  Uiso   1.00
H1256  H     0.50387   0.69120   0.65823   0.00000  Uiso   1.00
H1257  H     0.41740   0.68680   0.60027   0.00000  Uiso   1.00
H1258  H     0.48124   0.67506   0.57019   0.00000  Uiso   1.00
H1259  H     0.45160   0.73818   0.56742   0.00000  Uiso   1.00
H1260  H     0.58446   0.72767   0.95277   0.00000  Uiso   1.00
H1261  H     0.50992   0.93602   0.80524   0.00000  Uiso   1.00
H1262  H     0.57163   0.90847   0.83256   0.00000  Uiso   1.00
H1263  H     0.45386   0.90940   0.87352   0.00000  Uiso   1.00
H1264  H     0.51432   0.87981   0.90053   0.00000  Uiso   1.00
H1265  H     0.56656   0.96896   0.91179   0.00000  Uiso   1.00
H1266  H     0.50104   0.96657   0.94144   0.00000  Uiso   1.00
H1267  H     0.50396   0.99710   0.88499   0.00000  Uiso   1.00
H1268  H     0.56626   0.87126   0.60893   0.00000  Uiso   1.00
H1269  H     0.43597   0.79559   0.88799   0.00000  Uiso   1.00
H1270  H     0.36637   0.76825   0.59587   0.00000  Uiso   1.00
H1271  H     0.62448   0.88363   0.90871   0.00000  Uiso   1.00
H1272  H     0.65253   0.90063   0.99510   0.00000  Uiso   1.00
H1273  H     0.66227   0.73587   0.51407   0.00000  Uiso   1.00
H1274  H     0.48079   0.87571   0.59329   0.00000  Uiso   1.00
N1275  N     0.48029   0.81883   0.73739   0.00000  Uiso   1.00
N1276  N     0.51971   0.84784   0.76260   0.00000  Uiso   1.00
O1277  O     0.63052   0.91298   0.75309   0.00000  Uiso   1.00
O1278  O     0.43680   0.71053   0.81577   0.00000  Uiso   1.00
O1279  O     0.64386   0.98358   0.85121   0.00000  Uiso   1.00
O1280  O     0.58660   0.71599   0.83540   0.00000  Uiso   1.00
O1281  O     0.50286   0.78158   0.70895   0.00000  Uiso   1.00
O1282  O     0.50501   0.85464   0.80857   0.00000  Uiso   1.00
O1283  O     0.36948   0.75369   0.74691   0.00000  Uiso   1.00
O1284  O     0.39155   0.90368   0.74501   0.00000  Uiso   1.00
O1285  O     0.60845   0.76298   0.75498   0.00000  Uiso   1.00
O1286  O     0.63662   0.84063   0.82247   0.00000  Uiso   1.00
O1287  O     0.36338   0.82603   0.67753   0.00000  Uiso   1.00
O1288  O     0.39764   0.83134   0.81439   0.00000  Uiso   1.00
O1289  O     0.60236   0.83533   0.68561   0.00000  Uiso   1.00
O1290  O     0.45901   0.99427   0.74914   0.00000  Uiso   1.00
Zn1291 Zn    0.60366   0.83954   0.75539   0.00000  Uiso   1.00
Zn1292 Zn    0.39634   0.82713   0.74461   0.00000  Uiso   1.00
C1293  C     0.68267   0.93208   0.75253   0.00000  Uiso   1.00
C1294  C     0.97875   0.82966   0.65923   0.00000  Uiso   1.00
C1295  C     0.69677   0.83889   0.89334   0.00000  Uiso   1.00
C1296  C     0.96651   0.82052   0.60742   0.00000  Uiso   1.00
C1297  C     0.67835   0.87689   0.97250   0.00000  Uiso   1.00
C1298  C     0.97317   0.76476   0.53453   0.00000  Uiso   1.00
C1299  C     0.99543   0.86690   0.92346   0.00000  Uiso   1.00
C1300  C     0.99534   0.78391   0.58042   0.00000  Uiso   1.00
C1301  C     0.74412   0.81655   0.91289   0.00000  Uiso   1.00
C1302  C     0.91768   0.84034   0.58770   0.00000  Uiso   1.00
C1303  C     0.76197   0.82667   0.96186   0.00000  Uiso   1.00
C1304  C     0.98626   0.73511   0.75527   0.00000  Uiso   1.00
C1305  C     0.89134   0.81788   0.54393   0.00000  Uiso   1.00
C1306  C     0.72942   0.85910   0.99137   0.00000  Uiso   1.00
C1307  C     0.92060   0.78037   0.51669   0.00000  Uiso   1.00
C1308  C     0.81385   0.80929   0.98092   0.00000  Uiso   1.00
C1309  C     0.83627   0.83041   0.52737   0.00000  Uiso   1.00
C1310  C     0.75581   0.67444   0.77579   0.00000  Uiso   1.00
C1311  C     0.95975   0.68049   0.82215   0.00000  Uiso   1.00
C1312  C     0.79939   0.76626   0.66809   0.00000  Uiso   1.00
C1313  C     0.82833   0.72541   0.63672   0.00000  Uiso   1.00
C1314  C     0.79213   0.70529   0.59086   0.00000  Uiso   1.00
C1315  C     0.80205   0.86171   0.55631   0.00000  Uiso   1.00
C1316  C     0.85821   0.90513   0.82834   0.00000  Uiso   1.00
C1317  C     0.83421   0.91206   0.87825   0.00000  Uiso   1.00
C1318  C     0.85302   0.96466   0.90560   0.00000  Uiso   1.00
C1319  C     0.84400   0.77160   0.95498   0.00000  Uiso   1.00
C1320  C     0.74916   0.87493   0.53873   0.00000  Uiso   1.00
C1321  C     0.89631   0.75738   0.97287   0.00000  Uiso   1.00
C1322  C     0.69522   0.98749   0.76475   0.00000  Uiso   1.00
C1323  C     0.98504   0.68381   0.77470   0.00000  Uiso   1.00
C1324  C     0.68759   0.83657   0.84088   0.00000  Uiso   1.00
H1325  H     0.72437   0.89912   0.56190   0.00000  Uiso   1.00
H1326  H     0.82722   0.75076   0.92148   0.00000  Uiso   1.00
H1327  H     0.81157   0.72394   0.81793   0.00000  Uiso   1.00
H1328  H     0.91403   0.71767   0.87116   0.00000  Uiso   1.00
H1329  H     0.79180   0.80097   0.64687   0.00000  Uiso   1.00
H1330  H     0.75897   0.74731   0.67859   0.00000  Uiso   1.00
H1331  H     0.86956   0.74323   0.62627   0.00000  Uiso   1.00
H1332  H     0.83720   0.69120   0.65823   0.00000  Uiso   1.00
H1333  H     0.75073   0.68680   0.60027   0.00000  Uiso   1.00
H1334  H     0.81458   0.67506   0.57019   0.00000  Uiso   1.00
H1335  H     0.78493   0.73818   0.56742   0.00000  Uiso   1.00
H1336  H     0.91779   0.72767   0.95277   0.00000  Uiso   1.00
H1337  H     0.84325   0.93602   0.80524   0.00000  Uiso   1.00
H1338  H     0.90497   0.90847   0.83256   0.00000  Uiso   1.00
H1339  H     0.78719   0.90940   0.87352   0.00000  Uiso   1.00
H1340  H     0.84765   0.87981   0.90053   0.00000  Uiso   1.00
H1341  H     0.89989   0.96896   0.91179   0.00000  Uiso   1.00
H1342  H     0.83438   0.96657   0.94144   0.00000  Uiso   1.00
H1343  H     0.83730   0.99710   0.88499   0.00000  Uiso   1.00
H1344  H     0.89959   0.87126   0.60893   0.00000  Uiso   1.00
H1345  H     0.76931   0.79559   0.88799   0.00000  Uiso   1.00
H1346  H     0.69971   0.76825   0.59587   0.00000  Uiso   1.00
H1347  H     0.95782   0.88363   0.90871   0.00000  Uiso   1.00
H1348  H     0.98586   0.90063   0.99510   0.00000  Uiso   1.00
H1349  H     0.99560   0.73587   0.51407   0.00000  Uiso   1.00
H1350  H     0.81412   0.87571   0.59329   0.00000  Uiso   1.00
N1351  N     0.81362   0.81883   0.73739   0.00000  Uiso   1.00
N1352  N     0.85305   0.84784   0.76260   0.00000  Uiso   1.00
O1353  O     0.96386   0.91298   0.75309   0.00000  Uiso   1.00
O1354  O     0.77013   0.71053   0.81577   0.00000  Uiso   1.00
O1355  O     0.97719   0.98358   0.85121   0.00000  Uiso   1.00
O1356  O     0.91993   0.71599   0.83540   0.00000  Uiso   1.00
O1357  O     0.83619   0.78158   0.70895   0.00000  Uiso   1.00
O1358  O     0.83835   0.85464   0.80857   0.00000  Uiso   1.00
O1359  O     0.70281   0.75369   0.74691   0.00000  Uiso   1.00
O1360  O     0.72488   0.90368   0.74501   0.00000  Uiso   1.00
O1361  O     0.94178   0.76298   0.75498   0.00000  Uiso   1.00
O1362  O     0.96995   0.84063   0.82247   0.00000  Uiso   1.00
O1363  O     0.69672   0.82603   0.67753   0.00000  Uiso   1.00
O1364  O     0.73098   0.83134   0.81439   0.00000  Uiso   1.00
O1365  O     0.93569   0.83533   0.68561   0.00000  Uiso   1.00
O1366  O     0.79235   0.99427   0.74914   0.00000  Uiso   1.00
Zn1367 Zn    0.93700   0.83954   0.75539   0.00000  Uiso   1.00
Zn1368 Zn    0.72967   0.82713   0.74461   0.00000  Uiso   1.00
loop_
_geom_bond_atom_site_label_1
_geom_bond_atom_site_label_2
_geom_bond_distance
_geom_bond_site_symmetry_2
_ccdc_geom_bond_type
C1     C30     1.432   .     S
C1     O68     1.290   .     A
C1     O213    1.296   1_455 S
C2     C4      1.447   .     S
C2     O73     1.300   .     A
C2     O147    1.298   .     S
C3     C9      1.387   .     A
C3     C32     1.453   .     S
C3     C159    1.400   1_455 S
C4     C8      1.395   .     A
C4     C10     1.388   .     A
C5     C14     1.402   .     A
C5     C159    1.391   1_455 S
C5     H208    1.084   1_455 S
C6     H57     1.084   .     S
C6     C8      1.388   .     A
C6     C15     1.402   .     A
C7     H55     1.082   .     S
C7     C79     1.400   .     S
C7     C81     1.391   .     S
C8     H130    1.078   .     S
C9     C11     1.397   .     A
C9     H53     1.077   .     S
C10    H52     1.077   .     S
C10    C13     1.396   .     A
C11    C16     1.416   .     A
C11    C14     1.419   .     A
C12    O69     1.308   .     A
C12    C31     1.444   .     S
C12    O143    1.282   .     S
C13    C17     1.418   .     A
C13    C15     1.419   .     A
C14    C712    1.389   .     S
C15    C713    1.385   1_554 S
C16    C27     1.416   .     A
C16    C701    1.417   .     S
C17    C23     1.418   .     A
C17    C700    1.417   1_554 S
C18    O62     1.398   .     S
C18    C486    1.496   1_545 S
C18    O530    1.223   1_545 S
C19    O64     1.396   .     S
C19    C31     1.483   .     S
C19    O519    1.224   1_545 S
C20    H38     1.105   .     S
C20    H37     1.112   .     S
C20    O65     1.401   .     S
C20    C21     1.533   .     S
C21    H39     1.111   .     S
C21    C22     1.525   .     S
C21    H40     1.112   .     S
C22    H43     1.109   .     S
C22    H42     1.111   .     S
C22    H41     1.111   .     S
C23    H58     1.076   .     S
C23    C28     1.386   .     A
C24    C25     1.531   .     S
C24    H45     1.109   .     S
C24    O66     1.399   .     S
C24    H46     1.102   .     S
C25    H47     1.109   .     S
C25    C26     1.516   .     S
C25    H48     1.111   .     S
C26    H51     1.107   .     S
C26    H50     1.111   .     S
C26    H49     1.108   .     S
C27    C29     1.385   .     A
C27    H34     1.076   .     S
C28    H33     1.084   .     S
C28    C698    1.389   1_554 S
C29    H44     1.081   .     S
C29    C699    1.385   .     S
C30    C246    1.496   .     S
C30    C411    1.347   1_455 S
C31    C562    1.347   1_545 S
C32    O72     1.307   .     A
C32    O222    1.293   1_455 S
H35    O62     1.012   .     S
H36    O64     1.008   .     S
H54    C160    1.078   1_455 S
H56    C81     1.084   .     S
N59    N60     1.287   .     D
N59    Zn76    2.032   .     S
N59    O65     1.349   .     S
N60    Zn75    2.032   .     S
N60    O66     1.344   .     S
O61    Zn75    1.937   .     S
O61    C77     1.296   .     S
O63    C247    1.224   .     S
O67    Zn76    1.937   .     S
O67    C164    1.282   1_455 S
O68    Zn76    1.956   .     S
O69    Zn75    1.956   .     S
O70    Zn75    1.968   .     S
O70    C108    1.293   .     S
O71    Zn76    1.968   .     S
O71    C154    1.298   1_455 S
O72    Zn76    1.928   .     S
O73    Zn75    1.928   .     S
O74    C246    1.223   .     S
C77    C106    1.432   .     S
C77    O144    1.290   .     A
C78    C80     1.447   .     S
C78    O149    1.300   .     A
C78    O223    1.298   .     S
C79    C85     1.387   .     A
C79    C108    1.453   .     S
C80    C84     1.395   .     A
C80    C86     1.388   .     A
C81    C90     1.402   .     A
C82    H133    1.084   .     S
C82    C84     1.388   .     A
C82    C91     1.402   .     A
C83    H131    1.082   .     S
C83    C155    1.400   .     S
C83    C157    1.391   .     S
C84    H206    1.078   .     S
C85    C87     1.397   .     A
C85    H129    1.077   .     S
C86    H128    1.077   .     S
C86    C89     1.396   .     A
C87    C92     1.416   .     A
C87    C90     1.419   .     A
C88    O145    1.308   .     A
C88    C107    1.444   .     S
C88    O219    1.282   .     S
C89    C93     1.418   .     A
C89    C91     1.419   .     A
C90    C788    1.389   .     S
C91    C789    1.385   1_554 S
C92    C103    1.416   .     A
C92    C777    1.417   .     S
C93    C99     1.418   .     A
C93    C776    1.417   1_554 S
C94    O138    1.398   .     S
C94    C562    1.496   1_545 S
C94    O606    1.223   1_545 S
C95    O140    1.396   .     S
C95    C107    1.483   .     S
C95    O595    1.224   1_545 S
C96    H114    1.105   .     S
C96    H113    1.112   .     S
C96    O141    1.401   .     S
C96    C97     1.533   .     S
C97    H115    1.111   .     S
C97    C98     1.525   .     S
C97    H116    1.112   .     S
C98    H119    1.109   .     S
C98    H118    1.111   .     S
C98    H117    1.111   .     S
C99    H134    1.076   .     S
C99    C104    1.386   .     A
C100   C101    1.531   .     S
C100   H121    1.109   .     S
C100   O142    1.399   .     S
C100   H122    1.102   .     S
C101   H123    1.109   .     S
C101   C102    1.516   .     S
C101   H124    1.111   .     S
C102   H127    1.107   .     S
C102   H126    1.111   .     S
C102   H125    1.108   .     S
C103   C105    1.385   .     A
C103   H110    1.076   .     S
C104   H109    1.084   .     S
C104   C774    1.389   1_554 S
C105   H120    1.081   .     S
C105   C775    1.385   .     S
C106   C322    1.496   .     S
C106   C259    1.347   .     S
C107   C638    1.347   1_545 S
C108   O148    1.307   .     A
H111   O138    1.012   .     S
H112   O140    1.008   .     S
H132   C157    1.084   .     S
N135   N136    1.287   .     D
N135   Zn152   2.032   .     S
N135   O141    1.349   .     S
N136   Zn151   2.032   .     S
N136   O142    1.344   .     S
O137   Zn151   1.937   .     S
O137   C153    1.296   .     S
O139   C323    1.224   .     S
O143   Zn152   1.937   .     S
O144   Zn152   1.956   .     S
O145   Zn151   1.956   .     S
O146   Zn151   1.968   .     S
O146   C184    1.293   .     S
O147   Zn152   1.968   .     S
O148   Zn152   1.928   .     S
O149   Zn151   1.928   .     S
O150   C322    1.223   .     S
C153   C182    1.432   .     S
C153   O220    1.290   .     A
C154   C156    1.447   .     S
C154   O225    1.300   .     A
C154   O71     1.298   1_655 S
C155   C161    1.387   .     A
C155   C184    1.453   .     S
C156   C160    1.395   .     A
C156   C162    1.388   .     A
C157   C166    1.402   .     A
C158   H209    1.084   .     S
C158   C160    1.388   .     A
C158   C167    1.402   .     A
C159   H207    1.082   .     S
C159   C3      1.400   1_655 S
C159   C5      1.391   1_655 S
C160   H54     1.078   1_655 S
C161   C163    1.397   .     A
C161   H205    1.077   .     S
C162   H204    1.077   .     S
C162   C165    1.396   .     A
C163   C168    1.416   .     A
C163   C166    1.419   .     A
C164   O221    1.308   .     A
C164   C183    1.444   .     S
C164   O67     1.282   1_655 S
C165   C169    1.418   .     A
C165   C167    1.419   .     A
C166   C864    1.389   .     S
C167   C865    1.385   1_554 S
C168   C179    1.416   .     A
C168   C853    1.417   .     S
C169   C175    1.418   .     A
C169   C852    1.417   1_554 S
C170   O214    1.398   .     S
C170   C638    1.496   1_545 S
C170   O682    1.223   1_545 S
C171   O216    1.396   .     S
C171   C183    1.483   .     S
C171   O671    1.224   1_545 S
C172   H190    1.105   .     S
C172   H189    1.112   .     S
C172   O217    1.401   .     S
C172   C173    1.533   .     S
C173   H191    1.111   .     S
C173   C174    1.525   .     S
C173   H192    1.112   .     S
C174   H195    1.109   .     S
C174   H194    1.111   .     S
C174   H193    1.111   .     S
C175   H210    1.076   .     S
C175   C180    1.386   .     A
C176   C177    1.531   .     S
C176   H197    1.109   .     S
C176   O218    1.399   .     S
C176   H198    1.102   .     S
C177   H199    1.109   .     S
C177   C178    1.516   .     S
C177   H200    1.111   .     S
C178   H203    1.107   .     S
C178   H202    1.111   .     S
C178   H201    1.108   .     S
C179   C181    1.385   .     A
C179   H186    1.076   .     S
C180   H185    1.084   .     S
C180   C850    1.389   1_554 S
C181   H196    1.081   .     S
C181   C851    1.385   .     S
C182   C398    1.496   .     S
C182   C335    1.347   .     S
C183   C486    1.347   1_645 S
C184   O224    1.307   .     A
H187   O214    1.012   .     S
H188   O216    1.008   .     S
H208   C5      1.084   1_655 S
N211   N212    1.287   .     D
N211   Zn228   2.032   .     S
N211   O217    1.349   .     S
N212   Zn227   2.032   .     S
N212   O218    1.344   .     S
O213   Zn227   1.937   .     S
O213   C1      1.296   1_655 S
O215   C399    1.224   .     S
O219   Zn228   1.937   .     S
O220   Zn228   1.956   .     S
O221   Zn227   1.956   .     S
O222   Zn227   1.968   .     S
O222   C32     1.293   1_655 S
O223   Zn228   1.968   .     S
O224   Zn228   1.928   .     S
O225   Zn227   1.928   .     S
O226   C398    1.223   .     S
C229   C258    1.432   .     S
C229   O296    1.290   .     A
C229   O441    1.296   1_455 S
C230   C232    1.447   .     S
C230   O301    1.300   .     A
C230   O375    1.298   .     S
C231   C237    1.387   .     A
C231   C260    1.453   .     S
C231   C387    1.400   1_455 S
C232   C236    1.395   .     A
C232   C238    1.388   .     A
C233   C242    1.402   .     A
C233   C387    1.391   1_455 S
C233   H436    1.084   1_455 S
C234   H285    1.084   .     S
C234   C236    1.388   .     A
C234   C243    1.402   .     A
C235   H283    1.082   .     S
C235   C307    1.400   .     S
C235   C309    1.391   .     S
C236   H358    1.078   .     S
C237   C239    1.397   .     A
C237   H281    1.077   .     S
C238   H280    1.077   .     S
C238   C241    1.396   .     A
C239   C244    1.416   .     A
C239   C242    1.419   .     A
C240   O297    1.308   .     A
C240   C259    1.444   .     S
C240   O371    1.282   .     S
C241   C245    1.418   .     A
C241   C243    1.419   .     A
C242   C940    1.389   .     S
C243   C941    1.385   1_554 S
C244   C255    1.416   .     A
C244   C929    1.417   .     S
C245   C251    1.418   .     A
C245   C928    1.417   1_554 S
C246   O290    1.398   .     S
C247   O292    1.396   .     S
C247   C259    1.483   .     S
C248   H266    1.105   .     S
C248   H265    1.112   .     S
C248   O293    1.401   .     S
C248   C249    1.533   .     S
C249   H267    1.111   .     S
C249   C250    1.525   .     S
C249   H268    1.112   .     S
C250   H271    1.109   .     S
C250   H270    1.111   .     S
C250   H269    1.111   .     S
C251   H286    1.076   .     S
C251   C256    1.386   .     A
C252   C253    1.531   .     S
C252   H273    1.109   .     S
C252   O294    1.399   .     S
C252   H274    1.102   .     S
C253   H275    1.109   .     S
C253   C254    1.516   .     S
C253   H276    1.111   .     S
C254   H279    1.107   .     S
C254   H278    1.111   .     S
C254   H277    1.108   .     S
C255   C257    1.385   .     A
C255   H262    1.076   .     S
C256   H261    1.084   .     S
C256   C926    1.389   1_554 S
C257   H272    1.081   .     S
C257   C927    1.385   .     S
C258   C474    1.496   .     S
C258   C639    1.347   1_455 S
C260   O300    1.307   .     A
C260   O450    1.293   1_455 S
H263   O290    1.012   .     S
H264   O292    1.008   .     S
H282   C388    1.078   1_455 S
H284   C309    1.084   .     S
N287   N288    1.287   .     D
N287   Zn304   2.032   .     S
N287   O293    1.349   .     S
N288   Zn303   2.032   .     S
N288   O294    1.344   .     S
O289   Zn303   1.937   .     S
O289   C305    1.296   .     S
O291   C475    1.224   .     S
O295   Zn304   1.937   .     S
O295   C392    1.282   1_455 S
O296   Zn304   1.956   .     S
O297   Zn303   1.956   .     S
O298   Zn303   1.968   .     S
O298   C336    1.293   .     S
O299   Zn304   1.968   .     S
O299   C382    1.298   1_455 S
O300   Zn304   1.928   .     S
O301   Zn303   1.928   .     S
O302   C474    1.223   .     S
C305   C334    1.432   .     S
C305   O372    1.290   .     A
C306   C308    1.447   .     S
C306   O377    1.300   .     A
C306   O451    1.298   .     S
C307   C313    1.387   .     A
C307   C336    1.453   .     S
C308   C312    1.395   .     A
C308   C314    1.388   .     A
C309   C318    1.402   .     A
C310   H361    1.084   .     S
C310   C312    1.388   .     A
C310   C319    1.402   .     A
C311   H359    1.082   .     S
C311   C383    1.400   .     S
C311   C385    1.391   .     S
C312   H434    1.078   .     S
C313   C315    1.397   .     A
C313   H357    1.077   .     S
C314   H356    1.077   .     S
C314   C317    1.396   .     A
C315   C320    1.416   .     A
C315   C318    1.419   .     A
C316   O373    1.308   .     A
C316   C335    1.444   .     S
C316   O447    1.282   .     S
C317   C321    1.418   .     A
C317   C319    1.419   .     A
C318   C1016   1.389   .     S
C319   C1017   1.385   1_554 S
C320   C331    1.416   .     A
C320   C1005   1.417   .     S
C321   C327    1.418   .     A
C321   C1004   1.417   1_554 S
C322   O366    1.398   .     S
C323   O368    1.396   .     S
C323   C335    1.483   .     S
C324   H342    1.105   .     S
C324   H341    1.112   .     S
C324   O369    1.401   .     S
C324   C325    1.533   .     S
C325   H343    1.111   .     S
C325   C326    1.525   .     S
C325   H344    1.112   .     S
C326   H347    1.109   .     S
C326   H346    1.111   .     S
C326   H345    1.111   .     S
C327   H362    1.076   .     S
C327   C332    1.386   .     A
C328   C329    1.531   .     S
C328   H349    1.109   .     S
C328   O370    1.399   .     S
C328   H350    1.102   .     S
C329   H351    1.109   .     S
C329   C330    1.516   .     S
C329   H352    1.111   .     S
C330   H355    1.107   .     S
C330   H354    1.111   .     S
C330   H353    1.108   .     S
C331   C333    1.385   .     A
C331   H338    1.076   .     S
C332   H337    1.084   .     S
C332   C1002   1.389   1_554 S
C333   H348    1.081   .     S
C333   C1003   1.385   .     S
C334   C550    1.496   .     S
C334   C487    1.347   .     S
C336   O376    1.307   .     A
H339   O366    1.012   .     S
H340   O368    1.008   .     S
H360   C385    1.084   .     S
N363   N364    1.287   .     D
N363   Zn380   2.032   .     S
N363   O369    1.349   .     S
N364   Zn379   2.032   .     S
N364   O370    1.344   .     S
O365   Zn379   1.937   .     S
O365   C381    1.296   .     S
O367   C551    1.224   .     S
O371   Zn380   1.937   .     S
O372   Zn380   1.956   .     S
O373   Zn379   1.956   .     S
O374   Zn379   1.968   .     S
O374   C412    1.293   .     S
O375   Zn380   1.968   .     S
O376   Zn380   1.928   .     S
O377   Zn379   1.928   .     S
O378   C550    1.223   .     S
C381   C410    1.432   .     S
C381   O448    1.290   .     A
C382   C384    1.447   .     S
C382   O453    1.300   .     A
C382   O299    1.298   1_655 S
C383   C389    1.387   .     A
C383   C412    1.453   .     S
C384   C388    1.395   .     A
C384   C390    1.388   .     A
C385   C394    1.402   .     A
C386   H437    1.084   .     S
C386   C388    1.388   .     A
C386   C395    1.402   .     A
C387   H435    1.082   .     S
C387   C231    1.400   1_655 S
C387   C233    1.391   1_655 S
C388   H282    1.078   1_655 S
C389   C391    1.397   .     A
C389   H433    1.077   .     S
C390   H432    1.077   .     S
C390   C393    1.396   .     A
C391   C396    1.416   .     A
C391   C394    1.419   .     A
C392   O449    1.308   .     A
C392   C411    1.444   .     S
C392   O295    1.282   1_655 S
C393   C397    1.418   .     A
C393   C395    1.419   .     A
C394   C1092   1.389   .     S
C395   C1093   1.385   1_554 S
C396   C407    1.416   .     A
C396   C1081   1.417   .     S
C397   C403    1.418   .     A
C397   C1080   1.417   1_554 S
C398   O442    1.398   .     S
C399   O444    1.396   .     S
C399   C411    1.483   .     S
C400   H418    1.105   .     S
C400   H417    1.112   .     S
C400   O445    1.401   .     S
C400   C401    1.533   .     S
C401   H419    1.111   .     S
C401   C402    1.525   .     S
C401   H420    1.112   .     S
C402   H423    1.109   .     S
C402   H422    1.111   .     S
C402   H421    1.111   .     S
C403   H438    1.076   .     S
C403   C408    1.386   .     A
C404   C405    1.531   .     S
C404   H425    1.109   .     S
C404   O446    1.399   .     S
C404   H426    1.102   .     S
C405   H427    1.109   .     S
C405   C406    1.516   .     S
C405   H428    1.111   .     S
C406   H431    1.107   .     S
C406   H430    1.111   .     S
C406   H429    1.108   .     S
C407   C409    1.385   .     A
C407   H414    1.076   .     S
C408   H413    1.084   .     S
C408   C1078   1.389   1_554 S
C409   H424    1.081   .     S
C409   C1079   1.385   .     S
C410   C626    1.496   .     S
C410   C563    1.347   .     S
C411   C30     1.347   1_655 S
C412   O452    1.307   .     A
H415   O442    1.012   .     S
H416   O444    1.008   .     S
H436   C233    1.084   1_655 S
N439   N440    1.287   .     D
N439   Zn456   2.032   .     S
N439   O445    1.349   .     S
N440   Zn455   2.032   .     S
N440   O446    1.344   .     S
O441   Zn455   1.937   .     S
O441   C229    1.296   1_655 S
O443   C627    1.224   .     S
O447   Zn456   1.937   .     S
O448   Zn456   1.956   .     S
O449   Zn455   1.956   .     S
O450   Zn455   1.968   .     S
O450   C260    1.293   1_655 S
O451   Zn456   1.968   .     S
O452   Zn456   1.928   .     S
O453   Zn455   1.928   .     S
O454   C626    1.223   .     S
C457   C486    1.432   .     S
C457   O524    1.290   .     A
C457   O669    1.296   1_455 S
C458   C460    1.447   .     S
C458   O529    1.300   .     A
C458   O603    1.298   .     S
C459   C465    1.387   .     A
C459   C488    1.453   .     S
C459   C615    1.400   1_455 S
C460   C464    1.395   .     A
C460   C466    1.388   .     A
C461   C470    1.402   .     A
C461   C615    1.391   1_455 S
C461   H664    1.084   1_455 S
C462   H513    1.084   .     S
C462   C464    1.388   .     A
C462   C471    1.402   .     A
C463   H511    1.082   .     S
C463   C535    1.400   .     S
C463   C537    1.391   .     S
C464   H586    1.078   .     S
C465   C467    1.397   .     A
C465   H509    1.077   .     S
C466   H508    1.077   .     S
C466   C469    1.396   .     A
C467   C472    1.416   .     A
C467   C470    1.419   .     A
C468   O525    1.308   .     A
C468   C487    1.444   .     S
C468   O599    1.282   .     S
C469   C473    1.418   .     A
C469   C471    1.419   .     A
C470   C1168   1.389   .     S
C471   C1169   1.385   1_554 S
C472   C483    1.416   .     A
C472   C1157   1.417   .     S
C473   C479    1.418   .     A
C473   C1156   1.417   1_554 S
C474   O518    1.398   .     S
C475   O520    1.396   .     S
C475   C487    1.483   .     S
C476   H494    1.105   .     S
C476   H493    1.112   .     S
C476   O521    1.401   .     S
C476   C477    1.533   .     S
C477   H495    1.111   .     S
C477   C478    1.525   .     S
C477   H496    1.112   .     S
C478   H499    1.109   .     S
C478   H498    1.111   .     S
C478   H497    1.111   .     S
C479   H514    1.076   .     S
C479   C484    1.386   .     A
C480   C481    1.531   .     S
C480   H501    1.109   .     S
C480   O522    1.399   .     S
C480   H502    1.102   .     S
C481   H503    1.109   .     S
C481   C482    1.516   .     S
C481   H504    1.111   .     S
C482   H507    1.107   .     S
C482   H506    1.111   .     S
C482   H505    1.108   .     S
C483   C485    1.385   .     A
C483   H490    1.076   .     S
C484   H489    1.084   .     S
C484   C1154   1.389   1_554 S
C485   H500    1.081   .     S
C485   C1155   1.385   .     S
C486   C18     1.496   1_565 S
C486   C183    1.347   1_465 S
C488   O528    1.307   .     A
C488   O678    1.293   1_455 S
H491   O518    1.012   .     S
H492   O520    1.008   .     S
H510   C616    1.078   1_455 S
H512   C537    1.084   .     S
N515   N516    1.287   .     D
N515   Zn532   2.032   .     S
N515   O521    1.349   .     S
N516   Zn531   2.032   .     S
N516   O522    1.344   .     S
O517   Zn531   1.937   .     S
O517   C533    1.296   .     S
O519   C19     1.224   1_565 S
O523   Zn532   1.937   .     S
O523   C620    1.282   1_455 S
O524   Zn532   1.956   .     S
O525   Zn531   1.956   .     S
O526   Zn531   1.968   .     S
O526   C564    1.293   .     S
O527   Zn532   1.968   .     S
O527   C610    1.298   1_455 S
O528   Zn532   1.928   .     S
O529   Zn531   1.928   .     S
O530   C18     1.223   1_565 S
C533   C562    1.432   .     S
C533   O600    1.290   .     A
C534   C536    1.447   .     S
C534   O605    1.300   .     A
C534   O679    1.298   .     S
C535   C541    1.387   .     A
C535   C564    1.453   .     S
C536   C540    1.395   .     A
C536   C542    1.388   .     A
C537   C546    1.402   .     A
C538   H589    1.084   .     S
C538   C540    1.388   .     A
C538   C547    1.402   .     A
C539   H587    1.082   .     S
C539   C611    1.400   .     S
C539   C613    1.391   .     S
C540   H662    1.078   .     S
C541   C543    1.397   .     A
C541   H585    1.077   .     S
C542   H584    1.077   .     S
C542   C545    1.396   .     A
C543   C548    1.416   .     A
C543   C546    1.419   .     A
C544   O601    1.308   .     A
C544   C563    1.444   .     S
C544   O675    1.282   .     S
C545   C549    1.418   .     A
C545   C547    1.419   .     A
C546   C1244   1.389   .     S
C547   C1245   1.385   1_554 S
C548   C559    1.416   .     A
C548   C1233   1.417   .     S
C549   C555    1.418   .     A
C549   C1232   1.417   1_554 S
C550   O594    1.398   .     S
C551   O596    1.396   .     S
C551   C563    1.483   .     S
C552   H570    1.105   .     S
C552   H569    1.112   .     S
C552   O597    1.401   .     S
C552   C553    1.533   .     S
C553   H571    1.111   .     S
C553   C554    1.525   .     S
C553   H572    1.112   .     S
C554   H575    1.109   .     S
C554   H574    1.111   .     S
C554   H573    1.111   .     S
C555   H590    1.076   .     S
C555   C560    1.386   .     A
C556   C557    1.531   .     S
C556   H577    1.109   .     S
C556   O598    1.399   .     S
C556   H578    1.102   .     S
C557   H579    1.109   .     S
C557   C558    1.516   .     S
C557   H580    1.111   .     S
C558   H583    1.107   .     S
C558   H582    1.111   .     S
C558   H581    1.108   .     S
C559   C561    1.385   .     A
C559   H566    1.076   .     S
C560   H565    1.084   .     S
C560   C1230   1.389   1_554 S
C561   H576    1.081   .     S
C561   C1231   1.385   .     S
C562   C94     1.496   1_565 S
C562   C31     1.347   1_565 S
C564   O604    1.307   .     A
H567   O594    1.012   .     S
H568   O596    1.008   .     S
H588   C613    1.084   .     S
N591   N592    1.287   .     D
N591   Zn608   2.032   .     S
N591   O597    1.349   .     S
N592   Zn607   2.032   .     S
N592   O598    1.344   .     S
O593   Zn607   1.937   .     S
O593   C609    1.296   .     S
O595   C95     1.224   1_565 S
O599   Zn608   1.937   .     S
O600   Zn608   1.956   .     S
O601   Zn607   1.956   .     S
O602   Zn607   1.968   .     S
O602   C640    1.293   .     S
O603   Zn608   1.968   .     S
O604   Zn608   1.928   .     S
O605   Zn607   1.928   .     S
O606   C94     1.223   1_565 S
C609   C638    1.432   .     S
C609   O676    1.290   .     A
C610   C612    1.447   .     S
C610   O681    1.300   .     A
C610   O527    1.298   1_655 S
C611   C617    1.387   .     A
C611   C640    1.453   .     S
C612   C616    1.395   .     A
C612   C618    1.388   .     A
C613   C622    1.402   .     A
C614   H665    1.084   .     S
C614   C616    1.388   .     A
C614   C623    1.402   .     A
C615   H663    1.082   .     S
C615   C459    1.400   1_655 S
C615   C461    1.391   1_655 S
C616   H510    1.078   1_655 S
C617   C619    1.397   .     A
C617   H661    1.077   .     S
C618   H660    1.077   .     S
C618   C621    1.396   .     A
C619   C624    1.416   .     A
C619   C622    1.419   .     A
C620   O677    1.308   .     A
C620   C639    1.444   .     S
C620   O523    1.282   1_655 S
C621   C625    1.418   .     A
C621   C623    1.419   .     A
C622   C1320   1.389   .     S
C623   C1321   1.385   1_554 S
C624   C635    1.416   .     A
C624   C1309   1.417   .     S
C625   C631    1.418   .     A
C625   C1308   1.417   1_554 S
C626   O670    1.398   .     S
C627   O672    1.396   .     S
C627   C639    1.483   .     S
C628   H646    1.105   .     S
C628   H645    1.112   .     S
C628   O673    1.401   .     S
C628   C629    1.533   .     S
C629   H647    1.111   .     S
C629   C630    1.525   .     S
C629   H648    1.112   .     S
C630   H651    1.109   .     S
C630   H650    1.111   .     S
C630   H649    1.111   .     S
C631   H666    1.076   .     S
C631   C636    1.386   .     A
C632   C633    1.531   .     S
C632   H653    1.109   .     S
C632   O674    1.399   .     S
C632   H654    1.102   .     S
C633   H655    1.109   .     S
C633   C634    1.516   .     S
C633   H656    1.111   .     S
C634   H659    1.107   .     S
C634   H658    1.111   .     S
C634   H657    1.108   .     S
C635   C637    1.385   .     A
C635   H642    1.076   .     S
C636   H641    1.084   .     S
C636   C1306   1.389   1_554 S
C637   H652    1.081   .     S
C637   C1307   1.385   .     S
C638   C170    1.496   1_565 S
C638   C107    1.347   1_565 S
C639   C258    1.347   1_655 S
C640   O680    1.307   .     A
H643   O670    1.012   .     S
H644   O672    1.008   .     S
H664   C461    1.084   1_655 S
N667   N668    1.287   .     D
N667   Zn684   2.032   .     S
N667   O673    1.349   .     S
N668   Zn683   2.032   .     S
N668   O674    1.344   .     S
O669   Zn683   1.937   .     S
O669   C457    1.296   1_655 S
O671   C171    1.224   1_565 S
O675   Zn684   1.937   .     S
O676   Zn684   1.956   .     S
O677   Zn683   1.956   .     S
O678   Zn683   1.968   .     S
O678   C488    1.293   1_655 S
O679   Zn684   1.968   .     S
O680   Zn684   1.928   .     S
O681   Zn683   1.928   .     S
O682   C170    1.223   1_565 S
C685   C714    1.432   .     S
C685   O752    1.290   .     A
C685   O897    1.296   1_455 S
C686   C688    1.447   .     S
C686   O757    1.300   .     A
C686   O831    1.298   .     S
C687   C693    1.387   .     A
C687   C716    1.453   .     S
C687   C843    1.400   1_455 S
C688   C692    1.395   .     A
C688   C694    1.388   .     A
C689   C698    1.402   .     A
C689   C843    1.391   1_455 S
C689   H892    1.084   1_455 S
C690   H741    1.084   .     S
C690   C692    1.388   .     A
C690   C699    1.402   .     A
C691   H739    1.082   .     S
C691   C763    1.400   .     S
C691   C765    1.391   .     S
C692   H814    1.078   .     S
C693   C695    1.397   .     A
C693   H737    1.077   .     S
C694   H736    1.077   .     S
C694   C697    1.396   .     A
C695   C700    1.416   .     A
C695   C698    1.419   .     A
C696   O753    1.308   .     A
C696   C715    1.444   .     S
C696   O827    1.282   .     S
C697   C701    1.418   .     A
C697   C699    1.419   .     A
C698   C28     1.389   1_556 S
C700   C711    1.416   .     A
C700   C17     1.417   1_556 S
C701   C707    1.418   .     A
C702   O746    1.398   .     S
C702   C1170   1.496   1_545 S
C702   O1214   1.223   1_545 S
C703   O748    1.396   .     S
C703   C715    1.483   .     S
C703   O1203   1.224   1_545 S
C704   H722    1.105   .     S
C704   H721    1.112   .     S
C704   O749    1.401   .     S
C704   C705    1.533   .     S
C705   H723    1.111   .     S
C705   C706    1.525   .     S
C705   H724    1.112   .     S
C706   H727    1.109   .     S
C706   H726    1.111   .     S
C706   H725    1.111   .     S
C707   H742    1.076   .     S
C707   C712    1.386   .     A
C708   C709    1.531   .     S
C708   H729    1.109   .     S
C708   O750    1.399   .     S
C708   H730    1.102   .     S
C709   H731    1.109   .     S
C709   C710    1.516   .     S
C709   H732    1.111   .     S
C710   H735    1.107   .     S
C710   H734    1.111   .     S
C710   H733    1.108   .     S
C711   C713    1.385   .     A
C711   H718    1.076   .     S
C712   H717    1.084   .     S
C713   H728    1.081   .     S
C713   C15     1.385   1_556 S
C714   C930    1.496   .     S
C714   C1095   1.347   1_455 S
C715   C1246   1.347   1_545 S
C716   O756    1.307   .     A
C716   O906    1.293   1_455 S
H719   O746    1.012   .     S
H720   O748    1.008   .     S
H738   C844    1.078   1_455 S
H740   C765    1.084   .     S
N743   N744    1.287   .     D
N743   Zn760   2.032   .     S
N743   O749    1.349   .     S
N744   Zn759   2.032   .     S
N744   O750    1.344   .     S
O745   Zn759   1.937   .     S
O745   C761    1.296   .     S
O747   C931    1.224   .     S
O751   Zn760   1.937   .     S
O751   C848    1.282   1_455 S
O752   Zn760   1.956   .     S
O753   Zn759   1.956   .     S
O754   Zn759   1.968   .     S
O754   C792    1.293   .     S
O755   Zn760   1.968   .     S
O755   C838    1.298   1_455 S
O756   Zn760   1.928   .     S
O757   Zn759   1.928   .     S
O758   C930    1.223   .     S
C761   C790    1.432   .     S
C761   O828    1.290   .     A
C762   C764    1.447   .     S
C762   O833    1.300   .     A
C762   O907    1.298   .     S
C763   C769    1.387   .     A
C763   C792    1.453   .     S
C764   C768    1.395   .     A
C764   C770    1.388   .     A
C765   C774    1.402   .     A
C766   H817    1.084   .     S
C766   C768    1.388   .     A
C766   C775    1.402   .     A
C767   H815    1.082   .     S
C767   C839    1.400   .     S
C767   C841    1.391   .     S
C768   H890    1.078   .     S
C769   C771    1.397   .     A
C769   H813    1.077   .     S
C770   H812    1.077   .     S
C770   C773    1.396   .     A
C771   C776    1.416   .     A
C771   C774    1.419   .     A
C772   O829    1.308   .     A
C772   C791    1.444   .     S
C772   O903    1.282   .     S
C773   C777    1.418   .     A
C773   C775    1.419   .     A
C774   C104    1.389   1_556 S
C776   C787    1.416   .     A
C776   C93     1.417   1_556 S
C777   C783    1.418   .     A
C778   O822    1.398   .     S
C778   C1246   1.496   1_545 S
C778   O1290   1.223   1_545 S
C779   O824    1.396   .     S
C779   C791    1.483   .     S
C779   O1279   1.224   1_545 S
C780   H798    1.105   .     S
C780   H797    1.112   .     S
C780   O825    1.401   .     S
C780   C781    1.533   .     S
C781   H799    1.111   .     S
C781   C782    1.525   .     S
C781   H800    1.112   .     S
C782   H803    1.109   .     S
C782   H802    1.111   .     S
C782   H801    1.111   .     S
C783   H818    1.076   .     S
C783   C788    1.386   .     A
C784   C785    1.531   .     S
C784   H805    1.109   .     S
C784   O826    1.399   .     S
C784   H806    1.102   .     S
C785   H807    1.109   .     S
C785   C786    1.516   .     S
C785   H808    1.111   .     S
C786   H811    1.107   .     S
C786   H810    1.111   .     S
C786   H809    1.108   .     S
C787   C789    1.385   .     A
C787   H794    1.076   .     S
C788   H793    1.084   .     S
C789   H804    1.081   .     S
C789   C91     1.385   1_556 S
C790   C1006   1.496   .     S
C790   C943    1.347   .     S
C791   C1322   1.347   1_545 S
C792   O832    1.307   .     A
H795   O822    1.012   .     S
H796   O824    1.008   .     S
H816   C841    1.084   .     S
N819   N820    1.287   .     D
N819   Zn836   2.032   .     S
N819   O825    1.349   .     S
N820   Zn835   2.032   .     S
N820   O826    1.344   .     S
O821   Zn835   1.937   .     S
O821   C837    1.296   .     S
O823   C1007   1.224   .     S
O827   Zn836   1.937   .     S
O828   Zn836   1.956   .     S
O829   Zn835   1.956   .     S
O830   Zn835   1.968   .     S
O830   C868    1.293   .     S
O831   Zn836   1.968   .     S
O832   Zn836   1.928   .     S
O833   Zn835   1.928   .     S
O834   C1006   1.223   .     S
C837   C866    1.432   .     S
C837   O904    1.290   .     A
C838   C840    1.447   .     S
C838   O909    1.300   .     A
C838   O755    1.298   1_655 S
C839   C845    1.387   .     A
C839   C868    1.453   .     S
C840   C844    1.395   .     A
C840   C846    1.388   .     A
C841   C850    1.402   .     A
C842   H893    1.084   .     S
C842   C844    1.388   .     A
C842   C851    1.402   .     A
C843   H891    1.082   .     S
C843   C687    1.400   1_655 S
C843   C689    1.391   1_655 S
C844   H738    1.078   1_655 S
C845   C847    1.397   .     A
C845   H889    1.077   .     S
C846   H888    1.077   .     S
C846   C849    1.396   .     A
C847   C852    1.416   .     A
C847   C850    1.419   .     A
C848   O905    1.308   .     A
C848   C867    1.444   .     S
C848   O751    1.282   1_655 S
C849   C853    1.418   .     A
C849   C851    1.419   .     A
C850   C180    1.389   1_556 S
C852   C863    1.416   .     A
C852   C169    1.417   1_556 S
C853   C859    1.418   .     A
C854   O898    1.398   .     S
C854   C1322   1.496   1_545 S
C854   O1366   1.223   1_545 S
C855   O900    1.396   .     S
C855   C867    1.483   .     S
C855   O1355   1.224   1_545 S
C856   H874    1.105   .     S
C856   H873    1.112   .     S
C856   O901    1.401   .     S
C856   C857    1.533   .     S
C857   H875    1.111   .     S
C857   C858    1.525   .     S
C857   H876    1.112   .     S
C858   H879    1.109   .     S
C858   H878    1.111   .     S
C858   H877    1.111   .     S
C859   H894    1.076   .     S
C859   C864    1.386   .     A
C860   C861    1.531   .     S
C860   H881    1.109   .     S
C860   O902    1.399   .     S
C860   H882    1.102   .     S
C861   H883    1.109   .     S
C861   C862    1.516   .     S
C861   H884    1.111   .     S
C862   H887    1.107   .     S
C862   H886    1.111   .     S
C862   H885    1.108   .     S
C863   C865    1.385   .     A
C863   H870    1.076   .     S
C864   H869    1.084   .     S
C865   H880    1.081   .     S
C865   C167    1.385   1_556 S
C866   C1082   1.496   .     S
C866   C1019   1.347   .     S
C867   C1170   1.347   1_645 S
C868   O908    1.307   .     A
H871   O898    1.012   .     S
H872   O900    1.008   .     S
H892   C689    1.084   1_655 S
N895   N896    1.287   .     D
N895   Zn912   2.032   .     S
N895   O901    1.349   .     S
N896   Zn911   2.032   .     S
N896   O902    1.344   .     S
O897   Zn911   1.937   .     S
O897   C685    1.296   1_655 S
O899   C1083   1.224   .     S
O903   Zn912   1.937   .     S
O904   Zn912   1.956   .     S
O905   Zn911   1.956   .     S
O906   Zn911   1.968   .     S
O906   C716    1.293   1_655 S
O907   Zn912   1.968   .     S
O908   Zn912   1.928   .     S
O909   Zn911   1.928   .     S
O910   C1082   1.223   .     S
C913   C942    1.432   .     S
C913   O980    1.290   .     A
C913   O1125   1.296   1_455 S
C914   C916    1.447   .     S
C914   O985    1.300   .     A
C914   O1059   1.298   .     S
C915   C921    1.387   .     A
C915   C944    1.453   .     S
C915   C1071   1.400   1_455 S
C916   C920    1.395   .     A
C916   C922    1.388   .     A
C917   C926    1.402   .     A
C917   C1071   1.391   1_455 S
C917   H1120   1.084   1_455 S
C918   H969    1.084   .     S
C918   C920    1.388   .     A
C918   C927    1.402   .     A
C919   H967    1.082   .     S
C919   C991    1.400   .     S
C919   C993    1.391   .     S
C920   H1042   1.078   .     S
C921   C923    1.397   .     A
C921   H965    1.077   .     S
C922   H964    1.077   .     S
C922   C925    1.396   .     A
C923   C928    1.416   .     A
C923   C926    1.419   .     A
C924   O981    1.308   .     A
C924   C943    1.444   .     S
C924   O1055   1.282   .     S
C925   C929    1.418   .     A
C925   C927    1.419   .     A
C926   C256    1.389   1_556 S
C928   C939    1.416   .     A
C928   C245    1.417   1_556 S
C929   C935    1.418   .     A
C930   O974    1.398   .     S
C931   O976    1.396   .     S
C931   C943    1.483   .     S
C932   H950    1.105   .     S
C932   H949    1.112   .     S
C932   O977    1.401   .     S
C932   C933    1.533   .     S
C933   H951    1.111   .     S
C933   C934    1.525   .     S
C933   H952    1.112   .     S
C934   H955    1.109   .     S
C934   H954    1.111   .     S
C934   H953    1.111   .     S
C935   H970    1.076   .     S
C935   C940    1.386   .     A
C936   C937    1.531   .     S
C936   H957    1.109   .     S
C936   O978    1.399   .     S
C936   H958    1.102   .     S
C937   H959    1.109   .     S
C937   C938    1.516   .     S
C937   H960    1.111   .     S
C938   H963    1.107   .     S
C938   H962    1.111   .     S
C938   H961    1.108   .     S
C939   C941    1.385   .     A
C939   H946    1.076   .     S
C940   H945    1.084   .     S
C941   H956    1.081   .     S
C941   C243    1.385   1_556 S
C942   C1158   1.496   .     S
C942   C1323   1.347   1_455 S
C944   O984    1.307   .     A
C944   O1134   1.293   1_455 S
H947   O974    1.012   .     S
H948   O976    1.008   .     S
H966   C1072   1.078   1_455 S
H968   C993    1.084   .     S
N971   N972    1.287   .     D
N971   Zn988   2.032   .     S
N971   O977    1.349   .     S
N972   Zn987   2.032   .     S
N972   O978    1.344   .     S
O973   Zn987   1.937   .     S
O973   C989    1.296   .     S
O975   C1159   1.224   .     S
O979   Zn988   1.937   .     S
O979   C1076   1.282   1_455 S
O980   Zn988   1.956   .     S
O981   Zn987   1.956   .     S
O982   Zn987   1.968   .     S
O982   C1020   1.293   .     S
O983   Zn988   1.968   .     S
O983   C1066   1.298   1_455 S
O984   Zn988   1.928   .     S
O985   Zn987   1.928   .     S
O986   C1158   1.223   .     S
C989   C1018   1.432   .     S
C989   O1056   1.290   .     A
C990   C992    1.447   .     S
C990   O1061   1.300   .     A
C990   O1135   1.298   .     S
C991   C997    1.387   .     A
C991   C1020   1.453   .     S
C992   C996    1.395   .     A
C992   C998    1.388   .     A
C993   C1002   1.402   .     A
C994   H1045   1.084   .     S
C994   C996    1.388   .     A
C994   C1003   1.402   .     A
C995   H1043   1.082   .     S
C995   C1067   1.400   .     S
C995   C1069   1.391   .     S
C996   H1118   1.078   .     S
C997   C999    1.397   .     A
C997   H1041   1.077   .     S
C998   H1040   1.077   .     S
C998   C1001   1.396   .     A
C999   C1004   1.416   .     A
C999   C1002   1.419   .     A
C1000  O1057   1.308   .     A
C1000  C1019   1.444   .     S
C1000  O1131   1.282   .     S
C1001  C1005   1.418   .     A
C1001  C1003   1.419   .     A
C1002  C332    1.389   1_556 S
C1004  C1015   1.416   .     A
C1004  C321    1.417   1_556 S
C1005  C1011   1.418   .     A
C1006  O1050   1.398   .     S
C1007  O1052   1.396   .     S
C1007  C1019   1.483   .     S
C1008  H1026   1.105   .     S
C1008  H1025   1.112   .     S
C1008  O1053   1.401   .     S
C1008  C1009   1.533   .     S
C1009  H1027   1.111   .     S
C1009  C1010   1.525   .     S
C1009  H1028   1.112   .     S
C1010  H1031   1.109   .     S
C1010  H1030   1.111   .     S
C1010  H1029   1.111   .     S
C1011  H1046   1.076   .     S
C1011  C1016   1.386   .     A
C1012  C1013   1.531   .     S
C1012  H1033   1.109   .     S
C1012  O1054   1.399   .     S
C1012  H1034   1.102   .     S
C1013  H1035   1.109   .     S
C1013  C1014   1.516   .     S
C1013  H1036   1.111   .     S
C1014  H1039   1.107   .     S
C1014  H1038   1.111   .     S
C1014  H1037   1.108   .     S
C1015  C1017   1.385   .     A
C1015  H1022   1.076   .     S
C1016  H1021   1.084   .     S
C1017  H1032   1.081   .     S
C1017  C319    1.385   1_556 S
C1018  C1234   1.496   .     S
C1018  C1171   1.347   .     S
C1020  O1060   1.307   .     A
H1023  O1050   1.012   .     S
H1024  O1052   1.008   .     S
H1044  C1069   1.084   .     S
N1047  N1048   1.287   .     D
N1047  Zn1064  2.032   .     S
N1047  O1053   1.349   .     S
N1048  Zn1063  2.032   .     S
N1048  O1054   1.344   .     S
O1049  Zn1063  1.937   .     S
O1049  C1065   1.296   .     S
O1051  C1235   1.224   .     S
O1055  Zn1064  1.937   .     S
O1056  Zn1064  1.956   .     S
O1057  Zn1063  1.956   .     S
O1058  Zn1063  1.968   .     S
O1058  C1096   1.293   .     S
O1059  Zn1064  1.968   .     S
O1060  Zn1064  1.928   .     S
O1061  Zn1063  1.928   .     S
O1062  C1234   1.223   .     S
C1065  C1094   1.432   .     S
C1065  O1132   1.290   .     A
C1066  C1068   1.447   .     S
C1066  O1137   1.300   .     A
C1066  O983    1.298   1_655 S
C1067  C1073   1.387   .     A
C1067  C1096   1.453   .     S
C1068  C1072   1.395   .     A
C1068  C1074   1.388   .     A
C1069  C1078   1.402   .     A
C1070  H1121   1.084   .     S
C1070  C1072   1.388   .     A
C1070  C1079   1.402   .     A
C1071  H1119   1.082   .     S
C1071  C915    1.400   1_655 S
C1071  C917    1.391   1_655 S
C1072  H966    1.078   1_655 S
C1073  C1075   1.397   .     A
C1073  H1117   1.077   .     S
C1074  H1116   1.077   .     S
C1074  C1077   1.396   .     A
C1075  C1080   1.416   .     A
C1075  C1078   1.419   .     A
C1076  O1133   1.308   .     A
C1076  C1095   1.444   .     S
C1076  O979    1.282   1_655 S
C1077  C1081   1.418   .     A
C1077  C1079   1.419   .     A
C1078  C408    1.389   1_556 S
C1080  C1091   1.416   .     A
C1080  C397    1.417   1_556 S
C1081  C1087   1.418   .     A
C1082  O1126   1.398   .     S
C1083  O1128   1.396   .     S
C1083  C1095   1.483   .     S
C1084  H1102   1.105   .     S
C1084  H1101   1.112   .     S
C1084  O1129   1.401   .     S
C1084  C1085   1.533   .     S
C1085  H1103   1.111   .     S
C1085  C1086   1.525   .     S
C1085  H1104   1.112   .     S
C1086  H1107   1.109   .     S
C1086  H1106   1.111   .     S
C1086  H1105   1.111   .     S
C1087  H1122   1.076   .     S
C1087  C1092   1.386   .     A
C1088  C1089   1.531   .     S
C1088  H1109   1.109   .     S
C1088  O1130   1.399   .     S
C1088  H1110   1.102   .     S
C1089  H1111   1.109   .     S
C1089  C1090   1.516   .     S
C1089  H1112   1.111   .     S
C1090  H1115   1.107   .     S
C1090  H1114   1.111   .     S
C1090  H1113   1.108   .     S
C1091  C1093   1.385   .     A
C1091  H1098   1.076   .     S
C1092  H1097   1.084   .     S
C1093  H1108   1.081   .     S
C1093  C395    1.385   1_556 S
C1094  C1310   1.496   .     S
C1094  C1247   1.347   .     S
C1095  C714    1.347   1_655 S
C1096  O1136   1.307   .     A
H1099  O1126   1.012   .     S
H1100  O1128   1.008   .     S
H1120  C917    1.084   1_655 S
N1123  N1124   1.287   .     D
N1123  Zn1140  2.032   .     S
N1123  O1129   1.349   .     S
N1124  Zn1139  2.032   .     S
N1124  O1130   1.344   .     S
O1125  Zn1139  1.937   .     S
O1125  C913    1.296   1_655 S
O1127  C1311   1.224   .     S
O1131  Zn1140  1.937   .     S
O1132  Zn1140  1.956   .     S
O1133  Zn1139  1.956   .     S
O1134  Zn1139  1.968   .     S
O1134  C944    1.293   1_655 S
O1135  Zn1140  1.968   .     S
O1136  Zn1140  1.928   .     S
O1137  Zn1139  1.928   .     S
O1138  C1310   1.223   .     S
C1141  C1170   1.432   .     S
C1141  O1208   1.290   .     A
C1141  O1353   1.296   1_455 S
C1142  C1144   1.447   .     S
C1142  O1213   1.300   .     A
C1142  O1287   1.298   .     S
C1143  C1149   1.387   .     A
C1143  C1172   1.453   .     S
C1143  C1299   1.400   1_455 S
C1144  C1148   1.395   .     A
C1144  C1150   1.388   .     A
C1145  C1154   1.402   .     A
C1145  C1299   1.391   1_455 S
C1145  H1348   1.084   1_455 S
C1146  H1197   1.084   .     S
C1146  C1148   1.388   .     A
C1146  C1155   1.402   .     A
C1147  H1195   1.082   .     S
C1147  C1219   1.400   .     S
C1147  C1221   1.391   .     S
C1148  H1270   1.078   .     S
C1149  C1151   1.397   .     A
C1149  H1193   1.077   .     S
C1150  H1192   1.077   .     S
C1150  C1153   1.396   .     A
C1151  C1156   1.416   .     A
C1151  C1154   1.419   .     A
C1152  O1209   1.308   .     A
C1152  C1171   1.444   .     S
C1152  O1283   1.282   .     S
C1153  C1157   1.418   .     A
C1153  C1155   1.419   .     A
C1154  C484    1.389   1_556 S
C1156  C1167   1.416   .     A
C1156  C473    1.417   1_556 S
C1157  C1163   1.418   .     A
C1158  O1202   1.398   .     S
C1159  O1204   1.396   .     S
C1159  C1171   1.483   .     S
C1160  H1178   1.105   .     S
C1160  H1177   1.112   .     S
C1160  O1205   1.401   .     S
C1160  C1161   1.533   .     S
C1161  H1179   1.111   .     S
C1161  C1162   1.525   .     S
C1161  H1180   1.112   .     S
C1162  H1183   1.109   .     S
C1162  H1182   1.111   .     S
C1162  H1181   1.111   .     S
C1163  H1198   1.076   .     S
C1163  C1168   1.386   .     A
C1164  C1165   1.531   .     S
C1164  H1185   1.109   .     S
C1164  O1206   1.399   .     S
C1164  H1186   1.102   .     S
C1165  H1187   1.109   .     S
C1165  C1166   1.516   .     S
C1165  H1188   1.111   .     S
C1166  H1191   1.107   .     S
C1166  H1190   1.111   .     S
C1166  H1189   1.108   .     S
C1167  C1169   1.385   .     A
C1167  H1174   1.076   .     S
C1168  H1173   1.084   .     S
C1169  H1184   1.081   .     S
C1169  C471    1.385   1_556 S
C1170  C702    1.496   1_565 S
C1170  C867    1.347   1_465 S
C1172  O1212   1.307   .     A
C1172  O1362   1.293   1_455 S
H1175  O1202   1.012   .     S
H1176  O1204   1.008   .     S
H1194  C1300   1.078   1_455 S
H1196  C1221   1.084   .     S
N1199  N1200   1.287   .     D
N1199  Zn1216  2.032   .     S
N1199  O1205   1.349   .     S
N1200  Zn1215  2.032   .     S
N1200  O1206   1.344   .     S
O1201  Zn1215  1.937   .     S
O1201  C1217   1.296   .     S
O1203  C703    1.224   1_565 S
O1207  Zn1216  1.937   .     S
O1207  C1304   1.282   1_455 S
O1208  Zn1216  1.956   .     S
O1209  Zn1215  1.956   .     S
O1210  Zn1215  1.968   .     S
O1210  C1248   1.293   .     S
O1211  Zn1216  1.968   .     S
O1211  C1294   1.298   1_455 S
O1212  Zn1216  1.928   .     S
O1213  Zn1215  1.928   .     S
O1214  C702    1.223   1_565 S
C1217  C1246   1.432   .     S
C1217  O1284   1.290   .     A
C1218  C1220   1.447   .     S
C1218  O1289   1.300   .     A
C1218  O1363   1.298   .     S
C1219  C1225   1.387   .     A
C1219  C1248   1.453   .     S
C1220  C1224   1.395   .     A
C1220  C1226   1.388   .     A
C1221  C1230   1.402   .     A
C1222  H1273   1.084   .     S
C1222  C1224   1.388   .     A
C1222  C1231   1.402   .     A
C1223  H1271   1.082   .     S
C1223  C1295   1.400   .     S
C1223  C1297   1.391   .     S
C1224  H1346   1.078   .     S
C1225  C1227   1.397   .     A
C1225  H1269   1.077   .     S
C1226  H1268   1.077   .     S
C1226  C1229   1.396   .     A
C1227  C1232   1.416   .     A
C1227  C1230   1.419   .     A
C1228  O1285   1.308   .     A
C1228  C1247   1.444   .     S
C1228  O1359   1.282   .     S
C1229  C1233   1.418   .     A
C1229  C1231   1.419   .     A
C1230  C560    1.389   1_556 S
C1232  C1243   1.416   .     A
C1232  C549    1.417   1_556 S
C1233  C1239   1.418   .     A
C1234  O1278   1.398   .     S
C1235  O1280   1.396   .     S
C1235  C1247   1.483   .     S
C1236  H1254   1.105   .     S
C1236  H1253   1.112   .     S
C1236  O1281   1.401   .     S
C1236  C1237   1.533   .     S
C1237  H1255   1.111   .     S
C1237  C1238   1.525   .     S
C1237  H1256   1.112   .     S
C1238  H1259   1.109   .     S
C1238  H1258   1.111   .     S
C1238  H1257   1.111   .     S
C1239  H1274   1.076   .     S
C1239  C1244   1.386   .     A
C1240  C1241   1.531   .     S
C1240  H1261   1.109   .     S
C1240  O1282   1.399   .     S
C1240  H1262   1.102   .     S
C1241  H1263   1.109   .     S
C1241  C1242   1.516   .     S
C1241  H1264   1.111   .     S
C1242  H1267   1.107   .     S
C1242  H1266   1.111   .     S
C1242  H1265   1.108   .     S
C1243  C1245   1.385   .     A
C1243  H1250   1.076   .     S
C1244  H1249   1.084   .     S
C1245  H1260   1.081   .     S
C1245  C547    1.385   1_556 S
C1246  C778    1.496   1_565 S
C1246  C715    1.347   1_565 S
C1248  O1288   1.307   .     A
H1251  O1278   1.012   .     S
H1252  O1280   1.008   .     S
H1272  C1297   1.084   .     S
N1275  N1276   1.287   .     D
N1275  Zn1292  2.032   .     S
N1275  O1281   1.349   .     S
N1276  Zn1291  2.032   .     S
N1276  O1282   1.344   .     S
O1277  Zn1291  1.937   .     S
O1277  C1293   1.296   .     S
O1279  C779    1.224   1_565 S
O1283  Zn1292  1.937   .     S
O1284  Zn1292  1.956   .     S
O1285  Zn1291  1.956   .     S
O1286  Zn1291  1.968   .     S
O1286  C1324   1.293   .     S
O1287  Zn1292  1.968   .     S
O1288  Zn1292  1.928   .     S
O1289  Zn1291  1.928   .     S
O1290  C778    1.223   1_565 S
C1293  C1322   1.432   .     S
C1293  O1360   1.290   .     A
C1294  C1296   1.447   .     S
C1294  O1365   1.300   .     A
C1294  O1211   1.298   1_655 S
C1295  C1301   1.387   .     A
C1295  C1324   1.453   .     S
C1296  C1300   1.395   .     A
C1296  C1302   1.388   .     A
C1297  C1306   1.402   .     A
C1298  H1349   1.084   .     S
C1298  C1300   1.388   .     A
C1298  C1307   1.402   .     A
C1299  H1347   1.082   .     S
C1299  C1143   1.400   1_655 S
C1299  C1145   1.391   1_655 S
C1300  H1194   1.078   1_655 S
C1301  C1303   1.397   .     A
C1301  H1345   1.077   .     S
C1302  H1344   1.077   .     S
C1302  C1305   1.396   .     A
C1303  C1308   1.416   .     A
C1303  C1306   1.419   .     A
C1304  O1361   1.308   .     A
C1304  C1323   1.444   .     S
C1304  O1207   1.282   1_655 S
C1305  C1309   1.418   .     A
C1305  C1307   1.419   .     A
C1306  C636    1.389   1_556 S
C1308  C1319   1.416   .     A
C1308  C625    1.417   1_556 S
C1309  C1315   1.418   .     A
C1310  O1354   1.398   .     S
C1311  O1356   1.396   .     S
C1311  C1323   1.483   .     S
C1312  H1330   1.105   .     S
C1312  H1329   1.112   .     S
C1312  O1357   1.401   .     S
C1312  C1313   1.533   .     S
C1313  H1331   1.111   .     S
C1313  C1314   1.525   .     S
C1313  H1332   1.112   .     S
C1314  H1335   1.109   .     S
C1314  H1334   1.111   .     S
C1314  H1333   1.111   .     S
C1315  H1350   1.076   .     S
C1315  C1320   1.386   .     A
C1316  C1317   1.531   .     S
C1316  H1337   1.109   .     S
C1316  O1358   1.399   .     S
C1316  H1338   1.102   .     S
C1317  H1339   1.109   .     S
C1317  C1318   1.516   .     S
C1317  H1340   1.111   .     S
C1318  H1343   1.107   .     S
C1318  H1342   1.111   .     S
C1318  H1341   1.108   .     S
C1319  C1321   1.385   .     A
C1319  H1326   1.076   .     S
C1320  H1325   1.084   .     S
C1321  H1336   1.081   .     S
C1321  C623    1.385   1_556 S
C1322  C854    1.496   1_565 S
C1322  C791    1.347   1_565 S
C1323  C942    1.347   1_655 S
C1324  O1364   1.307   .     A
H1327  O1354   1.012   .     S
H1328  O1356   1.008   .     S
H1348  C1145   1.084   1_655 S
N1351  N1352   1.287   .     D
N1351  Zn1368  2.032   .     S
N1351  O1357   1.349   .     S
N1352  Zn1367  2.032   .     S
N1352  O1358   1.344   .     S
O1353  Zn1367  1.937   .     S
O1353  C1141   1.296   1_655 S
O1355  C855    1.224   1_565 S
O1359  Zn1368  1.937   .     S
O1360  Zn1368  1.956   .     S
O1361  Zn1367  1.956   .     S
O1362  Zn1367  1.968   .     S
O1362  C1172   1.293   1_655 S
O1363  Zn1368  1.968   .     S
O1364  Zn1368  1.928   .     S
O1365  Zn1367  1.928   .     S
O1366  C854    1.223   1_565 S
