data_str_m1_o10_o18_pcu_sym.142
_audit_creation_date              2020-01-03
_audit_creation_method            'Materials Studio'
_symmetry_space_group_name_H-M    'P1'
_symmetry_Int_Tables_number       1
_symmetry_cell_setting            triclinic
loop_
_symmetry_equiv_pos_as_xyz
  x,y,z
_cell_length_a                    32.5562
_cell_length_b                    32.5290
_cell_length_c                    35.8550
_cell_angle_alpha                 98.4021
_cell_angle_beta                  72.8983
_cell_angle_gamma                 98.5946
loop_
_atom_site_label
_atom_site_type_symbol
_atom_site_fract_x
_atom_site_fract_y
_atom_site_fract_z
_atom_site_U_iso_or_equiv
_atom_site_adp_type
_atom_site_occupancy
C1     C     0.05248   0.16002   0.25868   0.00000  Uiso   1.00
C2     C     0.19795   0.13246   0.46053   0.00000  Uiso   1.00
C3     C     0.21627   0.11057   0.48073   0.00000  Uiso   1.00
C4     C     0.28103   0.17358   0.24119   0.00000  Uiso   1.00
C5     C     0.20925   0.11948   0.02106   0.00000  Uiso   1.00
C6     C     0.18350   0.15158   0.04197   0.00000  Uiso   1.00
C7     C     0.22810   0.09661   0.04071   0.00000  Uiso   1.00
C8     C     0.22163   0.10505   0.08104   0.00000  Uiso   1.00
C9     C     0.17771   0.15952   0.08283   0.00000  Uiso   1.00
C10    C     0.32706   0.17618   0.23753   0.00000  Uiso   1.00
C11    C     0.00708   0.15778   0.26214   0.00000  Uiso   1.00
C12    C     0.12061   0.23735   0.41838   0.00000  Uiso   1.00
C13    C     0.18082   0.32214   0.23823   0.00000  Uiso   1.00
C14    C     0.15133   0.01211   0.26206   0.00000  Uiso   1.00
C15    C     0.15583   0.05615   0.25890   0.00000  Uiso   1.00
C16    C     0.17681   0.27767   0.24139   0.00000  Uiso   1.00
C17    C     0.18839   0.14498   0.14414   0.00000  Uiso   1.00
C18    C     0.14626   0.18881   0.35605   0.00000  Uiso   1.00
C19    C     0.14019   0.20118   0.39856   0.00000  Uiso   1.00
C20    C     0.19657   0.13656   0.10190   0.00000  Uiso   1.00
C21    C     0.11275   0.24570   0.45943   0.00000  Uiso   1.00
C22    C     0.15492   0.17627   0.41942   0.00000  Uiso   1.00
C23    C     0.15208   0.18674   0.45950   0.00000  Uiso   1.00
C24    C     0.12906   0.22087   0.47969   0.00000  Uiso   1.00
C25    C     0.17123   0.16409   0.48008   0.00000  Uiso   1.00
C26    C     0.16464   0.17436   0.02134   0.00000  Uiso   1.00
C27    C     0.13992   0.20744   0.04049   0.00000  Uiso   1.00
C28    C     0.12298   0.23028   0.02005   0.00000  Uiso   1.00
H29    H     0.10507   0.25582   0.03635   0.00000  Uiso   1.00
H30    H     0.16809   0.14831   0.40358   0.00000  Uiso   1.00
H31    H     0.13354   0.21739   0.07140   0.00000  Uiso   1.00
H32    H     0.20647   0.12430   0.42924   0.00000  Uiso   1.00
H33    H     0.07923   0.29220   0.46307   0.00000  Uiso   1.00
H34    H     0.13485   0.27126   0.37574   0.00000  Uiso   1.00
H35    H     0.24774   0.07208   0.02485   0.00000  Uiso   1.00
H36    H     0.01684   0.19308   0.21473   0.00000  Uiso   1.00
H37    H     0.31794   0.14096   0.28530   0.00000  Uiso   1.00
H38    H     0.20808   0.00273   0.21631   0.00000  Uiso   1.00
H39    H     0.12366   0.33229   0.28401   0.00000  Uiso   1.00
H40    H     0.15832   0.18285   0.10110   0.00000  Uiso   1.00
H41    H     0.23605   0.08703   0.09600   0.00000  Uiso   1.00
H42    H     0.23642   0.08655   0.46449   0.00000  Uiso   1.00
O43    O     0.16667   0.16667   0.25000   0.00000  Uiso   1.00
O44    O     0.15693   0.12393   0.16625   0.00000  Uiso   1.00
O45    O     0.12687   0.20646   0.33749   0.00000  Uiso   1.00
O46    O     0.21088   0.17493   0.15877   0.00000  Uiso   1.00
O47    O     0.17198   0.16135   0.33749   0.00000  Uiso   1.00
O48    O     0.09113   0.27914   0.48031   0.00000  Uiso   1.00
O49    O     0.10965   0.26536   0.39854   0.00000  Uiso   1.00
O50    O     0.17849   0.08101   0.27820   0.00000  Uiso   1.00
O51    O     0.14581   0.26136   0.26767   0.00000  Uiso   1.00
O52    O     0.07452   0.13251   0.23607   0.00000  Uiso   1.00
O53    O     0.26785   0.19179   0.21805   0.00000  Uiso   1.00
O54    O     0.06990   0.18960   0.27820   0.00000  Uiso   1.00
O55    O     0.25440   0.15277   0.26767   0.00000  Uiso   1.00
O56    O     0.13800   0.06903   0.23607   0.00000  Uiso   1.00
O57    O     0.20437   0.25527   0.21805   0.00000  Uiso   1.00
Zn58   Zn    0.19244   0.14090   0.28277   0.00000  Uiso   1.00
Zn59   Zn    0.13459   0.12378   0.22257   0.00000  Uiso   1.00
Zn60   Zn    0.21166   0.19664   0.21188   0.00000  Uiso   1.00
Zn61   Zn    0.12798   0.20535   0.28277   0.00000  Uiso   1.00
C62    C     0.38582   0.16002   0.25868   0.00000  Uiso   1.00
C63    C     0.53128   0.13246   0.46053   0.00000  Uiso   1.00
C64    C     0.54960   0.11057   0.48073   0.00000  Uiso   1.00
C65    C     0.61436   0.17358   0.24119   0.00000  Uiso   1.00
C66    C     0.54258   0.11948   0.02106   0.00000  Uiso   1.00
C67    C     0.51684   0.15158   0.04197   0.00000  Uiso   1.00
C68    C     0.56143   0.09661   0.04071   0.00000  Uiso   1.00
C69    C     0.55497   0.10505   0.08104   0.00000  Uiso   1.00
C70    C     0.51104   0.15952   0.08283   0.00000  Uiso   1.00
C71    C     0.66039   0.17618   0.23753   0.00000  Uiso   1.00
C72    C     0.34041   0.15778   0.26214   0.00000  Uiso   1.00
C73    C     0.45394   0.23735   0.41838   0.00000  Uiso   1.00
C74    C     0.51416   0.32214   0.23823   0.00000  Uiso   1.00
C75    C     0.48467   0.01211   0.26206   0.00000  Uiso   1.00
C76    C     0.48917   0.05615   0.25890   0.00000  Uiso   1.00
C77    C     0.51015   0.27767   0.24139   0.00000  Uiso   1.00
C78    C     0.52173   0.14498   0.14414   0.00000  Uiso   1.00
C79    C     0.47960   0.18881   0.35605   0.00000  Uiso   1.00
C80    C     0.47352   0.20118   0.39856   0.00000  Uiso   1.00
C81    C     0.52990   0.13656   0.10190   0.00000  Uiso   1.00
C82    C     0.44608   0.24570   0.45943   0.00000  Uiso   1.00
C83    C     0.48826   0.17627   0.41942   0.00000  Uiso   1.00
C84    C     0.48541   0.18674   0.45950   0.00000  Uiso   1.00
C85    C     0.46239   0.22087   0.47969   0.00000  Uiso   1.00
C86    C     0.50457   0.16409   0.48008   0.00000  Uiso   1.00
C87    C     0.49798   0.17436   0.02134   0.00000  Uiso   1.00
C88    C     0.47325   0.20744   0.04049   0.00000  Uiso   1.00
C89    C     0.45631   0.23028   0.02005   0.00000  Uiso   1.00
H90    H     0.43841   0.25582   0.03635   0.00000  Uiso   1.00
H91    H     0.50142   0.14831   0.40358   0.00000  Uiso   1.00
H92    H     0.46687   0.21739   0.07140   0.00000  Uiso   1.00
H93    H     0.53981   0.12430   0.42924   0.00000  Uiso   1.00
H94    H     0.41257   0.29220   0.46307   0.00000  Uiso   1.00
H95    H     0.46818   0.27126   0.37574   0.00000  Uiso   1.00
H96    H     0.58107   0.07208   0.02485   0.00000  Uiso   1.00
H97    H     0.35018   0.19308   0.21473   0.00000  Uiso   1.00
H98    H     0.65127   0.14096   0.28530   0.00000  Uiso   1.00
H99    H     0.54141   0.00273   0.21631   0.00000  Uiso   1.00
H100   H     0.45700   0.33229   0.28401   0.00000  Uiso   1.00
H101   H     0.49165   0.18285   0.10110   0.00000  Uiso   1.00
H102   H     0.56938   0.08703   0.09600   0.00000  Uiso   1.00
H103   H     0.56976   0.08655   0.46449   0.00000  Uiso   1.00
O104   O     0.50000   0.16667   0.25000   0.00000  Uiso   1.00
O105   O     0.49027   0.12393   0.16625   0.00000  Uiso   1.00
O106   O     0.46020   0.20646   0.33749   0.00000  Uiso   1.00
O107   O     0.54421   0.17493   0.15877   0.00000  Uiso   1.00
O108   O     0.50532   0.16135   0.33749   0.00000  Uiso   1.00
O109   O     0.42446   0.27914   0.48031   0.00000  Uiso   1.00
O110   O     0.44299   0.26536   0.39854   0.00000  Uiso   1.00
O111   O     0.51182   0.08101   0.27820   0.00000  Uiso   1.00
O112   O     0.47914   0.26136   0.26767   0.00000  Uiso   1.00
O113   O     0.40785   0.13251   0.23607   0.00000  Uiso   1.00
O114   O     0.60119   0.19179   0.21805   0.00000  Uiso   1.00
O115   O     0.40323   0.18960   0.27820   0.00000  Uiso   1.00
O116   O     0.58773   0.15277   0.26767   0.00000  Uiso   1.00
O117   O     0.47133   0.06903   0.23607   0.00000  Uiso   1.00
O118   O     0.53771   0.25527   0.21805   0.00000  Uiso   1.00
Zn119  Zn    0.52577   0.14090   0.28277   0.00000  Uiso   1.00
Zn120  Zn    0.46792   0.12378   0.22257   0.00000  Uiso   1.00
Zn121  Zn    0.54500   0.19664   0.21188   0.00000  Uiso   1.00
Zn122  Zn    0.46131   0.20535   0.28277   0.00000  Uiso   1.00
C123   C     0.71915   0.16002   0.25868   0.00000  Uiso   1.00
C124   C     0.86462   0.13246   0.46053   0.00000  Uiso   1.00
C125   C     0.88294   0.11057   0.48073   0.00000  Uiso   1.00
C126   C     0.94770   0.17358   0.24119   0.00000  Uiso   1.00
C127   C     0.87591   0.11948   0.02106   0.00000  Uiso   1.00
C128   C     0.85017   0.15158   0.04197   0.00000  Uiso   1.00
C129   C     0.89476   0.09661   0.04071   0.00000  Uiso   1.00
C130   C     0.88830   0.10505   0.08104   0.00000  Uiso   1.00
C131   C     0.84437   0.15952   0.08283   0.00000  Uiso   1.00
C132   C     0.99373   0.17618   0.23753   0.00000  Uiso   1.00
C133   C     0.67374   0.15778   0.26214   0.00000  Uiso   1.00
C134   C     0.78728   0.23735   0.41838   0.00000  Uiso   1.00
C135   C     0.84749   0.32214   0.23823   0.00000  Uiso   1.00
C136   C     0.81800   0.01211   0.26206   0.00000  Uiso   1.00
C137   C     0.82250   0.05615   0.25890   0.00000  Uiso   1.00
C138   C     0.84348   0.27767   0.24139   0.00000  Uiso   1.00
C139   C     0.85506   0.14498   0.14414   0.00000  Uiso   1.00
C140   C     0.81293   0.18881   0.35605   0.00000  Uiso   1.00
C141   C     0.80686   0.20118   0.39856   0.00000  Uiso   1.00
C142   C     0.86324   0.13656   0.10190   0.00000  Uiso   1.00
C143   C     0.77942   0.24570   0.45943   0.00000  Uiso   1.00
C144   C     0.82159   0.17627   0.41942   0.00000  Uiso   1.00
C145   C     0.81874   0.18674   0.45950   0.00000  Uiso   1.00
C146   C     0.79573   0.22087   0.47969   0.00000  Uiso   1.00
C147   C     0.83790   0.16409   0.48008   0.00000  Uiso   1.00
C148   C     0.83131   0.17436   0.02134   0.00000  Uiso   1.00
C149   C     0.80659   0.20744   0.04049   0.00000  Uiso   1.00
C150   C     0.78964   0.23028   0.02005   0.00000  Uiso   1.00
H151   H     0.77174   0.25582   0.03635   0.00000  Uiso   1.00
H152   H     0.83476   0.14831   0.40358   0.00000  Uiso   1.00
H153   H     0.80020   0.21739   0.07140   0.00000  Uiso   1.00
H154   H     0.87314   0.12430   0.42924   0.00000  Uiso   1.00
H155   H     0.74590   0.29220   0.46307   0.00000  Uiso   1.00
H156   H     0.80151   0.27126   0.37574   0.00000  Uiso   1.00
H157   H     0.91441   0.07208   0.02485   0.00000  Uiso   1.00
H158   H     0.68351   0.19308   0.21473   0.00000  Uiso   1.00
H159   H     0.98460   0.14096   0.28530   0.00000  Uiso   1.00
H160   H     0.87475   0.00273   0.21631   0.00000  Uiso   1.00
H161   H     0.79033   0.33229   0.28401   0.00000  Uiso   1.00
H162   H     0.82499   0.18285   0.10110   0.00000  Uiso   1.00
H163   H     0.90272   0.08703   0.09600   0.00000  Uiso   1.00
H164   H     0.90309   0.08655   0.46449   0.00000  Uiso   1.00
O165   O     0.83333   0.16667   0.25000   0.00000  Uiso   1.00
O166   O     0.82360   0.12393   0.16625   0.00000  Uiso   1.00
O167   O     0.79354   0.20646   0.33749   0.00000  Uiso   1.00
O168   O     0.87755   0.17493   0.15877   0.00000  Uiso   1.00
O169   O     0.83865   0.16135   0.33749   0.00000  Uiso   1.00
O170   O     0.75779   0.27914   0.48031   0.00000  Uiso   1.00
O171   O     0.77632   0.26536   0.39854   0.00000  Uiso   1.00
O172   O     0.84515   0.08101   0.27820   0.00000  Uiso   1.00
O173   O     0.81247   0.26136   0.26767   0.00000  Uiso   1.00
O174   O     0.74119   0.13251   0.23607   0.00000  Uiso   1.00
O175   O     0.93452   0.19179   0.21805   0.00000  Uiso   1.00
O176   O     0.73656   0.18960   0.27820   0.00000  Uiso   1.00
O177   O     0.92106   0.15277   0.26767   0.00000  Uiso   1.00
O178   O     0.80467   0.06903   0.23607   0.00000  Uiso   1.00
O179   O     0.87104   0.25527   0.21805   0.00000  Uiso   1.00
Zn180  Zn    0.85910   0.14090   0.28277   0.00000  Uiso   1.00
Zn181  Zn    0.80125   0.12378   0.22257   0.00000  Uiso   1.00
Zn182  Zn    0.87833   0.19664   0.21188   0.00000  Uiso   1.00
Zn183  Zn    0.79465   0.20535   0.28277   0.00000  Uiso   1.00
C184   C     0.05248   0.49336   0.25868   0.00000  Uiso   1.00
C185   C     0.19795   0.46579   0.46053   0.00000  Uiso   1.00
C186   C     0.21627   0.44390   0.48073   0.00000  Uiso   1.00
C187   C     0.28103   0.50691   0.24119   0.00000  Uiso   1.00
C188   C     0.20925   0.45282   0.02106   0.00000  Uiso   1.00
C189   C     0.18350   0.48491   0.04197   0.00000  Uiso   1.00
C190   C     0.22810   0.42994   0.04071   0.00000  Uiso   1.00
C191   C     0.22163   0.43838   0.08104   0.00000  Uiso   1.00
C192   C     0.17771   0.49285   0.08283   0.00000  Uiso   1.00
C193   C     0.32706   0.50952   0.23753   0.00000  Uiso   1.00
C194   C     0.00708   0.49112   0.26214   0.00000  Uiso   1.00
C195   C     0.12061   0.57068   0.41838   0.00000  Uiso   1.00
C196   C     0.18082   0.65548   0.23823   0.00000  Uiso   1.00
C197   C     0.15133   0.34544   0.26206   0.00000  Uiso   1.00
C198   C     0.15583   0.38948   0.25890   0.00000  Uiso   1.00
C199   C     0.17681   0.61100   0.24139   0.00000  Uiso   1.00
C200   C     0.18839   0.47831   0.14414   0.00000  Uiso   1.00
C201   C     0.14626   0.52215   0.35605   0.00000  Uiso   1.00
C202   C     0.14019   0.53451   0.39856   0.00000  Uiso   1.00
C203   C     0.19657   0.46990   0.10190   0.00000  Uiso   1.00
C204   C     0.11275   0.57904   0.45943   0.00000  Uiso   1.00
C205   C     0.15492   0.50960   0.41942   0.00000  Uiso   1.00
C206   C     0.15208   0.52008   0.45950   0.00000  Uiso   1.00
C207   C     0.12906   0.55420   0.47969   0.00000  Uiso   1.00
C208   C     0.17123   0.49743   0.48008   0.00000  Uiso   1.00
C209   C     0.16464   0.50770   0.02134   0.00000  Uiso   1.00
C210   C     0.13992   0.54077   0.04049   0.00000  Uiso   1.00
C211   C     0.12298   0.56361   0.02005   0.00000  Uiso   1.00
H212   H     0.10507   0.58915   0.03635   0.00000  Uiso   1.00
H213   H     0.16809   0.48165   0.40358   0.00000  Uiso   1.00
H214   H     0.13354   0.55073   0.07140   0.00000  Uiso   1.00
H215   H     0.20647   0.45764   0.42924   0.00000  Uiso   1.00
H216   H     0.07923   0.62553   0.46307   0.00000  Uiso   1.00
H217   H     0.13485   0.60459   0.37574   0.00000  Uiso   1.00
H218   H     0.24774   0.40542   0.02485   0.00000  Uiso   1.00
H219   H     0.01684   0.52641   0.21473   0.00000  Uiso   1.00
H220   H     0.31794   0.47430   0.28530   0.00000  Uiso   1.00
H221   H     0.20808   0.33606   0.21631   0.00000  Uiso   1.00
H222   H     0.12366   0.66563   0.28401   0.00000  Uiso   1.00
H223   H     0.15832   0.51618   0.10110   0.00000  Uiso   1.00
H224   H     0.23605   0.42036   0.09600   0.00000  Uiso   1.00
H225   H     0.23642   0.41988   0.46449   0.00000  Uiso   1.00
O226   O     0.16667   0.50000   0.25000   0.00000  Uiso   1.00
O227   O     0.15693   0.45726   0.16625   0.00000  Uiso   1.00
O228   O     0.12687   0.53979   0.33749   0.00000  Uiso   1.00
O229   O     0.21088   0.50826   0.15877   0.00000  Uiso   1.00
O230   O     0.17198   0.49468   0.33749   0.00000  Uiso   1.00
O231   O     0.09113   0.61247   0.48031   0.00000  Uiso   1.00
O232   O     0.10965   0.59869   0.39854   0.00000  Uiso   1.00
O233   O     0.17849   0.41434   0.27820   0.00000  Uiso   1.00
O234   O     0.14581   0.59469   0.26767   0.00000  Uiso   1.00
O235   O     0.07452   0.46584   0.23607   0.00000  Uiso   1.00
O236   O     0.26785   0.52512   0.21805   0.00000  Uiso   1.00
O237   O     0.06990   0.52293   0.27820   0.00000  Uiso   1.00
O238   O     0.25440   0.48610   0.26767   0.00000  Uiso   1.00
O239   O     0.13800   0.40236   0.23607   0.00000  Uiso   1.00
O240   O     0.20437   0.58860   0.21805   0.00000  Uiso   1.00
Zn241  Zn    0.19244   0.47423   0.28277   0.00000  Uiso   1.00
Zn242  Zn    0.13459   0.45711   0.22257   0.00000  Uiso   1.00
Zn243  Zn    0.21166   0.52997   0.21188   0.00000  Uiso   1.00
Zn244  Zn    0.12798   0.53868   0.28277   0.00000  Uiso   1.00
C245   C     0.38582   0.49336   0.25868   0.00000  Uiso   1.00
C246   C     0.53128   0.46579   0.46053   0.00000  Uiso   1.00
C247   C     0.54960   0.44390   0.48073   0.00000  Uiso   1.00
C248   C     0.61436   0.50691   0.24119   0.00000  Uiso   1.00
C249   C     0.54258   0.45282   0.02106   0.00000  Uiso   1.00
C250   C     0.51684   0.48491   0.04197   0.00000  Uiso   1.00
C251   C     0.56143   0.42994   0.04071   0.00000  Uiso   1.00
C252   C     0.55497   0.43838   0.08104   0.00000  Uiso   1.00
C253   C     0.51104   0.49285   0.08283   0.00000  Uiso   1.00
C254   C     0.66039   0.50952   0.23753   0.00000  Uiso   1.00
C255   C     0.34041   0.49112   0.26214   0.00000  Uiso   1.00
C256   C     0.45394   0.57068   0.41838   0.00000  Uiso   1.00
C257   C     0.51416   0.65548   0.23823   0.00000  Uiso   1.00
C258   C     0.48467   0.34544   0.26206   0.00000  Uiso   1.00
C259   C     0.48917   0.38948   0.25890   0.00000  Uiso   1.00
C260   C     0.51015   0.61100   0.24139   0.00000  Uiso   1.00
C261   C     0.52173   0.47831   0.14414   0.00000  Uiso   1.00
C262   C     0.47960   0.52215   0.35605   0.00000  Uiso   1.00
C263   C     0.47352   0.53451   0.39856   0.00000  Uiso   1.00
C264   C     0.52990   0.46990   0.10190   0.00000  Uiso   1.00
C265   C     0.44608   0.57904   0.45943   0.00000  Uiso   1.00
C266   C     0.48826   0.50960   0.41942   0.00000  Uiso   1.00
C267   C     0.48541   0.52008   0.45950   0.00000  Uiso   1.00
C268   C     0.46239   0.55420   0.47969   0.00000  Uiso   1.00
C269   C     0.50457   0.49743   0.48008   0.00000  Uiso   1.00
C270   C     0.49798   0.50770   0.02134   0.00000  Uiso   1.00
C271   C     0.47325   0.54077   0.04049   0.00000  Uiso   1.00
C272   C     0.45631   0.56361   0.02005   0.00000  Uiso   1.00
H273   H     0.43841   0.58915   0.03635   0.00000  Uiso   1.00
H274   H     0.50142   0.48165   0.40358   0.00000  Uiso   1.00
H275   H     0.46687   0.55073   0.07140   0.00000  Uiso   1.00
H276   H     0.53981   0.45764   0.42924   0.00000  Uiso   1.00
H277   H     0.41257   0.62553   0.46307   0.00000  Uiso   1.00
H278   H     0.46818   0.60459   0.37574   0.00000  Uiso   1.00
H279   H     0.58107   0.40542   0.02485   0.00000  Uiso   1.00
H280   H     0.35018   0.52641   0.21473   0.00000  Uiso   1.00
H281   H     0.65127   0.47430   0.28530   0.00000  Uiso   1.00
H282   H     0.54141   0.33606   0.21631   0.00000  Uiso   1.00
H283   H     0.45700   0.66563   0.28401   0.00000  Uiso   1.00
H284   H     0.49165   0.51618   0.10110   0.00000  Uiso   1.00
H285   H     0.56938   0.42036   0.09600   0.00000  Uiso   1.00
H286   H     0.56976   0.41988   0.46449   0.00000  Uiso   1.00
O287   O     0.50000   0.50000   0.25000   0.00000  Uiso   1.00
O288   O     0.49027   0.45726   0.16625   0.00000  Uiso   1.00
O289   O     0.46020   0.53979   0.33749   0.00000  Uiso   1.00
O290   O     0.54421   0.50826   0.15877   0.00000  Uiso   1.00
O291   O     0.50532   0.49468   0.33749   0.00000  Uiso   1.00
O292   O     0.42446   0.61247   0.48031   0.00000  Uiso   1.00
O293   O     0.44299   0.59869   0.39854   0.00000  Uiso   1.00
O294   O     0.51182   0.41434   0.27820   0.00000  Uiso   1.00
O295   O     0.47914   0.59469   0.26767   0.00000  Uiso   1.00
O296   O     0.40785   0.46584   0.23607   0.00000  Uiso   1.00
O297   O     0.60119   0.52512   0.21805   0.00000  Uiso   1.00
O298   O     0.40323   0.52293   0.27820   0.00000  Uiso   1.00
O299   O     0.58773   0.48610   0.26767   0.00000  Uiso   1.00
O300   O     0.47133   0.40236   0.23607   0.00000  Uiso   1.00
O301   O     0.53771   0.58860   0.21805   0.00000  Uiso   1.00
Zn302  Zn    0.52577   0.47423   0.28277   0.00000  Uiso   1.00
Zn303  Zn    0.46792   0.45711   0.22257   0.00000  Uiso   1.00
Zn304  Zn    0.54500   0.52997   0.21188   0.00000  Uiso   1.00
Zn305  Zn    0.46131   0.53868   0.28277   0.00000  Uiso   1.00
C306   C     0.71915   0.49336   0.25868   0.00000  Uiso   1.00
C307   C     0.86462   0.46579   0.46053   0.00000  Uiso   1.00
C308   C     0.88294   0.44390   0.48073   0.00000  Uiso   1.00
C309   C     0.94770   0.50691   0.24119   0.00000  Uiso   1.00
C310   C     0.87591   0.45282   0.02106   0.00000  Uiso   1.00
C311   C     0.85017   0.48491   0.04197   0.00000  Uiso   1.00
C312   C     0.89476   0.42994   0.04071   0.00000  Uiso   1.00
C313   C     0.88830   0.43838   0.08104   0.00000  Uiso   1.00
C314   C     0.84437   0.49285   0.08283   0.00000  Uiso   1.00
C315   C     0.99373   0.50952   0.23753   0.00000  Uiso   1.00
C316   C     0.67374   0.49112   0.26214   0.00000  Uiso   1.00
C317   C     0.78728   0.57068   0.41838   0.00000  Uiso   1.00
C318   C     0.84749   0.65548   0.23823   0.00000  Uiso   1.00
C319   C     0.81800   0.34544   0.26206   0.00000  Uiso   1.00
C320   C     0.82250   0.38948   0.25890   0.00000  Uiso   1.00
C321   C     0.84348   0.61100   0.24139   0.00000  Uiso   1.00
C322   C     0.85506   0.47831   0.14414   0.00000  Uiso   1.00
C323   C     0.81293   0.52215   0.35605   0.00000  Uiso   1.00
C324   C     0.80686   0.53451   0.39856   0.00000  Uiso   1.00
C325   C     0.86324   0.46990   0.10190   0.00000  Uiso   1.00
C326   C     0.77942   0.57904   0.45943   0.00000  Uiso   1.00
C327   C     0.82159   0.50960   0.41942   0.00000  Uiso   1.00
C328   C     0.81874   0.52008   0.45950   0.00000  Uiso   1.00
C329   C     0.79573   0.55420   0.47969   0.00000  Uiso   1.00
C330   C     0.83790   0.49743   0.48008   0.00000  Uiso   1.00
C331   C     0.83131   0.50770   0.02134   0.00000  Uiso   1.00
C332   C     0.80659   0.54077   0.04049   0.00000  Uiso   1.00
C333   C     0.78964   0.56361   0.02005   0.00000  Uiso   1.00
H334   H     0.77174   0.58915   0.03635   0.00000  Uiso   1.00
H335   H     0.83476   0.48165   0.40358   0.00000  Uiso   1.00
H336   H     0.80020   0.55073   0.07140   0.00000  Uiso   1.00
H337   H     0.87314   0.45764   0.42924   0.00000  Uiso   1.00
H338   H     0.74590   0.62553   0.46307   0.00000  Uiso   1.00
H339   H     0.80151   0.60459   0.37574   0.00000  Uiso   1.00
H340   H     0.91441   0.40542   0.02485   0.00000  Uiso   1.00
H341   H     0.68351   0.52641   0.21473   0.00000  Uiso   1.00
H342   H     0.98460   0.47430   0.28530   0.00000  Uiso   1.00
H343   H     0.87475   0.33606   0.21631   0.00000  Uiso   1.00
H344   H     0.79033   0.66563   0.28401   0.00000  Uiso   1.00
H345   H     0.82499   0.51618   0.10110   0.00000  Uiso   1.00
H346   H     0.90272   0.42036   0.09600   0.00000  Uiso   1.00
H347   H     0.90309   0.41988   0.46449   0.00000  Uiso   1.00
O348   O     0.83333   0.50000   0.25000   0.00000  Uiso   1.00
O349   O     0.82360   0.45726   0.16625   0.00000  Uiso   1.00
O350   O     0.79354   0.53979   0.33749   0.00000  Uiso   1.00
O351   O     0.87755   0.50826   0.15877   0.00000  Uiso   1.00
O352   O     0.83865   0.49468   0.33749   0.00000  Uiso   1.00
O353   O     0.75779   0.61247   0.48031   0.00000  Uiso   1.00
O354   O     0.77632   0.59869   0.39854   0.00000  Uiso   1.00
O355   O     0.84515   0.41434   0.27820   0.00000  Uiso   1.00
O356   O     0.81247   0.59469   0.26767   0.00000  Uiso   1.00
O357   O     0.74119   0.46584   0.23607   0.00000  Uiso   1.00
O358   O     0.93452   0.52512   0.21805   0.00000  Uiso   1.00
O359   O     0.73656   0.52293   0.27820   0.00000  Uiso   1.00
O360   O     0.92106   0.48610   0.26767   0.00000  Uiso   1.00
O361   O     0.80467   0.40236   0.23607   0.00000  Uiso   1.00
O362   O     0.87104   0.58860   0.21805   0.00000  Uiso   1.00
Zn363  Zn    0.85910   0.47423   0.28277   0.00000  Uiso   1.00
Zn364  Zn    0.80125   0.45711   0.22257   0.00000  Uiso   1.00
Zn365  Zn    0.87833   0.52997   0.21188   0.00000  Uiso   1.00
Zn366  Zn    0.79465   0.53868   0.28277   0.00000  Uiso   1.00
C367   C     0.05248   0.82669   0.25868   0.00000  Uiso   1.00
C368   C     0.19795   0.79913   0.46053   0.00000  Uiso   1.00
C369   C     0.21627   0.77724   0.48073   0.00000  Uiso   1.00
C370   C     0.28103   0.84025   0.24119   0.00000  Uiso   1.00
C371   C     0.20925   0.78615   0.02106   0.00000  Uiso   1.00
C372   C     0.18350   0.81824   0.04197   0.00000  Uiso   1.00
C373   C     0.22810   0.76327   0.04071   0.00000  Uiso   1.00
C374   C     0.22163   0.77171   0.08104   0.00000  Uiso   1.00
C375   C     0.17771   0.82618   0.08283   0.00000  Uiso   1.00
C376   C     0.32706   0.84285   0.23753   0.00000  Uiso   1.00
C377   C     0.00708   0.82445   0.26214   0.00000  Uiso   1.00
C378   C     0.12061   0.90401   0.41838   0.00000  Uiso   1.00
C379   C     0.18082   0.98881   0.23823   0.00000  Uiso   1.00
C380   C     0.15133   0.67877   0.26206   0.00000  Uiso   1.00
C381   C     0.15583   0.72281   0.25890   0.00000  Uiso   1.00
C382   C     0.17681   0.94434   0.24139   0.00000  Uiso   1.00
C383   C     0.18839   0.81164   0.14414   0.00000  Uiso   1.00
C384   C     0.14626   0.85548   0.35605   0.00000  Uiso   1.00
C385   C     0.14019   0.86784   0.39856   0.00000  Uiso   1.00
C386   C     0.19657   0.80323   0.10190   0.00000  Uiso   1.00
C387   C     0.11275   0.91237   0.45943   0.00000  Uiso   1.00
C388   C     0.15492   0.84294   0.41942   0.00000  Uiso   1.00
C389   C     0.15208   0.85341   0.45950   0.00000  Uiso   1.00
C390   C     0.12906   0.88753   0.47969   0.00000  Uiso   1.00
C391   C     0.17123   0.83076   0.48008   0.00000  Uiso   1.00
C392   C     0.16464   0.84103   0.02134   0.00000  Uiso   1.00
C393   C     0.13992   0.87410   0.04049   0.00000  Uiso   1.00
C394   C     0.12298   0.89695   0.02005   0.00000  Uiso   1.00
H395   H     0.10507   0.92248   0.03635   0.00000  Uiso   1.00
H396   H     0.16809   0.81498   0.40358   0.00000  Uiso   1.00
H397   H     0.13354   0.88406   0.07140   0.00000  Uiso   1.00
H398   H     0.20647   0.79097   0.42924   0.00000  Uiso   1.00
H399   H     0.07923   0.95887   0.46307   0.00000  Uiso   1.00
H400   H     0.13485   0.93793   0.37574   0.00000  Uiso   1.00
H401   H     0.24774   0.73875   0.02485   0.00000  Uiso   1.00
H402   H     0.01684   0.85974   0.21473   0.00000  Uiso   1.00
H403   H     0.31794   0.80763   0.28530   0.00000  Uiso   1.00
H404   H     0.20808   0.66939   0.21631   0.00000  Uiso   1.00
H405   H     0.12366   0.99896   0.28401   0.00000  Uiso   1.00
H406   H     0.15832   0.84951   0.10110   0.00000  Uiso   1.00
H407   H     0.23605   0.75369   0.09600   0.00000  Uiso   1.00
H408   H     0.23642   0.75321   0.46449   0.00000  Uiso   1.00
O409   O     0.16667   0.83333   0.25000   0.00000  Uiso   1.00
O410   O     0.15693   0.79060   0.16625   0.00000  Uiso   1.00
O411   O     0.12687   0.87313   0.33749   0.00000  Uiso   1.00
O412   O     0.21088   0.84159   0.15877   0.00000  Uiso   1.00
O413   O     0.17198   0.82802   0.33749   0.00000  Uiso   1.00
O414   O     0.09113   0.94580   0.48031   0.00000  Uiso   1.00
O415   O     0.10965   0.93202   0.39854   0.00000  Uiso   1.00
O416   O     0.17849   0.74768   0.27820   0.00000  Uiso   1.00
O417   O     0.14581   0.92803   0.26767   0.00000  Uiso   1.00
O418   O     0.07452   0.79917   0.23607   0.00000  Uiso   1.00
O419   O     0.26785   0.85845   0.21805   0.00000  Uiso   1.00
O420   O     0.06990   0.85627   0.27820   0.00000  Uiso   1.00
O421   O     0.25440   0.81944   0.26767   0.00000  Uiso   1.00
O422   O     0.13800   0.73570   0.23607   0.00000  Uiso   1.00
O423   O     0.20437   0.92193   0.21805   0.00000  Uiso   1.00
Zn424  Zn    0.19244   0.80756   0.28277   0.00000  Uiso   1.00
Zn425  Zn    0.13459   0.79044   0.22257   0.00000  Uiso   1.00
Zn426  Zn    0.21166   0.86331   0.21188   0.00000  Uiso   1.00
Zn427  Zn    0.12798   0.87202   0.28277   0.00000  Uiso   1.00
C428   C     0.38582   0.82669   0.25868   0.00000  Uiso   1.00
C429   C     0.53128   0.79913   0.46053   0.00000  Uiso   1.00
C430   C     0.54960   0.77724   0.48073   0.00000  Uiso   1.00
C431   C     0.61436   0.84025   0.24119   0.00000  Uiso   1.00
C432   C     0.54258   0.78615   0.02106   0.00000  Uiso   1.00
C433   C     0.51684   0.81824   0.04197   0.00000  Uiso   1.00
C434   C     0.56143   0.76327   0.04071   0.00000  Uiso   1.00
C435   C     0.55497   0.77171   0.08104   0.00000  Uiso   1.00
C436   C     0.51104   0.82618   0.08283   0.00000  Uiso   1.00
C437   C     0.66039   0.84285   0.23753   0.00000  Uiso   1.00
C438   C     0.34041   0.82445   0.26214   0.00000  Uiso   1.00
C439   C     0.45394   0.90401   0.41838   0.00000  Uiso   1.00
C440   C     0.51416   0.98881   0.23823   0.00000  Uiso   1.00
C441   C     0.48467   0.67877   0.26206   0.00000  Uiso   1.00
C442   C     0.48917   0.72281   0.25890   0.00000  Uiso   1.00
C443   C     0.51015   0.94434   0.24139   0.00000  Uiso   1.00
C444   C     0.52173   0.81164   0.14414   0.00000  Uiso   1.00
C445   C     0.47960   0.85548   0.35605   0.00000  Uiso   1.00
C446   C     0.47352   0.86784   0.39856   0.00000  Uiso   1.00
C447   C     0.52990   0.80323   0.10190   0.00000  Uiso   1.00
C448   C     0.44608   0.91237   0.45943   0.00000  Uiso   1.00
C449   C     0.48826   0.84294   0.41942   0.00000  Uiso   1.00
C450   C     0.48541   0.85341   0.45950   0.00000  Uiso   1.00
C451   C     0.46239   0.88753   0.47969   0.00000  Uiso   1.00
C452   C     0.50457   0.83076   0.48008   0.00000  Uiso   1.00
C453   C     0.49798   0.84103   0.02134   0.00000  Uiso   1.00
C454   C     0.47325   0.87410   0.04049   0.00000  Uiso   1.00
C455   C     0.45631   0.89695   0.02005   0.00000  Uiso   1.00
H456   H     0.43841   0.92248   0.03635   0.00000  Uiso   1.00
H457   H     0.50142   0.81498   0.40358   0.00000  Uiso   1.00
H458   H     0.46687   0.88406   0.07140   0.00000  Uiso   1.00
H459   H     0.53981   0.79097   0.42924   0.00000  Uiso   1.00
H460   H     0.41257   0.95887   0.46307   0.00000  Uiso   1.00
H461   H     0.46818   0.93793   0.37574   0.00000  Uiso   1.00
H462   H     0.58107   0.73875   0.02485   0.00000  Uiso   1.00
H463   H     0.35018   0.85974   0.21473   0.00000  Uiso   1.00
H464   H     0.65127   0.80763   0.28530   0.00000  Uiso   1.00
H465   H     0.54141   0.66939   0.21631   0.00000  Uiso   1.00
H466   H     0.45700   0.99896   0.28401   0.00000  Uiso   1.00
H467   H     0.49165   0.84951   0.10110   0.00000  Uiso   1.00
H468   H     0.56938   0.75369   0.09600   0.00000  Uiso   1.00
H469   H     0.56976   0.75321   0.46449   0.00000  Uiso   1.00
O470   O     0.50000   0.83333   0.25000   0.00000  Uiso   1.00
O471   O     0.49027   0.79060   0.16625   0.00000  Uiso   1.00
O472   O     0.46020   0.87313   0.33749   0.00000  Uiso   1.00
O473   O     0.54421   0.84159   0.15877   0.00000  Uiso   1.00
O474   O     0.50532   0.82802   0.33749   0.00000  Uiso   1.00
O475   O     0.42446   0.94580   0.48031   0.00000  Uiso   1.00
O476   O     0.44299   0.93202   0.39854   0.00000  Uiso   1.00
O477   O     0.51182   0.74768   0.27820   0.00000  Uiso   1.00
O478   O     0.47914   0.92803   0.26767   0.00000  Uiso   1.00
O479   O     0.40785   0.79917   0.23607   0.00000  Uiso   1.00
O480   O     0.60119   0.85845   0.21805   0.00000  Uiso   1.00
O481   O     0.40323   0.85627   0.27820   0.00000  Uiso   1.00
O482   O     0.58773   0.81944   0.26767   0.00000  Uiso   1.00
O483   O     0.47133   0.73570   0.23607   0.00000  Uiso   1.00
O484   O     0.53771   0.92193   0.21805   0.00000  Uiso   1.00
Zn485  Zn    0.52577   0.80756   0.28277   0.00000  Uiso   1.00
Zn486  Zn    0.46792   0.79044   0.22257   0.00000  Uiso   1.00
Zn487  Zn    0.54500   0.86331   0.21188   0.00000  Uiso   1.00
Zn488  Zn    0.46131   0.87202   0.28277   0.00000  Uiso   1.00
C489   C     0.71915   0.82669   0.25868   0.00000  Uiso   1.00
C490   C     0.86462   0.79913   0.46053   0.00000  Uiso   1.00
C491   C     0.88294   0.77724   0.48073   0.00000  Uiso   1.00
C492   C     0.94770   0.84025   0.24119   0.00000  Uiso   1.00
C493   C     0.87591   0.78615   0.02106   0.00000  Uiso   1.00
C494   C     0.85017   0.81824   0.04197   0.00000  Uiso   1.00
C495   C     0.89476   0.76327   0.04071   0.00000  Uiso   1.00
C496   C     0.88830   0.77171   0.08104   0.00000  Uiso   1.00
C497   C     0.84437   0.82618   0.08283   0.00000  Uiso   1.00
C498   C     0.99373   0.84285   0.23753   0.00000  Uiso   1.00
C499   C     0.67374   0.82445   0.26214   0.00000  Uiso   1.00
C500   C     0.78728   0.90401   0.41838   0.00000  Uiso   1.00
C501   C     0.84749   0.98881   0.23823   0.00000  Uiso   1.00
C502   C     0.81800   0.67877   0.26206   0.00000  Uiso   1.00
C503   C     0.82250   0.72281   0.25890   0.00000  Uiso   1.00
C504   C     0.84348   0.94434   0.24139   0.00000  Uiso   1.00
C505   C     0.85506   0.81164   0.14414   0.00000  Uiso   1.00
C506   C     0.81293   0.85548   0.35605   0.00000  Uiso   1.00
C507   C     0.80686   0.86784   0.39856   0.00000  Uiso   1.00
C508   C     0.86324   0.80323   0.10190   0.00000  Uiso   1.00
C509   C     0.77942   0.91237   0.45943   0.00000  Uiso   1.00
C510   C     0.82159   0.84294   0.41942   0.00000  Uiso   1.00
C511   C     0.81874   0.85341   0.45950   0.00000  Uiso   1.00
C512   C     0.79573   0.88753   0.47969   0.00000  Uiso   1.00
C513   C     0.83790   0.83076   0.48008   0.00000  Uiso   1.00
C514   C     0.83131   0.84103   0.02134   0.00000  Uiso   1.00
C515   C     0.80659   0.87410   0.04049   0.00000  Uiso   1.00
C516   C     0.78964   0.89695   0.02005   0.00000  Uiso   1.00
H517   H     0.77174   0.92248   0.03635   0.00000  Uiso   1.00
H518   H     0.83476   0.81498   0.40358   0.00000  Uiso   1.00
H519   H     0.80020   0.88406   0.07140   0.00000  Uiso   1.00
H520   H     0.87314   0.79097   0.42924   0.00000  Uiso   1.00
H521   H     0.74590   0.95887   0.46307   0.00000  Uiso   1.00
H522   H     0.80151   0.93793   0.37574   0.00000  Uiso   1.00
H523   H     0.91441   0.73875   0.02485   0.00000  Uiso   1.00
H524   H     0.68351   0.85974   0.21473   0.00000  Uiso   1.00
H525   H     0.98460   0.80763   0.28530   0.00000  Uiso   1.00
H526   H     0.87475   0.66939   0.21631   0.00000  Uiso   1.00
H527   H     0.79033   0.99896   0.28401   0.00000  Uiso   1.00
H528   H     0.82499   0.84951   0.10110   0.00000  Uiso   1.00
H529   H     0.90272   0.75369   0.09600   0.00000  Uiso   1.00
H530   H     0.90309   0.75321   0.46449   0.00000  Uiso   1.00
O531   O     0.83333   0.83333   0.25000   0.00000  Uiso   1.00
O532   O     0.82360   0.79060   0.16625   0.00000  Uiso   1.00
O533   O     0.79354   0.87313   0.33749   0.00000  Uiso   1.00
O534   O     0.87755   0.84159   0.15877   0.00000  Uiso   1.00
O535   O     0.83865   0.82802   0.33749   0.00000  Uiso   1.00
O536   O     0.75779   0.94580   0.48031   0.00000  Uiso   1.00
O537   O     0.77632   0.93202   0.39854   0.00000  Uiso   1.00
O538   O     0.84515   0.74768   0.27820   0.00000  Uiso   1.00
O539   O     0.81247   0.92803   0.26767   0.00000  Uiso   1.00
O540   O     0.74119   0.79917   0.23607   0.00000  Uiso   1.00
O541   O     0.93452   0.85845   0.21805   0.00000  Uiso   1.00
O542   O     0.73656   0.85627   0.27820   0.00000  Uiso   1.00
O543   O     0.92106   0.81944   0.26767   0.00000  Uiso   1.00
O544   O     0.80467   0.73570   0.23607   0.00000  Uiso   1.00
O545   O     0.87104   0.92193   0.21805   0.00000  Uiso   1.00
Zn546  Zn    0.85910   0.80756   0.28277   0.00000  Uiso   1.00
Zn547  Zn    0.80125   0.79044   0.22257   0.00000  Uiso   1.00
Zn548  Zn    0.87833   0.86331   0.21188   0.00000  Uiso   1.00
Zn549  Zn    0.79465   0.87202   0.28277   0.00000  Uiso   1.00
C550   C     0.05248   0.16002   0.75868   0.00000  Uiso   1.00
C551   C     0.19795   0.13246   0.96053   0.00000  Uiso   1.00
C552   C     0.21627   0.11057   0.98073   0.00000  Uiso   1.00
C553   C     0.28103   0.17358   0.74119   0.00000  Uiso   1.00
C554   C     0.20925   0.11948   0.52106   0.00000  Uiso   1.00
C555   C     0.18350   0.15158   0.54197   0.00000  Uiso   1.00
C556   C     0.22810   0.09661   0.54071   0.00000  Uiso   1.00
C557   C     0.22163   0.10505   0.58104   0.00000  Uiso   1.00
C558   C     0.17771   0.15952   0.58283   0.00000  Uiso   1.00
C559   C     0.32706   0.17618   0.73753   0.00000  Uiso   1.00
C560   C     0.00708   0.15778   0.76214   0.00000  Uiso   1.00
C561   C     0.12061   0.23735   0.91838   0.00000  Uiso   1.00
C562   C     0.18082   0.32214   0.73823   0.00000  Uiso   1.00
C563   C     0.15133   0.01211   0.76206   0.00000  Uiso   1.00
C564   C     0.15583   0.05615   0.75890   0.00000  Uiso   1.00
C565   C     0.17681   0.27767   0.74139   0.00000  Uiso   1.00
C566   C     0.18839   0.14498   0.64414   0.00000  Uiso   1.00
C567   C     0.14626   0.18881   0.85605   0.00000  Uiso   1.00
C568   C     0.14019   0.20118   0.89856   0.00000  Uiso   1.00
C569   C     0.19657   0.13656   0.60190   0.00000  Uiso   1.00
C570   C     0.11275   0.24570   0.95943   0.00000  Uiso   1.00
C571   C     0.15492   0.17627   0.91942   0.00000  Uiso   1.00
C572   C     0.15208   0.18674   0.95950   0.00000  Uiso   1.00
C573   C     0.12906   0.22087   0.97969   0.00000  Uiso   1.00
C574   C     0.17123   0.16409   0.98008   0.00000  Uiso   1.00
C575   C     0.16464   0.17436   0.52134   0.00000  Uiso   1.00
C576   C     0.13992   0.20744   0.54049   0.00000  Uiso   1.00
C577   C     0.12298   0.23028   0.52005   0.00000  Uiso   1.00
H578   H     0.10507   0.25582   0.53635   0.00000  Uiso   1.00
H579   H     0.16809   0.14831   0.90358   0.00000  Uiso   1.00
H580   H     0.13354   0.21739   0.57140   0.00000  Uiso   1.00
H581   H     0.20647   0.12430   0.92924   0.00000  Uiso   1.00
H582   H     0.07923   0.29220   0.96307   0.00000  Uiso   1.00
H583   H     0.13485   0.27126   0.87574   0.00000  Uiso   1.00
H584   H     0.24774   0.07208   0.52485   0.00000  Uiso   1.00
H585   H     0.01684   0.19308   0.71473   0.00000  Uiso   1.00
H586   H     0.31794   0.14096   0.78530   0.00000  Uiso   1.00
H587   H     0.20808   0.00273   0.71631   0.00000  Uiso   1.00
H588   H     0.12366   0.33229   0.78401   0.00000  Uiso   1.00
H589   H     0.15832   0.18285   0.60110   0.00000  Uiso   1.00
H590   H     0.23605   0.08703   0.59600   0.00000  Uiso   1.00
H591   H     0.23642   0.08655   0.96449   0.00000  Uiso   1.00
O592   O     0.16667   0.16667   0.75000   0.00000  Uiso   1.00
O593   O     0.15693   0.12393   0.66625   0.00000  Uiso   1.00
O594   O     0.12687   0.20646   0.83749   0.00000  Uiso   1.00
O595   O     0.21088   0.17493   0.65877   0.00000  Uiso   1.00
O596   O     0.17198   0.16135   0.83749   0.00000  Uiso   1.00
O597   O     0.09113   0.27914   0.98031   0.00000  Uiso   1.00
O598   O     0.10965   0.26536   0.89854   0.00000  Uiso   1.00
O599   O     0.17849   0.08101   0.77820   0.00000  Uiso   1.00
O600   O     0.14581   0.26136   0.76767   0.00000  Uiso   1.00
O601   O     0.07452   0.13251   0.73607   0.00000  Uiso   1.00
O602   O     0.26785   0.19179   0.71805   0.00000  Uiso   1.00
O603   O     0.06990   0.18960   0.77820   0.00000  Uiso   1.00
O604   O     0.25440   0.15277   0.76767   0.00000  Uiso   1.00
O605   O     0.13800   0.06903   0.73607   0.00000  Uiso   1.00
O606   O     0.20437   0.25527   0.71805   0.00000  Uiso   1.00
Zn607  Zn    0.19244   0.14090   0.78277   0.00000  Uiso   1.00
Zn608  Zn    0.13459   0.12378   0.72257   0.00000  Uiso   1.00
Zn609  Zn    0.21166   0.19664   0.71188   0.00000  Uiso   1.00
Zn610  Zn    0.12798   0.20535   0.78277   0.00000  Uiso   1.00
C611   C     0.38582   0.16002   0.75868   0.00000  Uiso   1.00
C612   C     0.53128   0.13246   0.96053   0.00000  Uiso   1.00
C613   C     0.54960   0.11057   0.98073   0.00000  Uiso   1.00
C614   C     0.61436   0.17358   0.74119   0.00000  Uiso   1.00
C615   C     0.54258   0.11948   0.52106   0.00000  Uiso   1.00
C616   C     0.51684   0.15158   0.54197   0.00000  Uiso   1.00
C617   C     0.56143   0.09661   0.54071   0.00000  Uiso   1.00
C618   C     0.55497   0.10505   0.58104   0.00000  Uiso   1.00
C619   C     0.51104   0.15952   0.58283   0.00000  Uiso   1.00
C620   C     0.66039   0.17618   0.73753   0.00000  Uiso   1.00
C621   C     0.34041   0.15778   0.76214   0.00000  Uiso   1.00
C622   C     0.45394   0.23735   0.91838   0.00000  Uiso   1.00
C623   C     0.51416   0.32214   0.73823   0.00000  Uiso   1.00
C624   C     0.48467   0.01211   0.76206   0.00000  Uiso   1.00
C625   C     0.48917   0.05615   0.75890   0.00000  Uiso   1.00
C626   C     0.51015   0.27767   0.74139   0.00000  Uiso   1.00
C627   C     0.52173   0.14498   0.64414   0.00000  Uiso   1.00
C628   C     0.47960   0.18881   0.85605   0.00000  Uiso   1.00
C629   C     0.47352   0.20118   0.89856   0.00000  Uiso   1.00
C630   C     0.52990   0.13656   0.60190   0.00000  Uiso   1.00
C631   C     0.44608   0.24570   0.95943   0.00000  Uiso   1.00
C632   C     0.48826   0.17627   0.91942   0.00000  Uiso   1.00
C633   C     0.48541   0.18674   0.95950   0.00000  Uiso   1.00
C634   C     0.46239   0.22087   0.97969   0.00000  Uiso   1.00
C635   C     0.50457   0.16409   0.98008   0.00000  Uiso   1.00
C636   C     0.49798   0.17436   0.52134   0.00000  Uiso   1.00
C637   C     0.47325   0.20744   0.54049   0.00000  Uiso   1.00
C638   C     0.45631   0.23028   0.52005   0.00000  Uiso   1.00
H639   H     0.43841   0.25582   0.53635   0.00000  Uiso   1.00
H640   H     0.50142   0.14831   0.90358   0.00000  Uiso   1.00
H641   H     0.46687   0.21739   0.57140   0.00000  Uiso   1.00
H642   H     0.53981   0.12430   0.92924   0.00000  Uiso   1.00
H643   H     0.41257   0.29220   0.96307   0.00000  Uiso   1.00
H644   H     0.46818   0.27126   0.87574   0.00000  Uiso   1.00
H645   H     0.58107   0.07208   0.52485   0.00000  Uiso   1.00
H646   H     0.35018   0.19308   0.71473   0.00000  Uiso   1.00
H647   H     0.65127   0.14096   0.78530   0.00000  Uiso   1.00
H648   H     0.54141   0.00273   0.71631   0.00000  Uiso   1.00
H649   H     0.45700   0.33229   0.78401   0.00000  Uiso   1.00
H650   H     0.49165   0.18285   0.60110   0.00000  Uiso   1.00
H651   H     0.56938   0.08703   0.59600   0.00000  Uiso   1.00
H652   H     0.56976   0.08655   0.96449   0.00000  Uiso   1.00
O653   O     0.50000   0.16667   0.75000   0.00000  Uiso   1.00
O654   O     0.49027   0.12393   0.66625   0.00000  Uiso   1.00
O655   O     0.46020   0.20646   0.83749   0.00000  Uiso   1.00
O656   O     0.54421   0.17493   0.65877   0.00000  Uiso   1.00
O657   O     0.50532   0.16135   0.83749   0.00000  Uiso   1.00
O658   O     0.42446   0.27914   0.98031   0.00000  Uiso   1.00
O659   O     0.44299   0.26536   0.89854   0.00000  Uiso   1.00
O660   O     0.51182   0.08101   0.77820   0.00000  Uiso   1.00
O661   O     0.47914   0.26136   0.76767   0.00000  Uiso   1.00
O662   O     0.40785   0.13251   0.73607   0.00000  Uiso   1.00
O663   O     0.60119   0.19179   0.71805   0.00000  Uiso   1.00
O664   O     0.40323   0.18960   0.77820   0.00000  Uiso   1.00
O665   O     0.58773   0.15277   0.76767   0.00000  Uiso   1.00
O666   O     0.47133   0.06903   0.73607   0.00000  Uiso   1.00
O667   O     0.53771   0.25527   0.71805   0.00000  Uiso   1.00
Zn668  Zn    0.52577   0.14090   0.78277   0.00000  Uiso   1.00
Zn669  Zn    0.46792   0.12378   0.72257   0.00000  Uiso   1.00
Zn670  Zn    0.54500   0.19664   0.71188   0.00000  Uiso   1.00
Zn671  Zn    0.46131   0.20535   0.78277   0.00000  Uiso   1.00
C672   C     0.71915   0.16002   0.75868   0.00000  Uiso   1.00
C673   C     0.86462   0.13246   0.96053   0.00000  Uiso   1.00
C674   C     0.88294   0.11057   0.98073   0.00000  Uiso   1.00
C675   C     0.94770   0.17358   0.74119   0.00000  Uiso   1.00
C676   C     0.87591   0.11948   0.52106   0.00000  Uiso   1.00
C677   C     0.85017   0.15158   0.54197   0.00000  Uiso   1.00
C678   C     0.89476   0.09661   0.54071   0.00000  Uiso   1.00
C679   C     0.88830   0.10505   0.58104   0.00000  Uiso   1.00
C680   C     0.84437   0.15952   0.58283   0.00000  Uiso   1.00
C681   C     0.99373   0.17618   0.73753   0.00000  Uiso   1.00
C682   C     0.67374   0.15778   0.76214   0.00000  Uiso   1.00
C683   C     0.78728   0.23735   0.91838   0.00000  Uiso   1.00
C684   C     0.84749   0.32214   0.73823   0.00000  Uiso   1.00
C685   C     0.81800   0.01211   0.76206   0.00000  Uiso   1.00
C686   C     0.82250   0.05615   0.75890   0.00000  Uiso   1.00
C687   C     0.84348   0.27767   0.74139   0.00000  Uiso   1.00
C688   C     0.85506   0.14498   0.64414   0.00000  Uiso   1.00
C689   C     0.81293   0.18881   0.85605   0.00000  Uiso   1.00
C690   C     0.80686   0.20118   0.89856   0.00000  Uiso   1.00
C691   C     0.86324   0.13656   0.60190   0.00000  Uiso   1.00
C692   C     0.77942   0.24570   0.95943   0.00000  Uiso   1.00
C693   C     0.82159   0.17627   0.91942   0.00000  Uiso   1.00
C694   C     0.81874   0.18674   0.95950   0.00000  Uiso   1.00
C695   C     0.79573   0.22087   0.97969   0.00000  Uiso   1.00
C696   C     0.83790   0.16409   0.98008   0.00000  Uiso   1.00
C697   C     0.83131   0.17436   0.52134   0.00000  Uiso   1.00
C698   C     0.80659   0.20744   0.54049   0.00000  Uiso   1.00
C699   C     0.78964   0.23028   0.52005   0.00000  Uiso   1.00
H700   H     0.77174   0.25582   0.53635   0.00000  Uiso   1.00
H701   H     0.83476   0.14831   0.90358   0.00000  Uiso   1.00
H702   H     0.80020   0.21739   0.57140   0.00000  Uiso   1.00
H703   H     0.87314   0.12430   0.92924   0.00000  Uiso   1.00
H704   H     0.74590   0.29220   0.96307   0.00000  Uiso   1.00
H705   H     0.80151   0.27126   0.87574   0.00000  Uiso   1.00
H706   H     0.91441   0.07208   0.52485   0.00000  Uiso   1.00
H707   H     0.68351   0.19308   0.71473   0.00000  Uiso   1.00
H708   H     0.98460   0.14096   0.78530   0.00000  Uiso   1.00
H709   H     0.87475   0.00273   0.71631   0.00000  Uiso   1.00
H710   H     0.79033   0.33229   0.78401   0.00000  Uiso   1.00
H711   H     0.82499   0.18285   0.60110   0.00000  Uiso   1.00
H712   H     0.90272   0.08703   0.59600   0.00000  Uiso   1.00
H713   H     0.90309   0.08655   0.96449   0.00000  Uiso   1.00
O714   O     0.83333   0.16667   0.75000   0.00000  Uiso   1.00
O715   O     0.82360   0.12393   0.66625   0.00000  Uiso   1.00
O716   O     0.79354   0.20646   0.83749   0.00000  Uiso   1.00
O717   O     0.87755   0.17493   0.65877   0.00000  Uiso   1.00
O718   O     0.83865   0.16135   0.83749   0.00000  Uiso   1.00
O719   O     0.75779   0.27914   0.98031   0.00000  Uiso   1.00
O720   O     0.77632   0.26536   0.89854   0.00000  Uiso   1.00
O721   O     0.84515   0.08101   0.77820   0.00000  Uiso   1.00
O722   O     0.81247   0.26136   0.76767   0.00000  Uiso   1.00
O723   O     0.74119   0.13251   0.73607   0.00000  Uiso   1.00
O724   O     0.93452   0.19179   0.71805   0.00000  Uiso   1.00
O725   O     0.73656   0.18960   0.77820   0.00000  Uiso   1.00
O726   O     0.92106   0.15277   0.76767   0.00000  Uiso   1.00
O727   O     0.80467   0.06903   0.73607   0.00000  Uiso   1.00
O728   O     0.87104   0.25527   0.71805   0.00000  Uiso   1.00
Zn729  Zn    0.85910   0.14090   0.78277   0.00000  Uiso   1.00
Zn730  Zn    0.80125   0.12378   0.72257   0.00000  Uiso   1.00
Zn731  Zn    0.87833   0.19664   0.71188   0.00000  Uiso   1.00
Zn732  Zn    0.79465   0.20535   0.78277   0.00000  Uiso   1.00
C733   C     0.05248   0.49336   0.75868   0.00000  Uiso   1.00
C734   C     0.19795   0.46579   0.96053   0.00000  Uiso   1.00
C735   C     0.21627   0.44390   0.98073   0.00000  Uiso   1.00
C736   C     0.28103   0.50691   0.74119   0.00000  Uiso   1.00
C737   C     0.20925   0.45282   0.52106   0.00000  Uiso   1.00
C738   C     0.18350   0.48491   0.54197   0.00000  Uiso   1.00
C739   C     0.22810   0.42994   0.54071   0.00000  Uiso   1.00
C740   C     0.22163   0.43838   0.58104   0.00000  Uiso   1.00
C741   C     0.17771   0.49285   0.58283   0.00000  Uiso   1.00
C742   C     0.32706   0.50952   0.73753   0.00000  Uiso   1.00
C743   C     0.00708   0.49112   0.76214   0.00000  Uiso   1.00
C744   C     0.12061   0.57068   0.91838   0.00000  Uiso   1.00
C745   C     0.18082   0.65548   0.73823   0.00000  Uiso   1.00
C746   C     0.15133   0.34544   0.76206   0.00000  Uiso   1.00
C747   C     0.15583   0.38948   0.75890   0.00000  Uiso   1.00
C748   C     0.17681   0.61100   0.74139   0.00000  Uiso   1.00
C749   C     0.18839   0.47831   0.64414   0.00000  Uiso   1.00
C750   C     0.14626   0.52215   0.85605   0.00000  Uiso   1.00
C751   C     0.14019   0.53451   0.89856   0.00000  Uiso   1.00
C752   C     0.19657   0.46990   0.60190   0.00000  Uiso   1.00
C753   C     0.11275   0.57904   0.95943   0.00000  Uiso   1.00
C754   C     0.15492   0.50960   0.91942   0.00000  Uiso   1.00
C755   C     0.15208   0.52008   0.95950   0.00000  Uiso   1.00
C756   C     0.12906   0.55420   0.97969   0.00000  Uiso   1.00
C757   C     0.17123   0.49743   0.98008   0.00000  Uiso   1.00
C758   C     0.16464   0.50770   0.52134   0.00000  Uiso   1.00
C759   C     0.13992   0.54077   0.54049   0.00000  Uiso   1.00
C760   C     0.12298   0.56361   0.52005   0.00000  Uiso   1.00
H761   H     0.10507   0.58915   0.53635   0.00000  Uiso   1.00
H762   H     0.16809   0.48165   0.90358   0.00000  Uiso   1.00
H763   H     0.13354   0.55073   0.57140   0.00000  Uiso   1.00
H764   H     0.20647   0.45764   0.92924   0.00000  Uiso   1.00
H765   H     0.07923   0.62553   0.96307   0.00000  Uiso   1.00
H766   H     0.13485   0.60459   0.87574   0.00000  Uiso   1.00
H767   H     0.24774   0.40542   0.52485   0.00000  Uiso   1.00
H768   H     0.01684   0.52641   0.71473   0.00000  Uiso   1.00
H769   H     0.31794   0.47430   0.78530   0.00000  Uiso   1.00
H770   H     0.20808   0.33606   0.71631   0.00000  Uiso   1.00
H771   H     0.12366   0.66563   0.78401   0.00000  Uiso   1.00
H772   H     0.15832   0.51618   0.60110   0.00000  Uiso   1.00
H773   H     0.23605   0.42036   0.59600   0.00000  Uiso   1.00
H774   H     0.23642   0.41988   0.96449   0.00000  Uiso   1.00
O775   O     0.16667   0.50000   0.75000   0.00000  Uiso   1.00
O776   O     0.15693   0.45726   0.66625   0.00000  Uiso   1.00
O777   O     0.12687   0.53979   0.83749   0.00000  Uiso   1.00
O778   O     0.21088   0.50826   0.65877   0.00000  Uiso   1.00
O779   O     0.17198   0.49468   0.83749   0.00000  Uiso   1.00
O780   O     0.09113   0.61247   0.98031   0.00000  Uiso   1.00
O781   O     0.10965   0.59869   0.89854   0.00000  Uiso   1.00
O782   O     0.17849   0.41434   0.77820   0.00000  Uiso   1.00
O783   O     0.14581   0.59469   0.76767   0.00000  Uiso   1.00
O784   O     0.07452   0.46584   0.73607   0.00000  Uiso   1.00
O785   O     0.26785   0.52512   0.71805   0.00000  Uiso   1.00
O786   O     0.06990   0.52293   0.77820   0.00000  Uiso   1.00
O787   O     0.25440   0.48610   0.76767   0.00000  Uiso   1.00
O788   O     0.13800   0.40236   0.73607   0.00000  Uiso   1.00
O789   O     0.20437   0.58860   0.71805   0.00000  Uiso   1.00
Zn790  Zn    0.19244   0.47423   0.78277   0.00000  Uiso   1.00
Zn791  Zn    0.13459   0.45711   0.72257   0.00000  Uiso   1.00
Zn792  Zn    0.21166   0.52997   0.71188   0.00000  Uiso   1.00
Zn793  Zn    0.12798   0.53868   0.78277   0.00000  Uiso   1.00
C794   C     0.38582   0.49336   0.75868   0.00000  Uiso   1.00
C795   C     0.53128   0.46579   0.96053   0.00000  Uiso   1.00
C796   C     0.54960   0.44390   0.98073   0.00000  Uiso   1.00
C797   C     0.61436   0.50691   0.74119   0.00000  Uiso   1.00
C798   C     0.54258   0.45282   0.52106   0.00000  Uiso   1.00
C799   C     0.51684   0.48491   0.54197   0.00000  Uiso   1.00
C800   C     0.56143   0.42994   0.54071   0.00000  Uiso   1.00
C801   C     0.55497   0.43838   0.58104   0.00000  Uiso   1.00
C802   C     0.51104   0.49285   0.58283   0.00000  Uiso   1.00
C803   C     0.66039   0.50952   0.73753   0.00000  Uiso   1.00
C804   C     0.34041   0.49112   0.76214   0.00000  Uiso   1.00
C805   C     0.45394   0.57068   0.91838   0.00000  Uiso   1.00
C806   C     0.51416   0.65548   0.73823   0.00000  Uiso   1.00
C807   C     0.48467   0.34544   0.76206   0.00000  Uiso   1.00
C808   C     0.48917   0.38948   0.75890   0.00000  Uiso   1.00
C809   C     0.51015   0.61100   0.74139   0.00000  Uiso   1.00
C810   C     0.52173   0.47831   0.64414   0.00000  Uiso   1.00
C811   C     0.47960   0.52215   0.85605   0.00000  Uiso   1.00
C812   C     0.47352   0.53451   0.89856   0.00000  Uiso   1.00
C813   C     0.52990   0.46990   0.60190   0.00000  Uiso   1.00
C814   C     0.44608   0.57904   0.95943   0.00000  Uiso   1.00
C815   C     0.48826   0.50960   0.91942   0.00000  Uiso   1.00
C816   C     0.48541   0.52008   0.95950   0.00000  Uiso   1.00
C817   C     0.46239   0.55420   0.97969   0.00000  Uiso   1.00
C818   C     0.50457   0.49743   0.98008   0.00000  Uiso   1.00
C819   C     0.49798   0.50770   0.52134   0.00000  Uiso   1.00
C820   C     0.47325   0.54077   0.54049   0.00000  Uiso   1.00
C821   C     0.45631   0.56361   0.52005   0.00000  Uiso   1.00
H822   H     0.43841   0.58915   0.53635   0.00000  Uiso   1.00
H823   H     0.50142   0.48165   0.90358   0.00000  Uiso   1.00
H824   H     0.46687   0.55073   0.57140   0.00000  Uiso   1.00
H825   H     0.53981   0.45764   0.92924   0.00000  Uiso   1.00
H826   H     0.41257   0.62553   0.96307   0.00000  Uiso   1.00
H827   H     0.46818   0.60459   0.87574   0.00000  Uiso   1.00
H828   H     0.58107   0.40542   0.52485   0.00000  Uiso   1.00
H829   H     0.35018   0.52641   0.71473   0.00000  Uiso   1.00
H830   H     0.65127   0.47430   0.78530   0.00000  Uiso   1.00
H831   H     0.54141   0.33606   0.71631   0.00000  Uiso   1.00
H832   H     0.45700   0.66563   0.78401   0.00000  Uiso   1.00
H833   H     0.49165   0.51618   0.60110   0.00000  Uiso   1.00
H834   H     0.56938   0.42036   0.59600   0.00000  Uiso   1.00
H835   H     0.56976   0.41988   0.96449   0.00000  Uiso   1.00
O836   O     0.50000   0.50000   0.75000   0.00000  Uiso   1.00
O837   O     0.49027   0.45726   0.66625   0.00000  Uiso   1.00
O838   O     0.46020   0.53979   0.83749   0.00000  Uiso   1.00
O839   O     0.54421   0.50826   0.65877   0.00000  Uiso   1.00
O840   O     0.50532   0.49468   0.83749   0.00000  Uiso   1.00
O841   O     0.42446   0.61247   0.98031   0.00000  Uiso   1.00
O842   O     0.44299   0.59869   0.89854   0.00000  Uiso   1.00
O843   O     0.51182   0.41434   0.77820   0.00000  Uiso   1.00
O844   O     0.47914   0.59469   0.76767   0.00000  Uiso   1.00
O845   O     0.40785   0.46584   0.73607   0.00000  Uiso   1.00
O846   O     0.60119   0.52512   0.71805   0.00000  Uiso   1.00
O847   O     0.40323   0.52293   0.77820   0.00000  Uiso   1.00
O848   O     0.58773   0.48610   0.76767   0.00000  Uiso   1.00
O849   O     0.47133   0.40236   0.73607   0.00000  Uiso   1.00
O850   O     0.53771   0.58860   0.71805   0.00000  Uiso   1.00
Zn851  Zn    0.52577   0.47423   0.78277   0.00000  Uiso   1.00
Zn852  Zn    0.46792   0.45711   0.72257   0.00000  Uiso   1.00
Zn853  Zn    0.54500   0.52997   0.71188   0.00000  Uiso   1.00
Zn854  Zn    0.46131   0.53868   0.78277   0.00000  Uiso   1.00
C855   C     0.71915   0.49336   0.75868   0.00000  Uiso   1.00
C856   C     0.86462   0.46579   0.96053   0.00000  Uiso   1.00
C857   C     0.88294   0.44390   0.98073   0.00000  Uiso   1.00
C858   C     0.94770   0.50691   0.74119   0.00000  Uiso   1.00
C859   C     0.87591   0.45282   0.52106   0.00000  Uiso   1.00
C860   C     0.85017   0.48491   0.54197   0.00000  Uiso   1.00
C861   C     0.89476   0.42994   0.54071   0.00000  Uiso   1.00
C862   C     0.88830   0.43838   0.58104   0.00000  Uiso   1.00
C863   C     0.84437   0.49285   0.58283   0.00000  Uiso   1.00
C864   C     0.99373   0.50952   0.73753   0.00000  Uiso   1.00
C865   C     0.67374   0.49112   0.76214   0.00000  Uiso   1.00
C866   C     0.78728   0.57068   0.91838   0.00000  Uiso   1.00
C867   C     0.84749   0.65548   0.73823   0.00000  Uiso   1.00
C868   C     0.81800   0.34544   0.76206   0.00000  Uiso   1.00
C869   C     0.82250   0.38948   0.75890   0.00000  Uiso   1.00
C870   C     0.84348   0.61100   0.74139   0.00000  Uiso   1.00
C871   C     0.85506   0.47831   0.64414   0.00000  Uiso   1.00
C872   C     0.81293   0.52215   0.85605   0.00000  Uiso   1.00
C873   C     0.80686   0.53451   0.89856   0.00000  Uiso   1.00
C874   C     0.86324   0.46990   0.60190   0.00000  Uiso   1.00
C875   C     0.77942   0.57904   0.95943   0.00000  Uiso   1.00
C876   C     0.82159   0.50960   0.91942   0.00000  Uiso   1.00
C877   C     0.81874   0.52008   0.95950   0.00000  Uiso   1.00
C878   C     0.79573   0.55420   0.97969   0.00000  Uiso   1.00
C879   C     0.83790   0.49743   0.98008   0.00000  Uiso   1.00
C880   C     0.83131   0.50770   0.52134   0.00000  Uiso   1.00
C881   C     0.80659   0.54077   0.54049   0.00000  Uiso   1.00
C882   C     0.78964   0.56361   0.52005   0.00000  Uiso   1.00
H883   H     0.77174   0.58915   0.53635   0.00000  Uiso   1.00
H884   H     0.83476   0.48165   0.90358   0.00000  Uiso   1.00
H885   H     0.80020   0.55073   0.57140   0.00000  Uiso   1.00
H886   H     0.87314   0.45764   0.92924   0.00000  Uiso   1.00
H887   H     0.74590   0.62553   0.96307   0.00000  Uiso   1.00
H888   H     0.80151   0.60459   0.87574   0.00000  Uiso   1.00
H889   H     0.91441   0.40542   0.52485   0.00000  Uiso   1.00
H890   H     0.68351   0.52641   0.71473   0.00000  Uiso   1.00
H891   H     0.98460   0.47430   0.78530   0.00000  Uiso   1.00
H892   H     0.87475   0.33606   0.71631   0.00000  Uiso   1.00
H893   H     0.79033   0.66563   0.78401   0.00000  Uiso   1.00
H894   H     0.82499   0.51618   0.60110   0.00000  Uiso   1.00
H895   H     0.90272   0.42036   0.59600   0.00000  Uiso   1.00
H896   H     0.90309   0.41988   0.96449   0.00000  Uiso   1.00
O897   O     0.83333   0.50000   0.75000   0.00000  Uiso   1.00
O898   O     0.82360   0.45726   0.66625   0.00000  Uiso   1.00
O899   O     0.79354   0.53979   0.83749   0.00000  Uiso   1.00
O900   O     0.87755   0.50826   0.65877   0.00000  Uiso   1.00
O901   O     0.83865   0.49468   0.83749   0.00000  Uiso   1.00
O902   O     0.75779   0.61247   0.98031   0.00000  Uiso   1.00
O903   O     0.77632   0.59869   0.89854   0.00000  Uiso   1.00
O904   O     0.84515   0.41434   0.77820   0.00000  Uiso   1.00
O905   O     0.81247   0.59469   0.76767   0.00000  Uiso   1.00
O906   O     0.74119   0.46584   0.73607   0.00000  Uiso   1.00
O907   O     0.93452   0.52512   0.71805   0.00000  Uiso   1.00
O908   O     0.73656   0.52293   0.77820   0.00000  Uiso   1.00
O909   O     0.92106   0.48610   0.76767   0.00000  Uiso   1.00
O910   O     0.80467   0.40236   0.73607   0.00000  Uiso   1.00
O911   O     0.87104   0.58860   0.71805   0.00000  Uiso   1.00
Zn912  Zn    0.85910   0.47423   0.78277   0.00000  Uiso   1.00
Zn913  Zn    0.80125   0.45711   0.72257   0.00000  Uiso   1.00
Zn914  Zn    0.87833   0.52997   0.71188   0.00000  Uiso   1.00
Zn915  Zn    0.79465   0.53868   0.78277   0.00000  Uiso   1.00
C916   C     0.05248   0.82669   0.75868   0.00000  Uiso   1.00
C917   C     0.19795   0.79913   0.96053   0.00000  Uiso   1.00
C918   C     0.21627   0.77724   0.98073   0.00000  Uiso   1.00
C919   C     0.28103   0.84025   0.74119   0.00000  Uiso   1.00
C920   C     0.20925   0.78615   0.52106   0.00000  Uiso   1.00
C921   C     0.18350   0.81824   0.54197   0.00000  Uiso   1.00
C922   C     0.22810   0.76327   0.54071   0.00000  Uiso   1.00
C923   C     0.22163   0.77171   0.58104   0.00000  Uiso   1.00
C924   C     0.17771   0.82618   0.58283   0.00000  Uiso   1.00
C925   C     0.32706   0.84285   0.73753   0.00000  Uiso   1.00
C926   C     0.00708   0.82445   0.76214   0.00000  Uiso   1.00
C927   C     0.12061   0.90401   0.91838   0.00000  Uiso   1.00
C928   C     0.18082   0.98881   0.73823   0.00000  Uiso   1.00
C929   C     0.15133   0.67877   0.76206   0.00000  Uiso   1.00
C930   C     0.15583   0.72281   0.75890   0.00000  Uiso   1.00
C931   C     0.17681   0.94434   0.74139   0.00000  Uiso   1.00
C932   C     0.18839   0.81164   0.64414   0.00000  Uiso   1.00
C933   C     0.14626   0.85548   0.85605   0.00000  Uiso   1.00
C934   C     0.14019   0.86784   0.89856   0.00000  Uiso   1.00
C935   C     0.19657   0.80323   0.60190   0.00000  Uiso   1.00
C936   C     0.11275   0.91237   0.95943   0.00000  Uiso   1.00
C937   C     0.15492   0.84294   0.91942   0.00000  Uiso   1.00
C938   C     0.15208   0.85341   0.95950   0.00000  Uiso   1.00
C939   C     0.12906   0.88753   0.97969   0.00000  Uiso   1.00
C940   C     0.17123   0.83076   0.98008   0.00000  Uiso   1.00
C941   C     0.16464   0.84103   0.52134   0.00000  Uiso   1.00
C942   C     0.13992   0.87410   0.54049   0.00000  Uiso   1.00
C943   C     0.12298   0.89695   0.52005   0.00000  Uiso   1.00
H944   H     0.10507   0.92248   0.53635   0.00000  Uiso   1.00
H945   H     0.16809   0.81498   0.90358   0.00000  Uiso   1.00
H946   H     0.13354   0.88406   0.57140   0.00000  Uiso   1.00
H947   H     0.20647   0.79097   0.92924   0.00000  Uiso   1.00
H948   H     0.07923   0.95887   0.96307   0.00000  Uiso   1.00
H949   H     0.13485   0.93793   0.87574   0.00000  Uiso   1.00
H950   H     0.24774   0.73875   0.52485   0.00000  Uiso   1.00
H951   H     0.01684   0.85974   0.71473   0.00000  Uiso   1.00
H952   H     0.31794   0.80763   0.78530   0.00000  Uiso   1.00
H953   H     0.20808   0.66939   0.71631   0.00000  Uiso   1.00
H954   H     0.12366   0.99896   0.78401   0.00000  Uiso   1.00
H955   H     0.15832   0.84951   0.60110   0.00000  Uiso   1.00
H956   H     0.23605   0.75369   0.59600   0.00000  Uiso   1.00
H957   H     0.23642   0.75321   0.96449   0.00000  Uiso   1.00
O958   O     0.16667   0.83333   0.75000   0.00000  Uiso   1.00
O959   O     0.15693   0.79060   0.66625   0.00000  Uiso   1.00
O960   O     0.12687   0.87313   0.83749   0.00000  Uiso   1.00
O961   O     0.21088   0.84159   0.65877   0.00000  Uiso   1.00
O962   O     0.17198   0.82802   0.83749   0.00000  Uiso   1.00
O963   O     0.09113   0.94580   0.98031   0.00000  Uiso   1.00
O964   O     0.10965   0.93202   0.89854   0.00000  Uiso   1.00
O965   O     0.17849   0.74768   0.77820   0.00000  Uiso   1.00
O966   O     0.14581   0.92803   0.76767   0.00000  Uiso   1.00
O967   O     0.07452   0.79917   0.73607   0.00000  Uiso   1.00
O968   O     0.26785   0.85845   0.71805   0.00000  Uiso   1.00
O969   O     0.06990   0.85627   0.77820   0.00000  Uiso   1.00
O970   O     0.25440   0.81944   0.76767   0.00000  Uiso   1.00
O971   O     0.13800   0.73570   0.73607   0.00000  Uiso   1.00
O972   O     0.20437   0.92193   0.71805   0.00000  Uiso   1.00
Zn973  Zn    0.19244   0.80756   0.78277   0.00000  Uiso   1.00
Zn974  Zn    0.13459   0.79044   0.72257   0.00000  Uiso   1.00
Zn975  Zn    0.21166   0.86331   0.71188   0.00000  Uiso   1.00
Zn976  Zn    0.12798   0.87202   0.78277   0.00000  Uiso   1.00
C977   C     0.38582   0.82669   0.75868   0.00000  Uiso   1.00
C978   C     0.53128   0.79913   0.96053   0.00000  Uiso   1.00
C979   C     0.54960   0.77724   0.98073   0.00000  Uiso   1.00
C980   C     0.61436   0.84025   0.74119   0.00000  Uiso   1.00
C981   C     0.54258   0.78615   0.52106   0.00000  Uiso   1.00
C982   C     0.51684   0.81824   0.54197   0.00000  Uiso   1.00
C983   C     0.56143   0.76327   0.54071   0.00000  Uiso   1.00
C984   C     0.55497   0.77171   0.58104   0.00000  Uiso   1.00
C985   C     0.51104   0.82618   0.58283   0.00000  Uiso   1.00
C986   C     0.66039   0.84285   0.73753   0.00000  Uiso   1.00
C987   C     0.34041   0.82445   0.76214   0.00000  Uiso   1.00
C988   C     0.45394   0.90401   0.91838   0.00000  Uiso   1.00
C989   C     0.51416   0.98881   0.73823   0.00000  Uiso   1.00
C990   C     0.48467   0.67877   0.76206   0.00000  Uiso   1.00
C991   C     0.48917   0.72281   0.75890   0.00000  Uiso   1.00
C992   C     0.51015   0.94434   0.74139   0.00000  Uiso   1.00
C993   C     0.52173   0.81164   0.64414   0.00000  Uiso   1.00
C994   C     0.47960   0.85548   0.85605   0.00000  Uiso   1.00
C995   C     0.47352   0.86784   0.89856   0.00000  Uiso   1.00
C996   C     0.52990   0.80323   0.60190   0.00000  Uiso   1.00
C997   C     0.44608   0.91237   0.95943   0.00000  Uiso   1.00
C998   C     0.48826   0.84294   0.91942   0.00000  Uiso   1.00
C999   C     0.48541   0.85341   0.95950   0.00000  Uiso   1.00
C1000  C     0.46239   0.88753   0.97969   0.00000  Uiso   1.00
C1001  C     0.50457   0.83076   0.98008   0.00000  Uiso   1.00
C1002  C     0.49798   0.84103   0.52134   0.00000  Uiso   1.00
C1003  C     0.47325   0.87410   0.54049   0.00000  Uiso   1.00
C1004  C     0.45631   0.89695   0.52005   0.00000  Uiso   1.00
H1005  H     0.43841   0.92248   0.53635   0.00000  Uiso   1.00
H1006  H     0.50142   0.81498   0.90358   0.00000  Uiso   1.00
H1007  H     0.46687   0.88406   0.57140   0.00000  Uiso   1.00
H1008  H     0.53981   0.79097   0.92924   0.00000  Uiso   1.00
H1009  H     0.41257   0.95887   0.96307   0.00000  Uiso   1.00
H1010  H     0.46818   0.93793   0.87574   0.00000  Uiso   1.00
H1011  H     0.58107   0.73875   0.52485   0.00000  Uiso   1.00
H1012  H     0.35018   0.85974   0.71473   0.00000  Uiso   1.00
H1013  H     0.65127   0.80763   0.78530   0.00000  Uiso   1.00
H1014  H     0.54141   0.66939   0.71631   0.00000  Uiso   1.00
H1015  H     0.45700   0.99896   0.78401   0.00000  Uiso   1.00
H1016  H     0.49165   0.84951   0.60110   0.00000  Uiso   1.00
H1017  H     0.56938   0.75369   0.59600   0.00000  Uiso   1.00
H1018  H     0.56976   0.75321   0.96449   0.00000  Uiso   1.00
O1019  O     0.50000   0.83333   0.75000   0.00000  Uiso   1.00
O1020  O     0.49027   0.79060   0.66625   0.00000  Uiso   1.00
O1021  O     0.46020   0.87313   0.83749   0.00000  Uiso   1.00
O1022  O     0.54421   0.84159   0.65877   0.00000  Uiso   1.00
O1023  O     0.50532   0.82802   0.83749   0.00000  Uiso   1.00
O1024  O     0.42446   0.94580   0.98031   0.00000  Uiso   1.00
O1025  O     0.44299   0.93202   0.89854   0.00000  Uiso   1.00
O1026  O     0.51182   0.74768   0.77820   0.00000  Uiso   1.00
O1027  O     0.47914   0.92803   0.76767   0.00000  Uiso   1.00
O1028  O     0.40785   0.79917   0.73607   0.00000  Uiso   1.00
O1029  O     0.60119   0.85845   0.71805   0.00000  Uiso   1.00
O1030  O     0.40323   0.85627   0.77820   0.00000  Uiso   1.00
O1031  O     0.58773   0.81944   0.76767   0.00000  Uiso   1.00
O1032  O     0.47133   0.73570   0.73607   0.00000  Uiso   1.00
O1033  O     0.53771   0.92193   0.71805   0.00000  Uiso   1.00
Zn1034 Zn    0.52577   0.80756   0.78277   0.00000  Uiso   1.00
Zn1035 Zn    0.46792   0.79044   0.72257   0.00000  Uiso   1.00
Zn1036 Zn    0.54500   0.86331   0.71188   0.00000  Uiso   1.00
Zn1037 Zn    0.46131   0.87202   0.78277   0.00000  Uiso   1.00
C1038  C     0.71915   0.82669   0.75868   0.00000  Uiso   1.00
C1039  C     0.86462   0.79913   0.96053   0.00000  Uiso   1.00
C1040  C     0.88294   0.77724   0.98073   0.00000  Uiso   1.00
C1041  C     0.94770   0.84025   0.74119   0.00000  Uiso   1.00
C1042  C     0.87591   0.78615   0.52106   0.00000  Uiso   1.00
C1043  C     0.85017   0.81824   0.54197   0.00000  Uiso   1.00
C1044  C     0.89476   0.76327   0.54071   0.00000  Uiso   1.00
C1045  C     0.88830   0.77171   0.58104   0.00000  Uiso   1.00
C1046  C     0.84437   0.82618   0.58283   0.00000  Uiso   1.00
C1047  C     0.99373   0.84285   0.73753   0.00000  Uiso   1.00
C1048  C     0.67374   0.82445   0.76214   0.00000  Uiso   1.00
C1049  C     0.78728   0.90401   0.91838   0.00000  Uiso   1.00
C1050  C     0.84749   0.98881   0.73823   0.00000  Uiso   1.00
C1051  C     0.81800   0.67877   0.76206   0.00000  Uiso   1.00
C1052  C     0.82250   0.72281   0.75890   0.00000  Uiso   1.00
C1053  C     0.84348   0.94434   0.74139   0.00000  Uiso   1.00
C1054  C     0.85506   0.81164   0.64414   0.00000  Uiso   1.00
C1055  C     0.81293   0.85548   0.85605   0.00000  Uiso   1.00
C1056  C     0.80686   0.86784   0.89856   0.00000  Uiso   1.00
C1057  C     0.86324   0.80323   0.60190   0.00000  Uiso   1.00
C1058  C     0.77942   0.91237   0.95943   0.00000  Uiso   1.00
C1059  C     0.82159   0.84294   0.91942   0.00000  Uiso   1.00
C1060  C     0.81874   0.85341   0.95950   0.00000  Uiso   1.00
C1061  C     0.79573   0.88753   0.97969   0.00000  Uiso   1.00
C1062  C     0.83790   0.83076   0.98008   0.00000  Uiso   1.00
C1063  C     0.83131   0.84103   0.52134   0.00000  Uiso   1.00
C1064  C     0.80659   0.87410   0.54049   0.00000  Uiso   1.00
C1065  C     0.78964   0.89695   0.52005   0.00000  Uiso   1.00
H1066  H     0.77174   0.92248   0.53635   0.00000  Uiso   1.00
H1067  H     0.83476   0.81498   0.90358   0.00000  Uiso   1.00
H1068  H     0.80020   0.88406   0.57140   0.00000  Uiso   1.00
H1069  H     0.87314   0.79097   0.92924   0.00000  Uiso   1.00
H1070  H     0.74590   0.95887   0.96307   0.00000  Uiso   1.00
H1071  H     0.80151   0.93793   0.87574   0.00000  Uiso   1.00
H1072  H     0.91441   0.73875   0.52485   0.00000  Uiso   1.00
H1073  H     0.68351   0.85974   0.71473   0.00000  Uiso   1.00
H1074  H     0.98460   0.80763   0.78530   0.00000  Uiso   1.00
H1075  H     0.87475   0.66939   0.71631   0.00000  Uiso   1.00
H1076  H     0.79033   0.99896   0.78401   0.00000  Uiso   1.00
H1077  H     0.82499   0.84951   0.60110   0.00000  Uiso   1.00
H1078  H     0.90272   0.75369   0.59600   0.00000  Uiso   1.00
H1079  H     0.90309   0.75321   0.96449   0.00000  Uiso   1.00
O1080  O     0.83333   0.83333   0.75000   0.00000  Uiso   1.00
O1081  O     0.82360   0.79060   0.66625   0.00000  Uiso   1.00
O1082  O     0.79354   0.87313   0.83749   0.00000  Uiso   1.00
O1083  O     0.87755   0.84159   0.65877   0.00000  Uiso   1.00
O1084  O     0.83865   0.82802   0.83749   0.00000  Uiso   1.00
O1085  O     0.75779   0.94580   0.98031   0.00000  Uiso   1.00
O1086  O     0.77632   0.93202   0.89854   0.00000  Uiso   1.00
O1087  O     0.84515   0.74768   0.77820   0.00000  Uiso   1.00
O1088  O     0.81247   0.92803   0.76767   0.00000  Uiso   1.00
O1089  O     0.74119   0.79917   0.73607   0.00000  Uiso   1.00
O1090  O     0.93452   0.85845   0.71805   0.00000  Uiso   1.00
O1091  O     0.73656   0.85627   0.77820   0.00000  Uiso   1.00
O1092  O     0.92106   0.81944   0.76767   0.00000  Uiso   1.00
O1093  O     0.80467   0.73570   0.73607   0.00000  Uiso   1.00
O1094  O     0.87104   0.92193   0.71805   0.00000  Uiso   1.00
Zn1095 Zn    0.85910   0.80756   0.78277   0.00000  Uiso   1.00
Zn1096 Zn    0.80125   0.79044   0.72257   0.00000  Uiso   1.00
Zn1097 Zn    0.87833   0.86331   0.71188   0.00000  Uiso   1.00
Zn1098 Zn    0.79465   0.87202   0.78277   0.00000  Uiso   1.00
loop_
_geom_bond_atom_site_label_1
_geom_bond_atom_site_label_2
_geom_bond_distance
_geom_bond_site_symmetry_2
_ccdc_geom_bond_type
C1     O54     1.269   .     A
C1     O52     1.269   .     A
C1     C11     1.438   .     S
C2     C3      1.385   .     A
C2     C25     1.416   .     A
C2     H32     1.076   .     S
C3     H42     1.084   .     S
C3     C554    1.390   .     S
C4     O53     1.285   .     A
C4     O55     1.281   .     A
C4     C10     1.456   .     S
C5     C7      1.404   .     A
C5     C6      1.420   .     A
C5     C552    1.390   1_554 S
C6     C9      1.411   .     A
C6     C26     1.427   .     A
C7     C8      1.391   .     A
C7     H35     1.084   .     S
C8     C20     1.394   .     A
C8     H41     1.083   .     S
C9     H40     1.076   .     S
C9     C20     1.391   .     A
C10    C72     1.335   .     S
C10    H97     1.087   .     S
C11    C132    1.335   1_455 S
C11    H159    1.086   1_455 S
C12    C19     1.418   .     A
C12    O49     1.378   .     S
C12    C21     1.410   .     A
C13    C16     1.451   .     S
C13    C197    1.331   .     S
C13    H221    1.088   .     S
C14    C15     1.436   .     S
C14    C379    1.331   1_545 S
C14    H405    1.086   1_545 S
C15    O56     1.279   .     A
C15    O50     1.279   .     A
C16    O51     1.271   .     A
C16    O57     1.270   .     A
C17    C20     1.450   .     S
C17    O44     1.272   .     A
C17    O46     1.274   .     A
C18    O47     1.290   .     A
C18    O45     1.280   .     A
C18    C19     1.480   .     S
C19    C22     1.397   .     A
C21    O48     1.385   .     S
C21    C24     1.410   .     A
C22    H30     1.075   .     S
C22    C23     1.406   .     A
C23    C24     1.419   .     A
C23    C25     1.429   .     A
C24    C577    1.396   .     S
C25    C575    1.427   .     S
C26    C27     1.412   .     A
C26    C574    1.427   1_554 S
C27    H31     1.075   .     S
C27    C28     1.383   .     A
C28    H29     1.083   .     S
C28    C573    1.396   1_554 S
H33    O48     0.990   .     S
H34    O49     0.991   .     S
H36    C132    1.087   1_455 S
H37    C72     1.086   .     S
H38    C379    1.088   1_545 S
H39    C197    1.086   .     S
O43    Zn59    1.942   .     S
O43    Zn60    1.936   .     S
O43    Zn61    1.929   .     S
O43    Zn58    1.966   .     S
O44    Zn59    1.935   .     S
O45    Zn61    1.947   .     S
O46    Zn60    1.938   .     S
O47    Zn58    1.928   .     S
O50    Zn58    1.927   .     S
O51    Zn61    1.933   .     S
O52    Zn59    1.926   .     S
O53    Zn60    1.938   .     S
O54    Zn61    1.932   .     S
O55    Zn58    1.923   .     S
O56    Zn59    1.939   .     S
O57    Zn60    1.930   .     S
C62    O115    1.269   .     A
C62    O113    1.269   .     A
C62    C72     1.438   .     S
C63    C64     1.385   .     A
C63    C86     1.416   .     A
C63    H93     1.076   .     S
C64    H103    1.084   .     S
C64    C615    1.390   .     S
C65    O114    1.285   .     A
C65    O116    1.281   .     A
C65    C71     1.456   .     S
C66    C68     1.404   .     A
C66    C67     1.420   .     A
C66    C613    1.390   1_554 S
C67    C70     1.411   .     A
C67    C87     1.427   .     A
C68    C69     1.391   .     A
C68    H96     1.084   .     S
C69    C81     1.394   .     A
C69    H102    1.083   .     S
C70    H101    1.076   .     S
C70    C81     1.391   .     A
C71    C133    1.335   .     S
C71    H158    1.087   .     S
C73    C80     1.418   .     A
C73    O110    1.378   .     S
C73    C82     1.410   .     A
C74    C77     1.451   .     S
C74    C258    1.331   .     S
C74    H282    1.088   .     S
C75    C76     1.436   .     S
C75    C440    1.331   1_545 S
C75    H466    1.086   1_545 S
C76    O117    1.279   .     A
C76    O111    1.279   .     A
C77    O112    1.271   .     A
C77    O118    1.270   .     A
C78    C81     1.450   .     S
C78    O105    1.272   .     A
C78    O107    1.274   .     A
C79    O108    1.290   .     A
C79    O106    1.280   .     A
C79    C80     1.480   .     S
C80    C83     1.397   .     A
C82    O109    1.385   .     S
C82    C85     1.410   .     A
C83    H91     1.075   .     S
C83    C84     1.406   .     A
C84    C85     1.419   .     A
C84    C86     1.429   .     A
C85    C638    1.396   .     S
C86    C636    1.427   .     S
C87    C88     1.412   .     A
C87    C635    1.427   1_554 S
C88    H92     1.075   .     S
C88    C89     1.383   .     A
C89    H90     1.083   .     S
C89    C634    1.396   1_554 S
H94    O109    0.990   .     S
H95    O110    0.991   .     S
H98    C133    1.086   .     S
H99    C440    1.088   1_545 S
H100   C258    1.086   .     S
O104   Zn120   1.942   .     S
O104   Zn121   1.936   .     S
O104   Zn122   1.929   .     S
O104   Zn119   1.966   .     S
O105   Zn120   1.935   .     S
O106   Zn122   1.947   .     S
O107   Zn121   1.938   .     S
O108   Zn119   1.928   .     S
O111   Zn119   1.927   .     S
O112   Zn122   1.933   .     S
O113   Zn120   1.926   .     S
O114   Zn121   1.938   .     S
O115   Zn122   1.932   .     S
O116   Zn119   1.923   .     S
O117   Zn120   1.939   .     S
O118   Zn121   1.930   .     S
C123   O176    1.269   .     A
C123   O174    1.269   .     A
C123   C133    1.438   .     S
C124   C125    1.385   .     A
C124   C147    1.416   .     A
C124   H154    1.076   .     S
C125   H164    1.084   .     S
C125   C676    1.390   .     S
C126   O175    1.285   .     A
C126   O177    1.281   .     A
C126   C132    1.456   .     S
C127   C129    1.404   .     A
C127   C128    1.420   .     A
C127   C674    1.390   1_554 S
C128   C131    1.411   .     A
C128   C148    1.427   .     A
C129   C130    1.391   .     A
C129   H157    1.084   .     S
C130   C142    1.394   .     A
C130   H163    1.083   .     S
C131   H162    1.076   .     S
C131   C142    1.391   .     A
C132   C11     1.335   1_655 S
C132   H36     1.087   1_655 S
C134   C141    1.418   .     A
C134   O171    1.378   .     S
C134   C143    1.410   .     A
C135   C138    1.451   .     S
C135   C319    1.331   .     S
C135   H343    1.088   .     S
C136   C137    1.436   .     S
C136   C501    1.331   1_545 S
C136   H527    1.086   1_545 S
C137   O178    1.279   .     A
C137   O172    1.279   .     A
C138   O173    1.271   .     A
C138   O179    1.270   .     A
C139   C142    1.450   .     S
C139   O166    1.272   .     A
C139   O168    1.274   .     A
C140   O169    1.290   .     A
C140   O167    1.280   .     A
C140   C141    1.480   .     S
C141   C144    1.397   .     A
C143   O170    1.385   .     S
C143   C146    1.410   .     A
C144   H152    1.075   .     S
C144   C145    1.406   .     A
C145   C146    1.419   .     A
C145   C147    1.429   .     A
C146   C699    1.396   .     S
C147   C697    1.427   .     S
C148   C149    1.412   .     A
C148   C696    1.427   1_554 S
C149   H153    1.075   .     S
C149   C150    1.383   .     A
C150   H151    1.083   .     S
C150   C695    1.396   1_554 S
H155   O170    0.990   .     S
H156   O171    0.991   .     S
H159   C11     1.086   1_655 S
H160   C501    1.088   1_545 S
H161   C319    1.086   .     S
O165   Zn181   1.942   .     S
O165   Zn182   1.936   .     S
O165   Zn183   1.929   .     S
O165   Zn180   1.966   .     S
O166   Zn181   1.935   .     S
O167   Zn183   1.947   .     S
O168   Zn182   1.938   .     S
O169   Zn180   1.928   .     S
O172   Zn180   1.927   .     S
O173   Zn183   1.933   .     S
O174   Zn181   1.926   .     S
O175   Zn182   1.938   .     S
O176   Zn183   1.932   .     S
O177   Zn180   1.923   .     S
O178   Zn181   1.939   .     S
O179   Zn182   1.930   .     S
C184   O237    1.269   .     A
C184   O235    1.269   .     A
C184   C194    1.438   .     S
C185   C186    1.385   .     A
C185   C208    1.416   .     A
C185   H215    1.076   .     S
C186   H225    1.084   .     S
C186   C737    1.390   .     S
C187   O236    1.285   .     A
C187   O238    1.281   .     A
C187   C193    1.456   .     S
C188   C190    1.404   .     A
C188   C189    1.420   .     A
C188   C735    1.390   1_554 S
C189   C192    1.411   .     A
C189   C209    1.427   .     A
C190   C191    1.391   .     A
C190   H218    1.084   .     S
C191   C203    1.394   .     A
C191   H224    1.083   .     S
C192   H223    1.076   .     S
C192   C203    1.391   .     A
C193   C255    1.335   .     S
C193   H280    1.087   .     S
C194   C315    1.335   1_455 S
C194   H342    1.086   1_455 S
C195   C202    1.418   .     A
C195   O232    1.378   .     S
C195   C204    1.410   .     A
C196   C199    1.451   .     S
C196   C380    1.331   .     S
C196   H404    1.088   .     S
C197   C198    1.436   .     S
C198   O239    1.279   .     A
C198   O233    1.279   .     A
C199   O234    1.271   .     A
C199   O240    1.270   .     A
C200   C203    1.450   .     S
C200   O227    1.272   .     A
C200   O229    1.274   .     A
C201   O230    1.290   .     A
C201   O228    1.280   .     A
C201   C202    1.480   .     S
C202   C205    1.397   .     A
C204   O231    1.385   .     S
C204   C207    1.410   .     A
C205   H213    1.075   .     S
C205   C206    1.406   .     A
C206   C207    1.419   .     A
C206   C208    1.429   .     A
C207   C760    1.396   .     S
C208   C758    1.427   .     S
C209   C210    1.412   .     A
C209   C757    1.427   1_554 S
C210   H214    1.075   .     S
C210   C211    1.383   .     A
C211   H212    1.083   .     S
C211   C756    1.396   1_554 S
H216   O231    0.990   .     S
H217   O232    0.991   .     S
H219   C315    1.087   1_455 S
H220   C255    1.086   .     S
H222   C380    1.086   .     S
O226   Zn242   1.942   .     S
O226   Zn243   1.936   .     S
O226   Zn244   1.929   .     S
O226   Zn241   1.966   .     S
O227   Zn242   1.935   .     S
O228   Zn244   1.947   .     S
O229   Zn243   1.938   .     S
O230   Zn241   1.928   .     S
O233   Zn241   1.927   .     S
O234   Zn244   1.933   .     S
O235   Zn242   1.926   .     S
O236   Zn243   1.938   .     S
O237   Zn244   1.932   .     S
O238   Zn241   1.923   .     S
O239   Zn242   1.939   .     S
O240   Zn243   1.930   .     S
C245   O298    1.269   .     A
C245   O296    1.269   .     A
C245   C255    1.438   .     S
C246   C247    1.385   .     A
C246   C269    1.416   .     A
C246   H276    1.076   .     S
C247   H286    1.084   .     S
C247   C798    1.390   .     S
C248   O297    1.285   .     A
C248   O299    1.281   .     A
C248   C254    1.456   .     S
C249   C251    1.404   .     A
C249   C250    1.420   .     A
C249   C796    1.390   1_554 S
C250   C253    1.411   .     A
C250   C270    1.427   .     A
C251   C252    1.391   .     A
C251   H279    1.084   .     S
C252   C264    1.394   .     A
C252   H285    1.083   .     S
C253   H284    1.076   .     S
C253   C264    1.391   .     A
C254   C316    1.335   .     S
C254   H341    1.087   .     S
C256   C263    1.418   .     A
C256   O293    1.378   .     S
C256   C265    1.410   .     A
C257   C260    1.451   .     S
C257   C441    1.331   .     S
C257   H465    1.088   .     S
C258   C259    1.436   .     S
C259   O300    1.279   .     A
C259   O294    1.279   .     A
C260   O295    1.271   .     A
C260   O301    1.270   .     A
C261   C264    1.450   .     S
C261   O288    1.272   .     A
C261   O290    1.274   .     A
C262   O291    1.290   .     A
C262   O289    1.280   .     A
C262   C263    1.480   .     S
C263   C266    1.397   .     A
C265   O292    1.385   .     S
C265   C268    1.410   .     A
C266   H274    1.075   .     S
C266   C267    1.406   .     A
C267   C268    1.419   .     A
C267   C269    1.429   .     A
C268   C821    1.396   .     S
C269   C819    1.427   .     S
C270   C271    1.412   .     A
C270   C818    1.427   1_554 S
C271   H275    1.075   .     S
C271   C272    1.383   .     A
C272   H273    1.083   .     S
C272   C817    1.396   1_554 S
H277   O292    0.990   .     S
H278   O293    0.991   .     S
H281   C316    1.086   .     S
H283   C441    1.086   .     S
O287   Zn303   1.942   .     S
O287   Zn304   1.936   .     S
O287   Zn305   1.929   .     S
O287   Zn302   1.966   .     S
O288   Zn303   1.935   .     S
O289   Zn305   1.947   .     S
O290   Zn304   1.938   .     S
O291   Zn302   1.928   .     S
O294   Zn302   1.927   .     S
O295   Zn305   1.933   .     S
O296   Zn303   1.926   .     S
O297   Zn304   1.938   .     S
O298   Zn305   1.932   .     S
O299   Zn302   1.923   .     S
O300   Zn303   1.939   .     S
O301   Zn304   1.930   .     S
C306   O359    1.269   .     A
C306   O357    1.269   .     A
C306   C316    1.438   .     S
C307   C308    1.385   .     A
C307   C330    1.416   .     A
C307   H337    1.076   .     S
C308   H347    1.084   .     S
C308   C859    1.390   .     S
C309   O358    1.285   .     A
C309   O360    1.281   .     A
C309   C315    1.456   .     S
C310   C312    1.404   .     A
C310   C311    1.420   .     A
C310   C857    1.390   1_554 S
C311   C314    1.411   .     A
C311   C331    1.427   .     A
C312   C313    1.391   .     A
C312   H340    1.084   .     S
C313   C325    1.394   .     A
C313   H346    1.083   .     S
C314   H345    1.076   .     S
C314   C325    1.391   .     A
C315   C194    1.335   1_655 S
C315   H219    1.087   1_655 S
C317   C324    1.418   .     A
C317   O354    1.378   .     S
C317   C326    1.410   .     A
C318   C321    1.451   .     S
C318   C502    1.331   .     S
C318   H526    1.088   .     S
C319   C320    1.436   .     S
C320   O361    1.279   .     A
C320   O355    1.279   .     A
C321   O356    1.271   .     A
C321   O362    1.270   .     A
C322   C325    1.450   .     S
C322   O349    1.272   .     A
C322   O351    1.274   .     A
C323   O352    1.290   .     A
C323   O350    1.280   .     A
C323   C324    1.480   .     S
C324   C327    1.397   .     A
C326   O353    1.385   .     S
C326   C329    1.410   .     A
C327   H335    1.075   .     S
C327   C328    1.406   .     A
C328   C329    1.419   .     A
C328   C330    1.429   .     A
C329   C882    1.396   .     S
C330   C880    1.427   .     S
C331   C332    1.412   .     A
C331   C879    1.427   1_554 S
C332   H336    1.075   .     S
C332   C333    1.383   .     A
C333   H334    1.083   .     S
C333   C878    1.396   1_554 S
H338   O353    0.990   .     S
H339   O354    0.991   .     S
H342   C194    1.086   1_655 S
H344   C502    1.086   .     S
O348   Zn364   1.942   .     S
O348   Zn365   1.936   .     S
O348   Zn366   1.929   .     S
O348   Zn363   1.966   .     S
O349   Zn364   1.935   .     S
O350   Zn366   1.947   .     S
O351   Zn365   1.938   .     S
O352   Zn363   1.928   .     S
O355   Zn363   1.927   .     S
O356   Zn366   1.933   .     S
O357   Zn364   1.926   .     S
O358   Zn365   1.938   .     S
O359   Zn366   1.932   .     S
O360   Zn363   1.923   .     S
O361   Zn364   1.939   .     S
O362   Zn365   1.930   .     S
C367   O420    1.269   .     A
C367   O418    1.269   .     A
C367   C377    1.438   .     S
C368   C369    1.385   .     A
C368   C391    1.416   .     A
C368   H398    1.076   .     S
C369   H408    1.084   .     S
C369   C920    1.390   .     S
C370   O419    1.285   .     A
C370   O421    1.281   .     A
C370   C376    1.456   .     S
C371   C373    1.404   .     A
C371   C372    1.420   .     A
C371   C918    1.390   1_554 S
C372   C375    1.411   .     A
C372   C392    1.427   .     A
C373   C374    1.391   .     A
C373   H401    1.084   .     S
C374   C386    1.394   .     A
C374   H407    1.083   .     S
C375   H406    1.076   .     S
C375   C386    1.391   .     A
C376   C438    1.335   .     S
C376   H463    1.087   .     S
C377   C498    1.335   1_455 S
C377   H525    1.086   1_455 S
C378   C385    1.418   .     A
C378   O415    1.378   .     S
C378   C387    1.410   .     A
C379   C382    1.451   .     S
C379   C14     1.331   1_565 S
C379   H38     1.088   1_565 S
C380   C381    1.436   .     S
C381   O422    1.279   .     A
C381   O416    1.279   .     A
C382   O417    1.271   .     A
C382   O423    1.270   .     A
C383   C386    1.450   .     S
C383   O410    1.272   .     A
C383   O412    1.274   .     A
C384   O413    1.290   .     A
C384   O411    1.280   .     A
C384   C385    1.480   .     S
C385   C388    1.397   .     A
C387   O414    1.385   .     S
C387   C390    1.410   .     A
C388   H396    1.075   .     S
C388   C389    1.406   .     A
C389   C390    1.419   .     A
C389   C391    1.429   .     A
C390   C943    1.396   .     S
C391   C941    1.427   .     S
C392   C393    1.412   .     A
C392   C940    1.427   1_554 S
C393   H397    1.075   .     S
C393   C394    1.383   .     A
C394   H395    1.083   .     S
C394   C939    1.396   1_554 S
H399   O414    0.990   .     S
H400   O415    0.991   .     S
H402   C498    1.087   1_455 S
H403   C438    1.086   .     S
H405   C14     1.086   1_565 S
O409   Zn425   1.942   .     S
O409   Zn426   1.936   .     S
O409   Zn427   1.929   .     S
O409   Zn424   1.966   .     S
O410   Zn425   1.935   .     S
O411   Zn427   1.947   .     S
O412   Zn426   1.938   .     S
O413   Zn424   1.928   .     S
O416   Zn424   1.927   .     S
O417   Zn427   1.933   .     S
O418   Zn425   1.926   .     S
O419   Zn426   1.938   .     S
O420   Zn427   1.932   .     S
O421   Zn424   1.923   .     S
O422   Zn425   1.939   .     S
O423   Zn426   1.930   .     S
C428   O481    1.269   .     A
C428   O479    1.269   .     A
C428   C438    1.438   .     S
C429   C430    1.385   .     A
C429   C452    1.416   .     A
C429   H459    1.076   .     S
C430   H469    1.084   .     S
C430   C981    1.390   .     S
C431   O480    1.285   .     A
C431   O482    1.281   .     A
C431   C437    1.456   .     S
C432   C434    1.404   .     A
C432   C433    1.420   .     A
C432   C979    1.390   1_554 S
C433   C436    1.411   .     A
C433   C453    1.427   .     A
C434   C435    1.391   .     A
C434   H462    1.084   .     S
C435   C447    1.394   .     A
C435   H468    1.083   .     S
C436   H467    1.076   .     S
C436   C447    1.391   .     A
C437   C499    1.335   .     S
C437   H524    1.087   .     S
C439   C446    1.418   .     A
C439   O476    1.378   .     S
C439   C448    1.410   .     A
C440   C443    1.451   .     S
C440   C75     1.331   1_565 S
C440   H99     1.088   1_565 S
C441   C442    1.436   .     S
C442   O483    1.279   .     A
C442   O477    1.279   .     A
C443   O478    1.271   .     A
C443   O484    1.270   .     A
C444   C447    1.450   .     S
C444   O471    1.272   .     A
C444   O473    1.274   .     A
C445   O474    1.290   .     A
C445   O472    1.280   .     A
C445   C446    1.480   .     S
C446   C449    1.397   .     A
C448   O475    1.385   .     S
C448   C451    1.410   .     A
C449   H457    1.075   .     S
C449   C450    1.406   .     A
C450   C451    1.419   .     A
C450   C452    1.429   .     A
C451   C1004   1.396   .     S
C452   C1002   1.427   .     S
C453   C454    1.412   .     A
C453   C1001   1.427   1_554 S
C454   H458    1.075   .     S
C454   C455    1.383   .     A
C455   H456    1.083   .     S
C455   C1000   1.396   1_554 S
H460   O475    0.990   .     S
H461   O476    0.991   .     S
H464   C499    1.086   .     S
H466   C75     1.086   1_565 S
O470   Zn486   1.942   .     S
O470   Zn487   1.936   .     S
O470   Zn488   1.929   .     S
O470   Zn485   1.966   .     S
O471   Zn486   1.935   .     S
O472   Zn488   1.947   .     S
O473   Zn487   1.938   .     S
O474   Zn485   1.928   .     S
O477   Zn485   1.927   .     S
O478   Zn488   1.933   .     S
O479   Zn486   1.926   .     S
O480   Zn487   1.938   .     S
O481   Zn488   1.932   .     S
O482   Zn485   1.923   .     S
O483   Zn486   1.939   .     S
O484   Zn487   1.930   .     S
C489   O542    1.269   .     A
C489   O540    1.269   .     A
C489   C499    1.438   .     S
C490   C491    1.385   .     A
C490   C513    1.416   .     A
C490   H520    1.076   .     S
C491   H530    1.084   .     S
C491   C1042   1.390   .     S
C492   O541    1.285   .     A
C492   O543    1.281   .     A
C492   C498    1.456   .     S
C493   C495    1.404   .     A
C493   C494    1.420   .     A
C493   C1040   1.390   1_554 S
C494   C497    1.411   .     A
C494   C514    1.427   .     A
C495   C496    1.391   .     A
C495   H523    1.084   .     S
C496   C508    1.394   .     A
C496   H529    1.083   .     S
C497   H528    1.076   .     S
C497   C508    1.391   .     A
C498   C377    1.335   1_655 S
C498   H402    1.087   1_655 S
C500   C507    1.418   .     A
C500   O537    1.378   .     S
C500   C509    1.410   .     A
C501   C504    1.451   .     S
C501   C136    1.331   1_565 S
C501   H160    1.088   1_565 S
C502   C503    1.436   .     S
C503   O544    1.279   .     A
C503   O538    1.279   .     A
C504   O539    1.271   .     A
C504   O545    1.270   .     A
C505   C508    1.450   .     S
C505   O532    1.272   .     A
C505   O534    1.274   .     A
C506   O535    1.290   .     A
C506   O533    1.280   .     A
C506   C507    1.480   .     S
C507   C510    1.397   .     A
C509   O536    1.385   .     S
C509   C512    1.410   .     A
C510   H518    1.075   .     S
C510   C511    1.406   .     A
C511   C512    1.419   .     A
C511   C513    1.429   .     A
C512   C1065   1.396   .     S
C513   C1063   1.427   .     S
C514   C515    1.412   .     A
C514   C1062   1.427   1_554 S
C515   H519    1.075   .     S
C515   C516    1.383   .     A
C516   H517    1.083   .     S
C516   C1061   1.396   1_554 S
H521   O536    0.990   .     S
H522   O537    0.991   .     S
H525   C377    1.086   1_655 S
H527   C136    1.086   1_565 S
O531   Zn547   1.942   .     S
O531   Zn548   1.936   .     S
O531   Zn549   1.929   .     S
O531   Zn546   1.966   .     S
O532   Zn547   1.935   .     S
O533   Zn549   1.947   .     S
O534   Zn548   1.938   .     S
O535   Zn546   1.928   .     S
O538   Zn546   1.927   .     S
O539   Zn549   1.933   .     S
O540   Zn547   1.926   .     S
O541   Zn548   1.938   .     S
O542   Zn549   1.932   .     S
O543   Zn546   1.923   .     S
O544   Zn547   1.939   .     S
O545   Zn548   1.930   .     S
C550   O603    1.269   .     A
C550   O601    1.269   .     A
C550   C560    1.438   .     S
C551   C552    1.385   .     A
C551   C574    1.416   .     A
C551   H581    1.076   .     S
C552   H591    1.084   .     S
C552   C5      1.390   1_556 S
C553   O602    1.285   .     A
C553   O604    1.281   .     A
C553   C559    1.456   .     S
C554   C556    1.404   .     A
C554   C555    1.420   .     A
C555   C558    1.411   .     A
C555   C575    1.427   .     A
C556   C557    1.391   .     A
C556   H584    1.084   .     S
C557   C569    1.394   .     A
C557   H590    1.083   .     S
C558   H589    1.076   .     S
C558   C569    1.391   .     A
C559   C621    1.335   .     S
C559   H646    1.087   .     S
C560   C681    1.335   1_455 S
C560   H708    1.086   1_455 S
C561   C568    1.418   .     A
C561   O598    1.378   .     S
C561   C570    1.410   .     A
C562   C565    1.451   .     S
C562   C746    1.331   .     S
C562   H770    1.088   .     S
C563   C564    1.436   .     S
C563   C928    1.331   1_545 S
C563   H954    1.086   1_545 S
C564   O605    1.279   .     A
C564   O599    1.279   .     A
C565   O600    1.271   .     A
C565   O606    1.270   .     A
C566   C569    1.450   .     S
C566   O593    1.272   .     A
C566   O595    1.274   .     A
C567   O596    1.290   .     A
C567   O594    1.280   .     A
C567   C568    1.480   .     S
C568   C571    1.397   .     A
C570   O597    1.385   .     S
C570   C573    1.410   .     A
C571   H579    1.075   .     S
C571   C572    1.406   .     A
C572   C573    1.419   .     A
C572   C574    1.429   .     A
C573   C28     1.396   1_556 S
C574   C26     1.427   1_556 S
C575   C576    1.412   .     A
C576   H580    1.075   .     S
C576   C577    1.383   .     A
C577   H578    1.083   .     S
H582   O597    0.990   .     S
H583   O598    0.991   .     S
H585   C681    1.087   1_455 S
H586   C621    1.086   .     S
H587   C928    1.088   1_545 S
H588   C746    1.086   .     S
O592   Zn608   1.942   .     S
O592   Zn609   1.936   .     S
O592   Zn610   1.929   .     S
O592   Zn607   1.966   .     S
O593   Zn608   1.935   .     S
O594   Zn610   1.947   .     S
O595   Zn609   1.938   .     S
O596   Zn607   1.928   .     S
O599   Zn607   1.927   .     S
O600   Zn610   1.933   .     S
O601   Zn608   1.926   .     S
O602   Zn609   1.938   .     S
O603   Zn610   1.932   .     S
O604   Zn607   1.923   .     S
O605   Zn608   1.939   .     S
O606   Zn609   1.930   .     S
C611   O664    1.269   .     A
C611   O662    1.269   .     A
C611   C621    1.438   .     S
C612   C613    1.385   .     A
C612   C635    1.416   .     A
C612   H642    1.076   .     S
C613   H652    1.084   .     S
C613   C66     1.390   1_556 S
C614   O663    1.285   .     A
C614   O665    1.281   .     A
C614   C620    1.456   .     S
C615   C617    1.404   .     A
C615   C616    1.420   .     A
C616   C619    1.411   .     A
C616   C636    1.427   .     A
C617   C618    1.391   .     A
C617   H645    1.084   .     S
C618   C630    1.394   .     A
C618   H651    1.083   .     S
C619   H650    1.076   .     S
C619   C630    1.391   .     A
C620   C682    1.335   .     S
C620   H707    1.087   .     S
C622   C629    1.418   .     A
C622   O659    1.378   .     S
C622   C631    1.410   .     A
C623   C626    1.451   .     S
C623   C807    1.331   .     S
C623   H831    1.088   .     S
C624   C625    1.436   .     S
C624   C989    1.331   1_545 S
C624   H1015   1.086   1_545 S
C625   O666    1.279   .     A
C625   O660    1.279   .     A
C626   O661    1.271   .     A
C626   O667    1.270   .     A
C627   C630    1.450   .     S
C627   O654    1.272   .     A
C627   O656    1.274   .     A
C628   O657    1.290   .     A
C628   O655    1.280   .     A
C628   C629    1.480   .     S
C629   C632    1.397   .     A
C631   O658    1.385   .     S
C631   C634    1.410   .     A
C632   H640    1.075   .     S
C632   C633    1.406   .     A
C633   C634    1.419   .     A
C633   C635    1.429   .     A
C634   C89     1.396   1_556 S
C635   C87     1.427   1_556 S
C636   C637    1.412   .     A
C637   H641    1.075   .     S
C637   C638    1.383   .     A
C638   H639    1.083   .     S
H643   O658    0.990   .     S
H644   O659    0.991   .     S
H647   C682    1.086   .     S
H648   C989    1.088   1_545 S
H649   C807    1.086   .     S
O653   Zn669   1.942   .     S
O653   Zn670   1.936   .     S
O653   Zn671   1.929   .     S
O653   Zn668   1.966   .     S
O654   Zn669   1.935   .     S
O655   Zn671   1.947   .     S
O656   Zn670   1.938   .     S
O657   Zn668   1.928   .     S
O660   Zn668   1.927   .     S
O661   Zn671   1.933   .     S
O662   Zn669   1.926   .     S
O663   Zn670   1.938   .     S
O664   Zn671   1.932   .     S
O665   Zn668   1.923   .     S
O666   Zn669   1.939   .     S
O667   Zn670   1.930   .     S
C672   O725    1.269   .     A
C672   O723    1.269   .     A
C672   C682    1.438   .     S
C673   C674    1.385   .     A
C673   C696    1.416   .     A
C673   H703    1.076   .     S
C674   H713    1.084   .     S
C674   C127    1.390   1_556 S
C675   O724    1.285   .     A
C675   O726    1.281   .     A
C675   C681    1.456   .     S
C676   C678    1.404   .     A
C676   C677    1.420   .     A
C677   C680    1.411   .     A
C677   C697    1.427   .     A
C678   C679    1.391   .     A
C678   H706    1.084   .     S
C679   C691    1.394   .     A
C679   H712    1.083   .     S
C680   H711    1.076   .     S
C680   C691    1.391   .     A
C681   C560    1.335   1_655 S
C681   H585    1.087   1_655 S
C683   C690    1.418   .     A
C683   O720    1.378   .     S
C683   C692    1.410   .     A
C684   C687    1.451   .     S
C684   C868    1.331   .     S
C684   H892    1.088   .     S
C685   C686    1.436   .     S
C685   C1050   1.331   1_545 S
C685   H1076   1.086   1_545 S
C686   O727    1.279   .     A
C686   O721    1.279   .     A
C687   O722    1.271   .     A
C687   O728    1.270   .     A
C688   C691    1.450   .     S
C688   O715    1.272   .     A
C688   O717    1.274   .     A
C689   O718    1.290   .     A
C689   O716    1.280   .     A
C689   C690    1.480   .     S
C690   C693    1.397   .     A
C692   O719    1.385   .     S
C692   C695    1.410   .     A
C693   H701    1.075   .     S
C693   C694    1.406   .     A
C694   C695    1.419   .     A
C694   C696    1.429   .     A
C695   C150    1.396   1_556 S
C696   C148    1.427   1_556 S
C697   C698    1.412   .     A
C698   H702    1.075   .     S
C698   C699    1.383   .     A
C699   H700    1.083   .     S
H704   O719    0.990   .     S
H705   O720    0.991   .     S
H708   C560    1.086   1_655 S
H709   C1050   1.088   1_545 S
H710   C868    1.086   .     S
O714   Zn730   1.942   .     S
O714   Zn731   1.936   .     S
O714   Zn732   1.929   .     S
O714   Zn729   1.966   .     S
O715   Zn730   1.935   .     S
O716   Zn732   1.947   .     S
O717   Zn731   1.938   .     S
O718   Zn729   1.928   .     S
O721   Zn729   1.927   .     S
O722   Zn732   1.933   .     S
O723   Zn730   1.926   .     S
O724   Zn731   1.938   .     S
O725   Zn732   1.932   .     S
O726   Zn729   1.923   .     S
O727   Zn730   1.939   .     S
O728   Zn731   1.930   .     S
C733   O786    1.269   .     A
C733   O784    1.269   .     A
C733   C743    1.438   .     S
C734   C735    1.385   .     A
C734   C757    1.416   .     A
C734   H764    1.076   .     S
C735   H774    1.084   .     S
C735   C188    1.390   1_556 S
C736   O785    1.285   .     A
C736   O787    1.281   .     A
C736   C742    1.456   .     S
C737   C739    1.404   .     A
C737   C738    1.420   .     A
C738   C741    1.411   .     A
C738   C758    1.427   .     A
C739   C740    1.391   .     A
C739   H767    1.084   .     S
C740   C752    1.394   .     A
C740   H773    1.083   .     S
C741   H772    1.076   .     S
C741   C752    1.391   .     A
C742   C804    1.335   .     S
C742   H829    1.087   .     S
C743   C864    1.335   1_455 S
C743   H891    1.086   1_455 S
C744   C751    1.418   .     A
C744   O781    1.378   .     S
C744   C753    1.410   .     A
C745   C748    1.451   .     S
C745   C929    1.331   .     S
C745   H953    1.088   .     S
C746   C747    1.436   .     S
C747   O788    1.279   .     A
C747   O782    1.279   .     A
C748   O783    1.271   .     A
C748   O789    1.270   .     A
C749   C752    1.450   .     S
C749   O776    1.272   .     A
C749   O778    1.274   .     A
C750   O779    1.290   .     A
C750   O777    1.280   .     A
C750   C751    1.480   .     S
C751   C754    1.397   .     A
C753   O780    1.385   .     S
C753   C756    1.410   .     A
C754   H762    1.075   .     S
C754   C755    1.406   .     A
C755   C756    1.419   .     A
C755   C757    1.429   .     A
C756   C211    1.396   1_556 S
C757   C209    1.427   1_556 S
C758   C759    1.412   .     A
C759   H763    1.075   .     S
C759   C760    1.383   .     A
C760   H761    1.083   .     S
H765   O780    0.990   .     S
H766   O781    0.991   .     S
H768   C864    1.087   1_455 S
H769   C804    1.086   .     S
H771   C929    1.086   .     S
O775   Zn791   1.942   .     S
O775   Zn792   1.936   .     S
O775   Zn793   1.929   .     S
O775   Zn790   1.966   .     S
O776   Zn791   1.935   .     S
O777   Zn793   1.947   .     S
O778   Zn792   1.938   .     S
O779   Zn790   1.928   .     S
O782   Zn790   1.927   .     S
O783   Zn793   1.933   .     S
O784   Zn791   1.926   .     S
O785   Zn792   1.938   .     S
O786   Zn793   1.932   .     S
O787   Zn790   1.923   .     S
O788   Zn791   1.939   .     S
O789   Zn792   1.930   .     S
C794   O847    1.269   .     A
C794   O845    1.269   .     A
C794   C804    1.438   .     S
C795   C796    1.385   .     A
C795   C818    1.416   .     A
C795   H825    1.076   .     S
C796   H835    1.084   .     S
C796   C249    1.390   1_556 S
C797   O846    1.285   .     A
C797   O848    1.281   .     A
C797   C803    1.456   .     S
C798   C800    1.404   .     A
C798   C799    1.420   .     A
C799   C802    1.411   .     A
C799   C819    1.427   .     A
C800   C801    1.391   .     A
C800   H828    1.084   .     S
C801   C813    1.394   .     A
C801   H834    1.083   .     S
C802   H833    1.076   .     S
C802   C813    1.391   .     A
C803   C865    1.335   .     S
C803   H890    1.087   .     S
C805   C812    1.418   .     A
C805   O842    1.378   .     S
C805   C814    1.410   .     A
C806   C809    1.451   .     S
C806   C990    1.331   .     S
C806   H1014   1.088   .     S
C807   C808    1.436   .     S
C808   O849    1.279   .     A
C808   O843    1.279   .     A
C809   O844    1.271   .     A
C809   O850    1.270   .     A
C810   C813    1.450   .     S
C810   O837    1.272   .     A
C810   O839    1.274   .     A
C811   O840    1.290   .     A
C811   O838    1.280   .     A
C811   C812    1.480   .     S
C812   C815    1.397   .     A
C814   O841    1.385   .     S
C814   C817    1.410   .     A
C815   H823    1.075   .     S
C815   C816    1.406   .     A
C816   C817    1.419   .     A
C816   C818    1.429   .     A
C817   C272    1.396   1_556 S
C818   C270    1.427   1_556 S
C819   C820    1.412   .     A
C820   H824    1.075   .     S
C820   C821    1.383   .     A
C821   H822    1.083   .     S
H826   O841    0.990   .     S
H827   O842    0.991   .     S
H830   C865    1.086   .     S
H832   C990    1.086   .     S
O836   Zn852   1.942   .     S
O836   Zn853   1.936   .     S
O836   Zn854   1.929   .     S
O836   Zn851   1.966   .     S
O837   Zn852   1.935   .     S
O838   Zn854   1.947   .     S
O839   Zn853   1.938   .     S
O840   Zn851   1.928   .     S
O843   Zn851   1.927   .     S
O844   Zn854   1.933   .     S
O845   Zn852   1.926   .     S
O846   Zn853   1.938   .     S
O847   Zn854   1.932   .     S
O848   Zn851   1.923   .     S
O849   Zn852   1.939   .     S
O850   Zn853   1.930   .     S
C855   O908    1.269   .     A
C855   O906    1.269   .     A
C855   C865    1.438   .     S
C856   C857    1.385   .     A
C856   C879    1.416   .     A
C856   H886    1.076   .     S
C857   H896    1.084   .     S
C857   C310    1.390   1_556 S
C858   O907    1.285   .     A
C858   O909    1.281   .     A
C858   C864    1.456   .     S
C859   C861    1.404   .     A
C859   C860    1.420   .     A
C860   C863    1.411   .     A
C860   C880    1.427   .     A
C861   C862    1.391   .     A
C861   H889    1.084   .     S
C862   C874    1.394   .     A
C862   H895    1.083   .     S
C863   H894    1.076   .     S
C863   C874    1.391   .     A
C864   C743    1.335   1_655 S
C864   H768    1.087   1_655 S
C866   C873    1.418   .     A
C866   O903    1.378   .     S
C866   C875    1.410   .     A
C867   C870    1.451   .     S
C867   C1051   1.331   .     S
C867   H1075   1.088   .     S
C868   C869    1.436   .     S
C869   O910    1.279   .     A
C869   O904    1.279   .     A
C870   O905    1.271   .     A
C870   O911    1.270   .     A
C871   C874    1.450   .     S
C871   O898    1.272   .     A
C871   O900    1.274   .     A
C872   O901    1.290   .     A
C872   O899    1.280   .     A
C872   C873    1.480   .     S
C873   C876    1.397   .     A
C875   O902    1.385   .     S
C875   C878    1.410   .     A
C876   H884    1.075   .     S
C876   C877    1.406   .     A
C877   C878    1.419   .     A
C877   C879    1.429   .     A
C878   C333    1.396   1_556 S
C879   C331    1.427   1_556 S
C880   C881    1.412   .     A
C881   H885    1.075   .     S
C881   C882    1.383   .     A
C882   H883    1.083   .     S
H887   O902    0.990   .     S
H888   O903    0.991   .     S
H891   C743    1.086   1_655 S
H893   C1051   1.086   .     S
O897   Zn913   1.942   .     S
O897   Zn914   1.936   .     S
O897   Zn915   1.929   .     S
O897   Zn912   1.966   .     S
O898   Zn913   1.935   .     S
O899   Zn915   1.947   .     S
O900   Zn914   1.938   .     S
O901   Zn912   1.928   .     S
O904   Zn912   1.927   .     S
O905   Zn915   1.933   .     S
O906   Zn913   1.926   .     S
O907   Zn914   1.938   .     S
O908   Zn915   1.932   .     S
O909   Zn912   1.923   .     S
O910   Zn913   1.939   .     S
O911   Zn914   1.930   .     S
C916   O969    1.269   .     A
C916   O967    1.269   .     A
C916   C926    1.438   .     S
C917   C918    1.385   .     A
C917   C940    1.416   .     A
C917   H947    1.076   .     S
C918   H957    1.084   .     S
C918   C371    1.390   1_556 S
C919   O968    1.285   .     A
C919   O970    1.281   .     A
C919   C925    1.456   .     S
C920   C922    1.404   .     A
C920   C921    1.420   .     A
C921   C924    1.411   .     A
C921   C941    1.427   .     A
C922   C923    1.391   .     A
C922   H950    1.084   .     S
C923   C935    1.394   .     A
C923   H956    1.083   .     S
C924   H955    1.076   .     S
C924   C935    1.391   .     A
C925   C987    1.335   .     S
C925   H1012   1.087   .     S
C926   C1047   1.335   1_455 S
C926   H1074   1.086   1_455 S
C927   C934    1.418   .     A
C927   O964    1.378   .     S
C927   C936    1.410   .     A
C928   C931    1.451   .     S
C928   C563    1.331   1_565 S
C928   H587    1.088   1_565 S
C929   C930    1.436   .     S
C930   O971    1.279   .     A
C930   O965    1.279   .     A
C931   O966    1.271   .     A
C931   O972    1.270   .     A
C932   C935    1.450   .     S
C932   O959    1.272   .     A
C932   O961    1.274   .     A
C933   O962    1.290   .     A
C933   O960    1.280   .     A
C933   C934    1.480   .     S
C934   C937    1.397   .     A
C936   O963    1.385   .     S
C936   C939    1.410   .     A
C937   H945    1.075   .     S
C937   C938    1.406   .     A
C938   C939    1.419   .     A
C938   C940    1.429   .     A
C939   C394    1.396   1_556 S
C940   C392    1.427   1_556 S
C941   C942    1.412   .     A
C942   H946    1.075   .     S
C942   C943    1.383   .     A
C943   H944    1.083   .     S
H948   O963    0.990   .     S
H949   O964    0.991   .     S
H951   C1047   1.087   1_455 S
H952   C987    1.086   .     S
H954   C563    1.086   1_565 S
O958   Zn974   1.942   .     S
O958   Zn975   1.936   .     S
O958   Zn976   1.929   .     S
O958   Zn973   1.966   .     S
O959   Zn974   1.935   .     S
O960   Zn976   1.947   .     S
O961   Zn975   1.938   .     S
O962   Zn973   1.928   .     S
O965   Zn973   1.927   .     S
O966   Zn976   1.933   .     S
O967   Zn974   1.926   .     S
O968   Zn975   1.938   .     S
O969   Zn976   1.932   .     S
O970   Zn973   1.923   .     S
O971   Zn974   1.939   .     S
O972   Zn975   1.930   .     S
C977   O1030   1.269   .     A
C977   O1028   1.269   .     A
C977   C987    1.438   .     S
C978   C979    1.385   .     A
C978   C1001   1.416   .     A
C978   H1008   1.076   .     S
C979   H1018   1.084   .     S
C979   C432    1.390   1_556 S
C980   O1029   1.285   .     A
C980   O1031   1.281   .     A
C980   C986    1.456   .     S
C981   C983    1.404   .     A
C981   C982    1.420   .     A
C982   C985    1.411   .     A
C982   C1002   1.427   .     A
C983   C984    1.391   .     A
C983   H1011   1.084   .     S
C984   C996    1.394   .     A
C984   H1017   1.083   .     S
C985   H1016   1.076   .     S
C985   C996    1.391   .     A
C986   C1048   1.335   .     S
C986   H1073   1.087   .     S
C988   C995    1.418   .     A
C988   O1025   1.378   .     S
C988   C997    1.410   .     A
C989   C992    1.451   .     S
C989   C624    1.331   1_565 S
C989   H648    1.088   1_565 S
C990   C991    1.436   .     S
C991   O1032   1.279   .     A
C991   O1026   1.279   .     A
C992   O1027   1.271   .     A
C992   O1033   1.270   .     A
C993   C996    1.450   .     S
C993   O1020   1.272   .     A
C993   O1022   1.274   .     A
C994   O1023   1.290   .     A
C994   O1021   1.280   .     A
C994   C995    1.480   .     S
C995   C998    1.397   .     A
C997   O1024   1.385   .     S
C997   C1000   1.410   .     A
C998   H1006   1.075   .     S
C998   C999    1.406   .     A
C999   C1000   1.419   .     A
C999   C1001   1.429   .     A
C1000  C455    1.396   1_556 S
C1001  C453    1.427   1_556 S
C1002  C1003   1.412   .     A
C1003  H1007   1.075   .     S
C1003  C1004   1.383   .     A
C1004  H1005   1.083   .     S
H1009  O1024   0.990   .     S
H1010  O1025   0.991   .     S
H1013  C1048   1.086   .     S
H1015  C624    1.086   1_565 S
O1019  Zn1035  1.942   .     S
O1019  Zn1036  1.936   .     S
O1019  Zn1037  1.929   .     S
O1019  Zn1034  1.966   .     S
O1020  Zn1035  1.935   .     S
O1021  Zn1037  1.947   .     S
O1022  Zn1036  1.938   .     S
O1023  Zn1034  1.928   .     S
O1026  Zn1034  1.927   .     S
O1027  Zn1037  1.933   .     S
O1028  Zn1035  1.926   .     S
O1029  Zn1036  1.938   .     S
O1030  Zn1037  1.932   .     S
O1031  Zn1034  1.923   .     S
O1032  Zn1035  1.939   .     S
O1033  Zn1036  1.930   .     S
C1038  O1091   1.269   .     A
C1038  O1089   1.269   .     A
C1038  C1048   1.438   .     S
C1039  C1040   1.385   .     A
C1039  C1062   1.416   .     A
C1039  H1069   1.076   .     S
C1040  H1079   1.084   .     S
C1040  C493    1.390   1_556 S
C1041  O1090   1.285   .     A
C1041  O1092   1.281   .     A
C1041  C1047   1.456   .     S
C1042  C1044   1.404   .     A
C1042  C1043   1.420   .     A
C1043  C1046   1.411   .     A
C1043  C1063   1.427   .     A
C1044  C1045   1.391   .     A
C1044  H1072   1.084   .     S
C1045  C1057   1.394   .     A
C1045  H1078   1.083   .     S
C1046  H1077   1.076   .     S
C1046  C1057   1.391   .     A
C1047  C926    1.335   1_655 S
C1047  H951    1.087   1_655 S
C1049  C1056   1.418   .     A
C1049  O1086   1.378   .     S
C1049  C1058   1.410   .     A
C1050  C1053   1.451   .     S
C1050  C685    1.331   1_565 S
C1050  H709    1.088   1_565 S
C1051  C1052   1.436   .     S
C1052  O1093   1.279   .     A
C1052  O1087   1.279   .     A
C1053  O1088   1.271   .     A
C1053  O1094   1.270   .     A
C1054  C1057   1.450   .     S
C1054  O1081   1.272   .     A
C1054  O1083   1.274   .     A
C1055  O1084   1.290   .     A
C1055  O1082   1.280   .     A
C1055  C1056   1.480   .     S
C1056  C1059   1.397   .     A
C1058  O1085   1.385   .     S
C1058  C1061   1.410   .     A
C1059  H1067   1.075   .     S
C1059  C1060   1.406   .     A
C1060  C1061   1.419   .     A
C1060  C1062   1.429   .     A
C1061  C516    1.396   1_556 S
C1062  C514    1.427   1_556 S
C1063  C1064   1.412   .     A
C1064  H1068   1.075   .     S
C1064  C1065   1.383   .     A
C1065  H1066   1.083   .     S
H1070  O1085   0.990   .     S
H1071  O1086   0.991   .     S
H1074  C926    1.086   1_655 S
H1076  C685    1.086   1_565 S
O1080  Zn1096  1.942   .     S
O1080  Zn1097  1.936   .     S
O1080  Zn1098  1.929   .     S
O1080  Zn1095  1.966   .     S
O1081  Zn1096  1.935   .     S
O1082  Zn1098  1.947   .     S
O1083  Zn1097  1.938   .     S
O1084  Zn1095  1.928   .     S
O1087  Zn1095  1.927   .     S
O1088  Zn1098  1.933   .     S
O1089  Zn1096  1.926   .     S
O1090  Zn1097  1.938   .     S
O1091  Zn1098  1.932   .     S
O1092  Zn1095  1.923   .     S
O1093  Zn1096  1.939   .     S
O1094  Zn1097  1.930   .     S
