data_str_m2_o1_o16_pcu_sym.122
_audit_creation_date              2020-01-03
_audit_creation_method            'Materials Studio'
_symmetry_space_group_name_H-M    'P1'
_symmetry_Int_Tables_number       1
_symmetry_cell_setting            triclinic
loop_
_symmetry_equiv_pos_as_xyz
  x,y,z
_cell_length_a                    28.6000
_cell_length_b                    32.4374
_cell_length_c                    26.9093
_cell_angle_alpha                 90.8041
_cell_angle_beta                  73.0077
_cell_angle_gamma                 90.5459
loop_
_atom_site_label
_atom_site_type_symbol
_atom_site_fract_x
_atom_site_fract_y
_atom_site_fract_z
_atom_site_U_iso_or_equiv
_atom_site_adp_type
_atom_site_occupancy
C1     C     0.16672   0.24591   0.25043   0.00000  Uiso   1.00
C2     C     0.14419   0.17800   0.48988   0.00000  Uiso   1.00
C3     C     0.15765   0.18493   0.43568   0.00000  Uiso   1.00
C4     C     0.18037   0.18202   0.01635   0.00000  Uiso   1.00
C5     C     0.22726   0.19804   0.49004   0.00000  Uiso   1.00
C6     C     0.23723   0.21068   0.43872   0.00000  Uiso   1.00
C7     C     0.20276   0.20464   0.41209   0.00000  Uiso   1.00
C8     C     0.17176   0.16931   0.06781   0.00000  Uiso   1.00
C9     C     0.25335   0.19014   0.06741   0.00000  Uiso   1.00
C10    C     0.12498   0.17272   0.40715   0.00000  Uiso   1.00
C11    C     0.20993   0.31237   0.23243   0.00000  Uiso   1.00
C12    C     0.14069   0.16924   0.34996   0.00000  Uiso   1.00
C13    C     0.20924   0.02161   0.23303   0.00000  Uiso   1.00
C14    C     0.16509   0.04266   0.25377   0.00000  Uiso   1.00
C15    C     0.12094   0.02080   0.27555   0.00000  Uiso   1.00
C16    C     0.12220   0.31106   0.27355   0.00000  Uiso   1.00
C17    C     0.16638   0.29045   0.25197   0.00000  Uiso   1.00
C18    C     0.30169   0.19634   0.27647   0.00000  Uiso   1.00
C19    C     0.01777   0.19615   0.27683   0.00000  Uiso   1.00
C20    C     0.03172   0.13712   0.22258   0.00000  Uiso   1.00
C21    C     0.31513   0.13713   0.22341   0.00000  Uiso   1.00
C22    C     0.16603   0.08739   0.25150   0.00000  Uiso   1.00
C23    C     0.19270   0.16775   0.15007   0.00000  Uiso   1.00
C24    C     0.26340   0.20178   0.01566   0.00000  Uiso   1.00
C25    C     0.20714   0.17441   0.09386   0.00000  Uiso   1.00
C26    C     0.07696   0.16091   0.43398   0.00000  Uiso   1.00
C27    C     0.06178   0.15978   0.48782   0.00000  Uiso   1.00
C28    C     0.09493   0.16785   0.01559   0.00000  Uiso   1.00
Cu29   Cu    0.11978   0.16666   0.25000   0.00000  Uiso   1.00
Cu30   Cu    0.21355   0.16667   0.25000   0.00000  Uiso   1.00
H31    H     0.28113   0.19457   0.08708   0.00000  Uiso   1.00
H32    H     0.24325   0.03810   0.21643   0.00000  Uiso   1.00
H33    H     0.08929   0.29324   0.29012   0.00000  Uiso   1.00
H34    H     0.27774   0.22038   0.29736   0.00000  Uiso   1.00
H35    H     0.03067   0.21973   0.29851   0.00000  Uiso   1.00
H36    H     0.30123   0.11343   0.20277   0.00000  Uiso   1.00
H37    H     0.27201   0.22490   0.41884   0.00000  Uiso   1.00
H38    H     0.29920   0.21425   0.49585   0.00000  Uiso   1.00
H39    H     0.13768   0.15500   0.08853   0.00000  Uiso   1.00
H40    H     0.05098   0.15223   0.41332   0.00000  Uiso   1.00
H41    H     0.08063   0.16750   0.05721   0.00000  Uiso   1.00
H42    H     0.02435   0.15162   0.00817   0.00000  Uiso   1.00
H43    H     0.21145   0.21695   0.37346   0.00000  Uiso   1.00
H44    H     0.24430   0.29661   0.21574   0.00000  Uiso   1.00
N45    N     0.04931   0.16666   0.24999   0.00000  Uiso   1.00
N46    N     0.28402   0.16669   0.25000   0.00000  Uiso   1.00
O47    O     0.12708   0.22678   0.25001   0.00000  Uiso   1.00
O48    O     0.20627   0.22679   0.25001   0.00000  Uiso   1.00
O49    O     0.10775   0.16665   0.32549   0.00000  Uiso   1.00
O50    O     0.18694   0.16666   0.32549   0.00000  Uiso   1.00
O51    O     0.12706   0.10654   0.25000   0.00000  Uiso   1.00
O52    O     0.20625   0.10655   0.25000   0.00000  Uiso   1.00
O53    O     0.14640   0.16667   0.17451   0.00000  Uiso   1.00
O54    O     0.22559   0.16668   0.17451   0.00000  Uiso   1.00
N55    N     0.07692   0.04251   0.30117   0.00000  Uiso   1.00
H56    H     0.07989   0.06333   0.32944   0.00000  Uiso   1.00
C57    C     0.02997   0.02193   0.31161   0.00000  Uiso   1.00
H58    H     0.02529   0.33295   0.34366   0.00000  Uiso   1.00
H59    H     0.02657   0.00599   0.27601   0.00000  Uiso   1.00
H60    H     0.00041   0.04517   0.32364   0.00000  Uiso   1.00
N61    N     0.06302   0.10529   0.19520   0.00000  Uiso   1.00
H62    H     0.06065   0.07914   0.21709   0.00000  Uiso   1.00
C63    C     0.06100   0.09556   0.14322   0.00000  Uiso   1.00
H64    H     0.03123   0.07294   0.14462   0.00000  Uiso   1.00
H65    H     0.09627   0.08182   0.12043   0.00000  Uiso   1.00
H66    H     0.05453   0.12370   0.12342   0.00000  Uiso   1.00
C67    C     0.50005   0.24591   0.25043   0.00000  Uiso   1.00
C68    C     0.47752   0.17800   0.48988   0.00000  Uiso   1.00
C69    C     0.49098   0.18493   0.43568   0.00000  Uiso   1.00
C70    C     0.51370   0.18202   0.01635   0.00000  Uiso   1.00
C71    C     0.56059   0.19804   0.49004   0.00000  Uiso   1.00
C72    C     0.57057   0.21068   0.43872   0.00000  Uiso   1.00
C73    C     0.53610   0.20464   0.41209   0.00000  Uiso   1.00
C74    C     0.50509   0.16931   0.06781   0.00000  Uiso   1.00
C75    C     0.58669   0.19014   0.06741   0.00000  Uiso   1.00
C76    C     0.45832   0.17272   0.40715   0.00000  Uiso   1.00
C77    C     0.54327   0.31237   0.23243   0.00000  Uiso   1.00
C78    C     0.47402   0.16924   0.34996   0.00000  Uiso   1.00
C79    C     0.54258   0.02161   0.23303   0.00000  Uiso   1.00
C80    C     0.49843   0.04266   0.25377   0.00000  Uiso   1.00
C81    C     0.45427   0.02080   0.27555   0.00000  Uiso   1.00
C82    C     0.45553   0.31106   0.27355   0.00000  Uiso   1.00
C83    C     0.49971   0.29045   0.25197   0.00000  Uiso   1.00
C84    C     0.63502   0.19634   0.27647   0.00000  Uiso   1.00
C85    C     0.35111   0.19615   0.27683   0.00000  Uiso   1.00
C86    C     0.36505   0.13712   0.22258   0.00000  Uiso   1.00
C87    C     0.64846   0.13713   0.22341   0.00000  Uiso   1.00
C88    C     0.49936   0.08739   0.25150   0.00000  Uiso   1.00
C89    C     0.52603   0.16775   0.15007   0.00000  Uiso   1.00
C90    C     0.59674   0.20178   0.01566   0.00000  Uiso   1.00
C91    C     0.54047   0.17441   0.09386   0.00000  Uiso   1.00
C92    C     0.41029   0.16091   0.43398   0.00000  Uiso   1.00
C93    C     0.39512   0.15978   0.48782   0.00000  Uiso   1.00
C94    C     0.42826   0.16785   0.01559   0.00000  Uiso   1.00
Cu95   Cu    0.45311   0.16666   0.25000   0.00000  Uiso   1.00
Cu96   Cu    0.54689   0.16667   0.25000   0.00000  Uiso   1.00
H97    H     0.61446   0.19457   0.08708   0.00000  Uiso   1.00
H98    H     0.57658   0.03810   0.21643   0.00000  Uiso   1.00
H99    H     0.42263   0.29324   0.29012   0.00000  Uiso   1.00
H100   H     0.61107   0.22038   0.29736   0.00000  Uiso   1.00
H101   H     0.36400   0.21973   0.29851   0.00000  Uiso   1.00
H102   H     0.63456   0.11343   0.20277   0.00000  Uiso   1.00
H103   H     0.60534   0.22490   0.41884   0.00000  Uiso   1.00
H104   H     0.63253   0.21425   0.49585   0.00000  Uiso   1.00
H105   H     0.47101   0.15500   0.08853   0.00000  Uiso   1.00
H106   H     0.38431   0.15223   0.41332   0.00000  Uiso   1.00
H107   H     0.41397   0.16750   0.05721   0.00000  Uiso   1.00
H108   H     0.35768   0.15162   0.00817   0.00000  Uiso   1.00
H109   H     0.54478   0.21695   0.37346   0.00000  Uiso   1.00
H110   H     0.57763   0.29661   0.21574   0.00000  Uiso   1.00
N111   N     0.38265   0.16666   0.24999   0.00000  Uiso   1.00
N112   N     0.61735   0.16669   0.25000   0.00000  Uiso   1.00
O113   O     0.46042   0.22678   0.25001   0.00000  Uiso   1.00
O114   O     0.53961   0.22679   0.25001   0.00000  Uiso   1.00
O115   O     0.44108   0.16665   0.32549   0.00000  Uiso   1.00
O116   O     0.52027   0.16666   0.32549   0.00000  Uiso   1.00
O117   O     0.46039   0.10654   0.25000   0.00000  Uiso   1.00
O118   O     0.53958   0.10655   0.25000   0.00000  Uiso   1.00
O119   O     0.47973   0.16667   0.17451   0.00000  Uiso   1.00
O120   O     0.55892   0.16668   0.17451   0.00000  Uiso   1.00
N121   N     0.41026   0.04251   0.30117   0.00000  Uiso   1.00
H122   H     0.41323   0.06333   0.32944   0.00000  Uiso   1.00
C123   C     0.36330   0.02193   0.31161   0.00000  Uiso   1.00
H124   H     0.35863   0.33295   0.34366   0.00000  Uiso   1.00
H125   H     0.35990   0.00599   0.27601   0.00000  Uiso   1.00
H126   H     0.33374   0.04517   0.32364   0.00000  Uiso   1.00
N127   N     0.39635   0.10529   0.19520   0.00000  Uiso   1.00
H128   H     0.39398   0.07914   0.21709   0.00000  Uiso   1.00
C129   C     0.39433   0.09556   0.14322   0.00000  Uiso   1.00
H130   H     0.36457   0.07294   0.14462   0.00000  Uiso   1.00
H131   H     0.42960   0.08182   0.12043   0.00000  Uiso   1.00
H132   H     0.38786   0.12370   0.12342   0.00000  Uiso   1.00
C133   C     0.83339   0.24591   0.25043   0.00000  Uiso   1.00
C134   C     0.81086   0.17800   0.48988   0.00000  Uiso   1.00
C135   C     0.82431   0.18493   0.43568   0.00000  Uiso   1.00
C136   C     0.84704   0.18202   0.01635   0.00000  Uiso   1.00
C137   C     0.89393   0.19804   0.49004   0.00000  Uiso   1.00
C138   C     0.90390   0.21068   0.43872   0.00000  Uiso   1.00
C139   C     0.86943   0.20464   0.41209   0.00000  Uiso   1.00
C140   C     0.83843   0.16931   0.06781   0.00000  Uiso   1.00
C141   C     0.92002   0.19014   0.06741   0.00000  Uiso   1.00
C142   C     0.79165   0.17272   0.40715   0.00000  Uiso   1.00
C143   C     0.87660   0.31237   0.23243   0.00000  Uiso   1.00
C144   C     0.80735   0.16924   0.34996   0.00000  Uiso   1.00
C145   C     0.87591   0.02161   0.23303   0.00000  Uiso   1.00
C146   C     0.83176   0.04266   0.25377   0.00000  Uiso   1.00
C147   C     0.78761   0.02080   0.27555   0.00000  Uiso   1.00
C148   C     0.78887   0.31106   0.27355   0.00000  Uiso   1.00
C149   C     0.83305   0.29045   0.25197   0.00000  Uiso   1.00
C150   C     0.96836   0.19634   0.27647   0.00000  Uiso   1.00
C151   C     0.68444   0.19615   0.27683   0.00000  Uiso   1.00
C152   C     0.69838   0.13712   0.22258   0.00000  Uiso   1.00
C153   C     0.98179   0.13713   0.22341   0.00000  Uiso   1.00
C154   C     0.83270   0.08739   0.25150   0.00000  Uiso   1.00
C155   C     0.85936   0.16775   0.15007   0.00000  Uiso   1.00
C156   C     0.93007   0.20178   0.01566   0.00000  Uiso   1.00
C157   C     0.87380   0.17441   0.09386   0.00000  Uiso   1.00
C158   C     0.74362   0.16091   0.43398   0.00000  Uiso   1.00
C159   C     0.72845   0.15978   0.48782   0.00000  Uiso   1.00
C160   C     0.76159   0.16785   0.01559   0.00000  Uiso   1.00
Cu161  Cu    0.78645   0.16666   0.25000   0.00000  Uiso   1.00
Cu162  Cu    0.88022   0.16667   0.25000   0.00000  Uiso   1.00
H163   H     0.94779   0.19457   0.08708   0.00000  Uiso   1.00
H164   H     0.90992   0.03810   0.21643   0.00000  Uiso   1.00
H165   H     0.75596   0.29324   0.29012   0.00000  Uiso   1.00
H166   H     0.94440   0.22038   0.29736   0.00000  Uiso   1.00
H167   H     0.69734   0.21973   0.29851   0.00000  Uiso   1.00
H168   H     0.96790   0.11343   0.20277   0.00000  Uiso   1.00
H169   H     0.93868   0.22490   0.41884   0.00000  Uiso   1.00
H170   H     0.96586   0.21425   0.49585   0.00000  Uiso   1.00
H171   H     0.80434   0.15500   0.08853   0.00000  Uiso   1.00
H172   H     0.71764   0.15223   0.41332   0.00000  Uiso   1.00
H173   H     0.74730   0.16750   0.05721   0.00000  Uiso   1.00
H174   H     0.69102   0.15162   0.00817   0.00000  Uiso   1.00
H175   H     0.87811   0.21695   0.37346   0.00000  Uiso   1.00
H176   H     0.91096   0.29661   0.21574   0.00000  Uiso   1.00
N177   N     0.71598   0.16666   0.24999   0.00000  Uiso   1.00
N178   N     0.95069   0.16669   0.25000   0.00000  Uiso   1.00
O179   O     0.79375   0.22678   0.25001   0.00000  Uiso   1.00
O180   O     0.87294   0.22679   0.25001   0.00000  Uiso   1.00
O181   O     0.77441   0.16665   0.32549   0.00000  Uiso   1.00
O182   O     0.85360   0.16666   0.32549   0.00000  Uiso   1.00
O183   O     0.79373   0.10654   0.25000   0.00000  Uiso   1.00
O184   O     0.87292   0.10655   0.25000   0.00000  Uiso   1.00
O185   O     0.81306   0.16667   0.17451   0.00000  Uiso   1.00
O186   O     0.89225   0.16668   0.17451   0.00000  Uiso   1.00
N187   N     0.74359   0.04251   0.30117   0.00000  Uiso   1.00
H188   H     0.74656   0.06333   0.32944   0.00000  Uiso   1.00
C189   C     0.69663   0.02193   0.31161   0.00000  Uiso   1.00
H190   H     0.69196   0.33295   0.34366   0.00000  Uiso   1.00
H191   H     0.69324   0.00599   0.27601   0.00000  Uiso   1.00
H192   H     0.66708   0.04517   0.32364   0.00000  Uiso   1.00
N193   N     0.72969   0.10529   0.19520   0.00000  Uiso   1.00
H194   H     0.72732   0.07914   0.21709   0.00000  Uiso   1.00
C195   C     0.72767   0.09556   0.14322   0.00000  Uiso   1.00
H196   H     0.69790   0.07294   0.14462   0.00000  Uiso   1.00
H197   H     0.76293   0.08182   0.12043   0.00000  Uiso   1.00
H198   H     0.72119   0.12370   0.12342   0.00000  Uiso   1.00
C199   C     0.16672   0.57924   0.25043   0.00000  Uiso   1.00
C200   C     0.14419   0.51133   0.48988   0.00000  Uiso   1.00
C201   C     0.15765   0.51827   0.43568   0.00000  Uiso   1.00
C202   C     0.18037   0.51535   0.01635   0.00000  Uiso   1.00
C203   C     0.22726   0.53137   0.49004   0.00000  Uiso   1.00
C204   C     0.23723   0.54401   0.43872   0.00000  Uiso   1.00
C205   C     0.20276   0.53798   0.41209   0.00000  Uiso   1.00
C206   C     0.17176   0.50264   0.06781   0.00000  Uiso   1.00
C207   C     0.25335   0.52347   0.06741   0.00000  Uiso   1.00
C208   C     0.12498   0.50606   0.40715   0.00000  Uiso   1.00
C209   C     0.20993   0.64571   0.23243   0.00000  Uiso   1.00
C210   C     0.14069   0.50257   0.34996   0.00000  Uiso   1.00
C211   C     0.20924   0.35494   0.23303   0.00000  Uiso   1.00
C212   C     0.16509   0.37600   0.25377   0.00000  Uiso   1.00
C213   C     0.12094   0.35414   0.27555   0.00000  Uiso   1.00
C214   C     0.12220   0.64439   0.27355   0.00000  Uiso   1.00
C215   C     0.16638   0.62379   0.25197   0.00000  Uiso   1.00
C216   C     0.30169   0.52968   0.27647   0.00000  Uiso   1.00
C217   C     0.01777   0.52948   0.27683   0.00000  Uiso   1.00
C218   C     0.03172   0.47045   0.22258   0.00000  Uiso   1.00
C219   C     0.31513   0.47046   0.22341   0.00000  Uiso   1.00
C220   C     0.16603   0.42073   0.25150   0.00000  Uiso   1.00
C221   C     0.19270   0.50108   0.15007   0.00000  Uiso   1.00
C222   C     0.26340   0.53511   0.01566   0.00000  Uiso   1.00
C223   C     0.20714   0.50774   0.09386   0.00000  Uiso   1.00
C224   C     0.07696   0.49425   0.43398   0.00000  Uiso   1.00
C225   C     0.06178   0.49311   0.48782   0.00000  Uiso   1.00
C226   C     0.09493   0.50118   0.01559   0.00000  Uiso   1.00
Cu227  Cu    0.11978   0.49999   0.25000   0.00000  Uiso   1.00
Cu228  Cu    0.21355   0.50001   0.25000   0.00000  Uiso   1.00
H229   H     0.28113   0.52791   0.08708   0.00000  Uiso   1.00
H230   H     0.24325   0.37143   0.21643   0.00000  Uiso   1.00
H231   H     0.08929   0.62657   0.29012   0.00000  Uiso   1.00
H232   H     0.27774   0.55372   0.29736   0.00000  Uiso   1.00
H233   H     0.03067   0.55307   0.29851   0.00000  Uiso   1.00
H234   H     0.30123   0.44676   0.20277   0.00000  Uiso   1.00
H235   H     0.27201   0.55824   0.41884   0.00000  Uiso   1.00
H236   H     0.29920   0.54758   0.49585   0.00000  Uiso   1.00
H237   H     0.13768   0.48833   0.08853   0.00000  Uiso   1.00
H238   H     0.05098   0.48556   0.41332   0.00000  Uiso   1.00
H239   H     0.08063   0.50084   0.05721   0.00000  Uiso   1.00
H240   H     0.02435   0.48495   0.00817   0.00000  Uiso   1.00
H241   H     0.21145   0.55028   0.37346   0.00000  Uiso   1.00
H242   H     0.24430   0.62994   0.21574   0.00000  Uiso   1.00
N243   N     0.04931   0.49999   0.24999   0.00000  Uiso   1.00
N244   N     0.28402   0.50002   0.25000   0.00000  Uiso   1.00
O245   O     0.12708   0.56011   0.25001   0.00000  Uiso   1.00
O246   O     0.20627   0.56012   0.25001   0.00000  Uiso   1.00
O247   O     0.10775   0.49998   0.32549   0.00000  Uiso   1.00
O248   O     0.18694   0.49999   0.32549   0.00000  Uiso   1.00
O249   O     0.12706   0.43988   0.25000   0.00000  Uiso   1.00
O250   O     0.20625   0.43989   0.25000   0.00000  Uiso   1.00
O251   O     0.14640   0.50001   0.17451   0.00000  Uiso   1.00
O252   O     0.22559   0.50002   0.17451   0.00000  Uiso   1.00
N253   N     0.07692   0.37585   0.30117   0.00000  Uiso   1.00
H254   H     0.07989   0.39666   0.32944   0.00000  Uiso   1.00
C255   C     0.02997   0.35527   0.31161   0.00000  Uiso   1.00
H256   H     0.02529   0.66629   0.34366   0.00000  Uiso   1.00
H257   H     0.02657   0.33932   0.27601   0.00000  Uiso   1.00
H258   H     0.00041   0.37851   0.32364   0.00000  Uiso   1.00
N259   N     0.06302   0.43862   0.19520   0.00000  Uiso   1.00
H260   H     0.06065   0.41247   0.21709   0.00000  Uiso   1.00
C261   C     0.06100   0.42890   0.14322   0.00000  Uiso   1.00
H262   H     0.03123   0.40627   0.14462   0.00000  Uiso   1.00
H263   H     0.09627   0.41515   0.12043   0.00000  Uiso   1.00
H264   H     0.05453   0.45704   0.12342   0.00000  Uiso   1.00
C265   C     0.50005   0.57924   0.25043   0.00000  Uiso   1.00
C266   C     0.47752   0.51133   0.48988   0.00000  Uiso   1.00
C267   C     0.49098   0.51827   0.43568   0.00000  Uiso   1.00
C268   C     0.51370   0.51535   0.01635   0.00000  Uiso   1.00
C269   C     0.56059   0.53137   0.49004   0.00000  Uiso   1.00
C270   C     0.57057   0.54401   0.43872   0.00000  Uiso   1.00
C271   C     0.53610   0.53798   0.41209   0.00000  Uiso   1.00
C272   C     0.50509   0.50264   0.06781   0.00000  Uiso   1.00
C273   C     0.58669   0.52347   0.06741   0.00000  Uiso   1.00
C274   C     0.45832   0.50606   0.40715   0.00000  Uiso   1.00
C275   C     0.54327   0.64571   0.23243   0.00000  Uiso   1.00
C276   C     0.47402   0.50257   0.34996   0.00000  Uiso   1.00
C277   C     0.54258   0.35494   0.23303   0.00000  Uiso   1.00
C278   C     0.49843   0.37600   0.25377   0.00000  Uiso   1.00
C279   C     0.45427   0.35414   0.27555   0.00000  Uiso   1.00
C280   C     0.45553   0.64439   0.27355   0.00000  Uiso   1.00
C281   C     0.49971   0.62379   0.25197   0.00000  Uiso   1.00
C282   C     0.63502   0.52968   0.27647   0.00000  Uiso   1.00
C283   C     0.35111   0.52948   0.27683   0.00000  Uiso   1.00
C284   C     0.36505   0.47045   0.22258   0.00000  Uiso   1.00
C285   C     0.64846   0.47046   0.22341   0.00000  Uiso   1.00
C286   C     0.49936   0.42073   0.25150   0.00000  Uiso   1.00
C287   C     0.52603   0.50108   0.15007   0.00000  Uiso   1.00
C288   C     0.59674   0.53511   0.01566   0.00000  Uiso   1.00
C289   C     0.54047   0.50774   0.09386   0.00000  Uiso   1.00
C290   C     0.41029   0.49425   0.43398   0.00000  Uiso   1.00
C291   C     0.39512   0.49311   0.48782   0.00000  Uiso   1.00
C292   C     0.42826   0.50118   0.01559   0.00000  Uiso   1.00
Cu293  Cu    0.45311   0.49999   0.25000   0.00000  Uiso   1.00
Cu294  Cu    0.54689   0.50001   0.25000   0.00000  Uiso   1.00
H295   H     0.61446   0.52791   0.08708   0.00000  Uiso   1.00
H296   H     0.57658   0.37143   0.21643   0.00000  Uiso   1.00
H297   H     0.42263   0.62657   0.29012   0.00000  Uiso   1.00
H298   H     0.61107   0.55372   0.29736   0.00000  Uiso   1.00
H299   H     0.36400   0.55307   0.29851   0.00000  Uiso   1.00
H300   H     0.63456   0.44676   0.20277   0.00000  Uiso   1.00
H301   H     0.60534   0.55824   0.41884   0.00000  Uiso   1.00
H302   H     0.63253   0.54758   0.49585   0.00000  Uiso   1.00
H303   H     0.47101   0.48833   0.08853   0.00000  Uiso   1.00
H304   H     0.38431   0.48556   0.41332   0.00000  Uiso   1.00
H305   H     0.41397   0.50084   0.05721   0.00000  Uiso   1.00
H306   H     0.35768   0.48495   0.00817   0.00000  Uiso   1.00
H307   H     0.54478   0.55028   0.37346   0.00000  Uiso   1.00
H308   H     0.57763   0.62994   0.21574   0.00000  Uiso   1.00
N309   N     0.38265   0.49999   0.24999   0.00000  Uiso   1.00
N310   N     0.61735   0.50002   0.25000   0.00000  Uiso   1.00
O311   O     0.46042   0.56011   0.25001   0.00000  Uiso   1.00
O312   O     0.53961   0.56012   0.25001   0.00000  Uiso   1.00
O313   O     0.44108   0.49998   0.32549   0.00000  Uiso   1.00
O314   O     0.52027   0.49999   0.32549   0.00000  Uiso   1.00
O315   O     0.46039   0.43988   0.25000   0.00000  Uiso   1.00
O316   O     0.53958   0.43989   0.25000   0.00000  Uiso   1.00
O317   O     0.47973   0.50001   0.17451   0.00000  Uiso   1.00
O318   O     0.55892   0.50002   0.17451   0.00000  Uiso   1.00
N319   N     0.41026   0.37585   0.30117   0.00000  Uiso   1.00
H320   H     0.41323   0.39666   0.32944   0.00000  Uiso   1.00
C321   C     0.36330   0.35527   0.31161   0.00000  Uiso   1.00
H322   H     0.35863   0.66629   0.34366   0.00000  Uiso   1.00
H323   H     0.35990   0.33932   0.27601   0.00000  Uiso   1.00
H324   H     0.33374   0.37851   0.32364   0.00000  Uiso   1.00
N325   N     0.39635   0.43862   0.19520   0.00000  Uiso   1.00
H326   H     0.39398   0.41247   0.21709   0.00000  Uiso   1.00
C327   C     0.39433   0.42890   0.14322   0.00000  Uiso   1.00
H328   H     0.36457   0.40627   0.14462   0.00000  Uiso   1.00
H329   H     0.42960   0.41515   0.12043   0.00000  Uiso   1.00
H330   H     0.38786   0.45704   0.12342   0.00000  Uiso   1.00
C331   C     0.83339   0.57924   0.25043   0.00000  Uiso   1.00
C332   C     0.81086   0.51133   0.48988   0.00000  Uiso   1.00
C333   C     0.82431   0.51827   0.43568   0.00000  Uiso   1.00
C334   C     0.84704   0.51535   0.01635   0.00000  Uiso   1.00
C335   C     0.89393   0.53137   0.49004   0.00000  Uiso   1.00
C336   C     0.90390   0.54401   0.43872   0.00000  Uiso   1.00
C337   C     0.86943   0.53798   0.41209   0.00000  Uiso   1.00
C338   C     0.83843   0.50264   0.06781   0.00000  Uiso   1.00
C339   C     0.92002   0.52347   0.06741   0.00000  Uiso   1.00
C340   C     0.79165   0.50606   0.40715   0.00000  Uiso   1.00
C341   C     0.87660   0.64571   0.23243   0.00000  Uiso   1.00
C342   C     0.80735   0.50257   0.34996   0.00000  Uiso   1.00
C343   C     0.87591   0.35494   0.23303   0.00000  Uiso   1.00
C344   C     0.83176   0.37600   0.25377   0.00000  Uiso   1.00
C345   C     0.78761   0.35414   0.27555   0.00000  Uiso   1.00
C346   C     0.78887   0.64439   0.27355   0.00000  Uiso   1.00
C347   C     0.83305   0.62379   0.25197   0.00000  Uiso   1.00
C348   C     0.96836   0.52968   0.27647   0.00000  Uiso   1.00
C349   C     0.68444   0.52948   0.27683   0.00000  Uiso   1.00
C350   C     0.69838   0.47045   0.22258   0.00000  Uiso   1.00
C351   C     0.98179   0.47046   0.22341   0.00000  Uiso   1.00
C352   C     0.83270   0.42073   0.25150   0.00000  Uiso   1.00
C353   C     0.85936   0.50108   0.15007   0.00000  Uiso   1.00
C354   C     0.93007   0.53511   0.01566   0.00000  Uiso   1.00
C355   C     0.87380   0.50774   0.09386   0.00000  Uiso   1.00
C356   C     0.74362   0.49425   0.43398   0.00000  Uiso   1.00
C357   C     0.72845   0.49311   0.48782   0.00000  Uiso   1.00
C358   C     0.76159   0.50118   0.01559   0.00000  Uiso   1.00
Cu359  Cu    0.78645   0.49999   0.25000   0.00000  Uiso   1.00
Cu360  Cu    0.88022   0.50001   0.25000   0.00000  Uiso   1.00
H361   H     0.94779   0.52791   0.08708   0.00000  Uiso   1.00
H362   H     0.90992   0.37143   0.21643   0.00000  Uiso   1.00
H363   H     0.75596   0.62657   0.29012   0.00000  Uiso   1.00
H364   H     0.94440   0.55372   0.29736   0.00000  Uiso   1.00
H365   H     0.69734   0.55307   0.29851   0.00000  Uiso   1.00
H366   H     0.96790   0.44676   0.20277   0.00000  Uiso   1.00
H367   H     0.93868   0.55824   0.41884   0.00000  Uiso   1.00
H368   H     0.96586   0.54758   0.49585   0.00000  Uiso   1.00
H369   H     0.80434   0.48833   0.08853   0.00000  Uiso   1.00
H370   H     0.71764   0.48556   0.41332   0.00000  Uiso   1.00
H371   H     0.74730   0.50084   0.05721   0.00000  Uiso   1.00
H372   H     0.69102   0.48495   0.00817   0.00000  Uiso   1.00
H373   H     0.87811   0.55028   0.37346   0.00000  Uiso   1.00
H374   H     0.91096   0.62994   0.21574   0.00000  Uiso   1.00
N375   N     0.71598   0.49999   0.24999   0.00000  Uiso   1.00
N376   N     0.95069   0.50002   0.25000   0.00000  Uiso   1.00
O377   O     0.79375   0.56011   0.25001   0.00000  Uiso   1.00
O378   O     0.87294   0.56012   0.25001   0.00000  Uiso   1.00
O379   O     0.77441   0.49998   0.32549   0.00000  Uiso   1.00
O380   O     0.85360   0.49999   0.32549   0.00000  Uiso   1.00
O381   O     0.79373   0.43988   0.25000   0.00000  Uiso   1.00
O382   O     0.87292   0.43989   0.25000   0.00000  Uiso   1.00
O383   O     0.81306   0.50001   0.17451   0.00000  Uiso   1.00
O384   O     0.89225   0.50002   0.17451   0.00000  Uiso   1.00
N385   N     0.74359   0.37585   0.30117   0.00000  Uiso   1.00
H386   H     0.74656   0.39666   0.32944   0.00000  Uiso   1.00
C387   C     0.69663   0.35527   0.31161   0.00000  Uiso   1.00
H388   H     0.69196   0.66629   0.34366   0.00000  Uiso   1.00
H389   H     0.69324   0.33932   0.27601   0.00000  Uiso   1.00
H390   H     0.66708   0.37851   0.32364   0.00000  Uiso   1.00
N391   N     0.72969   0.43862   0.19520   0.00000  Uiso   1.00
H392   H     0.72732   0.41247   0.21709   0.00000  Uiso   1.00
C393   C     0.72767   0.42890   0.14322   0.00000  Uiso   1.00
H394   H     0.69790   0.40627   0.14462   0.00000  Uiso   1.00
H395   H     0.76293   0.41515   0.12043   0.00000  Uiso   1.00
H396   H     0.72119   0.45704   0.12342   0.00000  Uiso   1.00
C397   C     0.16672   0.91257   0.25043   0.00000  Uiso   1.00
C398   C     0.14419   0.84466   0.48988   0.00000  Uiso   1.00
C399   C     0.15765   0.85160   0.43568   0.00000  Uiso   1.00
C400   C     0.18037   0.84869   0.01635   0.00000  Uiso   1.00
C401   C     0.22726   0.86471   0.49004   0.00000  Uiso   1.00
C402   C     0.23723   0.87735   0.43872   0.00000  Uiso   1.00
C403   C     0.20276   0.87131   0.41209   0.00000  Uiso   1.00
C404   C     0.17176   0.83598   0.06781   0.00000  Uiso   1.00
C405   C     0.25335   0.85681   0.06741   0.00000  Uiso   1.00
C406   C     0.12498   0.83939   0.40715   0.00000  Uiso   1.00
C407   C     0.20993   0.97904   0.23243   0.00000  Uiso   1.00
C408   C     0.14069   0.83590   0.34996   0.00000  Uiso   1.00
C409   C     0.20924   0.68828   0.23303   0.00000  Uiso   1.00
C410   C     0.16509   0.70933   0.25377   0.00000  Uiso   1.00
C411   C     0.12094   0.68747   0.27555   0.00000  Uiso   1.00
C412   C     0.12220   0.97773   0.27355   0.00000  Uiso   1.00
C413   C     0.16638   0.95712   0.25197   0.00000  Uiso   1.00
C414   C     0.30169   0.86301   0.27647   0.00000  Uiso   1.00
C415   C     0.01777   0.86281   0.27683   0.00000  Uiso   1.00
C416   C     0.03172   0.80379   0.22258   0.00000  Uiso   1.00
C417   C     0.31513   0.80379   0.22341   0.00000  Uiso   1.00
C418   C     0.16603   0.75406   0.25150   0.00000  Uiso   1.00
C419   C     0.19270   0.83441   0.15007   0.00000  Uiso   1.00
C420   C     0.26340   0.86845   0.01566   0.00000  Uiso   1.00
C421   C     0.20714   0.84108   0.09386   0.00000  Uiso   1.00
C422   C     0.07696   0.82758   0.43398   0.00000  Uiso   1.00
C423   C     0.06178   0.82644   0.48782   0.00000  Uiso   1.00
C424   C     0.09493   0.83451   0.01559   0.00000  Uiso   1.00
Cu425  Cu    0.11978   0.83333   0.25000   0.00000  Uiso   1.00
Cu426  Cu    0.21355   0.83334   0.25000   0.00000  Uiso   1.00
H427   H     0.28113   0.86124   0.08708   0.00000  Uiso   1.00
H428   H     0.24325   0.70477   0.21643   0.00000  Uiso   1.00
H429   H     0.08929   0.95991   0.29012   0.00000  Uiso   1.00
H430   H     0.27774   0.88705   0.29736   0.00000  Uiso   1.00
H431   H     0.03067   0.88640   0.29851   0.00000  Uiso   1.00
H432   H     0.30123   0.78010   0.20277   0.00000  Uiso   1.00
H433   H     0.27201   0.89157   0.41884   0.00000  Uiso   1.00
H434   H     0.29920   0.88092   0.49585   0.00000  Uiso   1.00
H435   H     0.13768   0.82166   0.08853   0.00000  Uiso   1.00
H436   H     0.05098   0.81890   0.41332   0.00000  Uiso   1.00
H437   H     0.08063   0.83417   0.05721   0.00000  Uiso   1.00
H438   H     0.02435   0.81829   0.00817   0.00000  Uiso   1.00
H439   H     0.21145   0.88362   0.37346   0.00000  Uiso   1.00
H440   H     0.24430   0.96328   0.21574   0.00000  Uiso   1.00
N441   N     0.04931   0.83332   0.24999   0.00000  Uiso   1.00
N442   N     0.28402   0.83335   0.25000   0.00000  Uiso   1.00
O443   O     0.12708   0.89345   0.25001   0.00000  Uiso   1.00
O444   O     0.20627   0.89346   0.25001   0.00000  Uiso   1.00
O445   O     0.10775   0.83332   0.32549   0.00000  Uiso   1.00
O446   O     0.18694   0.83333   0.32549   0.00000  Uiso   1.00
O447   O     0.12706   0.77321   0.25000   0.00000  Uiso   1.00
O448   O     0.20625   0.77322   0.25000   0.00000  Uiso   1.00
O449   O     0.14640   0.83334   0.17451   0.00000  Uiso   1.00
O450   O     0.22559   0.83335   0.17451   0.00000  Uiso   1.00
N451   N     0.07692   0.70918   0.30117   0.00000  Uiso   1.00
H452   H     0.07989   0.73000   0.32944   0.00000  Uiso   1.00
C453   C     0.02997   0.68860   0.31161   0.00000  Uiso   1.00
H454   H     0.02529   0.99962   0.34366   0.00000  Uiso   1.00
H455   H     0.02657   0.67265   0.27601   0.00000  Uiso   1.00
H456   H     0.00041   0.71184   0.32364   0.00000  Uiso   1.00
N457   N     0.06302   0.77196   0.19520   0.00000  Uiso   1.00
H458   H     0.06065   0.74580   0.21709   0.00000  Uiso   1.00
C459   C     0.06100   0.76223   0.14322   0.00000  Uiso   1.00
H460   H     0.03123   0.73960   0.14462   0.00000  Uiso   1.00
H461   H     0.09627   0.74848   0.12043   0.00000  Uiso   1.00
H462   H     0.05453   0.79037   0.12342   0.00000  Uiso   1.00
C463   C     0.50005   0.91257   0.25043   0.00000  Uiso   1.00
C464   C     0.47752   0.84466   0.48988   0.00000  Uiso   1.00
C465   C     0.49098   0.85160   0.43568   0.00000  Uiso   1.00
C466   C     0.51370   0.84869   0.01635   0.00000  Uiso   1.00
C467   C     0.56059   0.86471   0.49004   0.00000  Uiso   1.00
C468   C     0.57057   0.87735   0.43872   0.00000  Uiso   1.00
C469   C     0.53610   0.87131   0.41209   0.00000  Uiso   1.00
C470   C     0.50509   0.83598   0.06781   0.00000  Uiso   1.00
C471   C     0.58669   0.85681   0.06741   0.00000  Uiso   1.00
C472   C     0.45832   0.83939   0.40715   0.00000  Uiso   1.00
C473   C     0.54327   0.97904   0.23243   0.00000  Uiso   1.00
C474   C     0.47402   0.83590   0.34996   0.00000  Uiso   1.00
C475   C     0.54258   0.68828   0.23303   0.00000  Uiso   1.00
C476   C     0.49843   0.70933   0.25377   0.00000  Uiso   1.00
C477   C     0.45427   0.68747   0.27555   0.00000  Uiso   1.00
C478   C     0.45553   0.97773   0.27355   0.00000  Uiso   1.00
C479   C     0.49971   0.95712   0.25197   0.00000  Uiso   1.00
C480   C     0.63502   0.86301   0.27647   0.00000  Uiso   1.00
C481   C     0.35111   0.86281   0.27683   0.00000  Uiso   1.00
C482   C     0.36505   0.80379   0.22258   0.00000  Uiso   1.00
C483   C     0.64846   0.80379   0.22341   0.00000  Uiso   1.00
C484   C     0.49936   0.75406   0.25150   0.00000  Uiso   1.00
C485   C     0.52603   0.83441   0.15007   0.00000  Uiso   1.00
C486   C     0.59674   0.86845   0.01566   0.00000  Uiso   1.00
C487   C     0.54047   0.84108   0.09386   0.00000  Uiso   1.00
C488   C     0.41029   0.82758   0.43398   0.00000  Uiso   1.00
C489   C     0.39512   0.82644   0.48782   0.00000  Uiso   1.00
C490   C     0.42826   0.83451   0.01559   0.00000  Uiso   1.00
Cu491  Cu    0.45311   0.83333   0.25000   0.00000  Uiso   1.00
Cu492  Cu    0.54689   0.83334   0.25000   0.00000  Uiso   1.00
H493   H     0.61446   0.86124   0.08708   0.00000  Uiso   1.00
H494   H     0.57658   0.70477   0.21643   0.00000  Uiso   1.00
H495   H     0.42263   0.95991   0.29012   0.00000  Uiso   1.00
H496   H     0.61107   0.88705   0.29736   0.00000  Uiso   1.00
H497   H     0.36400   0.88640   0.29851   0.00000  Uiso   1.00
H498   H     0.63456   0.78010   0.20277   0.00000  Uiso   1.00
H499   H     0.60534   0.89157   0.41884   0.00000  Uiso   1.00
H500   H     0.63253   0.88092   0.49585   0.00000  Uiso   1.00
H501   H     0.47101   0.82166   0.08853   0.00000  Uiso   1.00
H502   H     0.38431   0.81890   0.41332   0.00000  Uiso   1.00
H503   H     0.41397   0.83417   0.05721   0.00000  Uiso   1.00
H504   H     0.35768   0.81829   0.00817   0.00000  Uiso   1.00
H505   H     0.54478   0.88362   0.37346   0.00000  Uiso   1.00
H506   H     0.57763   0.96328   0.21574   0.00000  Uiso   1.00
N507   N     0.38265   0.83332   0.24999   0.00000  Uiso   1.00
N508   N     0.61735   0.83335   0.25000   0.00000  Uiso   1.00
O509   O     0.46042   0.89345   0.25001   0.00000  Uiso   1.00
O510   O     0.53961   0.89346   0.25001   0.00000  Uiso   1.00
O511   O     0.44108   0.83332   0.32549   0.00000  Uiso   1.00
O512   O     0.52027   0.83333   0.32549   0.00000  Uiso   1.00
O513   O     0.46039   0.77321   0.25000   0.00000  Uiso   1.00
O514   O     0.53958   0.77322   0.25000   0.00000  Uiso   1.00
O515   O     0.47973   0.83334   0.17451   0.00000  Uiso   1.00
O516   O     0.55892   0.83335   0.17451   0.00000  Uiso   1.00
N517   N     0.41026   0.70918   0.30117   0.00000  Uiso   1.00
H518   H     0.41323   0.73000   0.32944   0.00000  Uiso   1.00
C519   C     0.36330   0.68860   0.31161   0.00000  Uiso   1.00
H520   H     0.35863   0.99962   0.34366   0.00000  Uiso   1.00
H521   H     0.35990   0.67265   0.27601   0.00000  Uiso   1.00
H522   H     0.33374   0.71184   0.32364   0.00000  Uiso   1.00
N523   N     0.39635   0.77196   0.19520   0.00000  Uiso   1.00
H524   H     0.39398   0.74580   0.21709   0.00000  Uiso   1.00
C525   C     0.39433   0.76223   0.14322   0.00000  Uiso   1.00
H526   H     0.36457   0.73960   0.14462   0.00000  Uiso   1.00
H527   H     0.42960   0.74848   0.12043   0.00000  Uiso   1.00
H528   H     0.38786   0.79037   0.12342   0.00000  Uiso   1.00
C529   C     0.83339   0.91257   0.25043   0.00000  Uiso   1.00
C530   C     0.81086   0.84466   0.48988   0.00000  Uiso   1.00
C531   C     0.82431   0.85160   0.43568   0.00000  Uiso   1.00
C532   C     0.84704   0.84869   0.01635   0.00000  Uiso   1.00
C533   C     0.89393   0.86471   0.49004   0.00000  Uiso   1.00
C534   C     0.90390   0.87735   0.43872   0.00000  Uiso   1.00
C535   C     0.86943   0.87131   0.41209   0.00000  Uiso   1.00
C536   C     0.83843   0.83598   0.06781   0.00000  Uiso   1.00
C537   C     0.92002   0.85681   0.06741   0.00000  Uiso   1.00
C538   C     0.79165   0.83939   0.40715   0.00000  Uiso   1.00
C539   C     0.87660   0.97904   0.23243   0.00000  Uiso   1.00
C540   C     0.80735   0.83590   0.34996   0.00000  Uiso   1.00
C541   C     0.87591   0.68828   0.23303   0.00000  Uiso   1.00
C542   C     0.83176   0.70933   0.25377   0.00000  Uiso   1.00
C543   C     0.78761   0.68747   0.27555   0.00000  Uiso   1.00
C544   C     0.78887   0.97773   0.27355   0.00000  Uiso   1.00
C545   C     0.83305   0.95712   0.25197   0.00000  Uiso   1.00
C546   C     0.96836   0.86301   0.27647   0.00000  Uiso   1.00
C547   C     0.68444   0.86281   0.27683   0.00000  Uiso   1.00
C548   C     0.69838   0.80379   0.22258   0.00000  Uiso   1.00
C549   C     0.98179   0.80379   0.22341   0.00000  Uiso   1.00
C550   C     0.83270   0.75406   0.25150   0.00000  Uiso   1.00
C551   C     0.85936   0.83441   0.15007   0.00000  Uiso   1.00
C552   C     0.93007   0.86845   0.01566   0.00000  Uiso   1.00
C553   C     0.87380   0.84108   0.09386   0.00000  Uiso   1.00
C554   C     0.74362   0.82758   0.43398   0.00000  Uiso   1.00
C555   C     0.72845   0.82644   0.48782   0.00000  Uiso   1.00
C556   C     0.76159   0.83451   0.01559   0.00000  Uiso   1.00
Cu557  Cu    0.78645   0.83333   0.25000   0.00000  Uiso   1.00
Cu558  Cu    0.88022   0.83334   0.25000   0.00000  Uiso   1.00
H559   H     0.94779   0.86124   0.08708   0.00000  Uiso   1.00
H560   H     0.90992   0.70477   0.21643   0.00000  Uiso   1.00
H561   H     0.75596   0.95991   0.29012   0.00000  Uiso   1.00
H562   H     0.94440   0.88705   0.29736   0.00000  Uiso   1.00
H563   H     0.69734   0.88640   0.29851   0.00000  Uiso   1.00
H564   H     0.96790   0.78010   0.20277   0.00000  Uiso   1.00
H565   H     0.93868   0.89157   0.41884   0.00000  Uiso   1.00
H566   H     0.96586   0.88092   0.49585   0.00000  Uiso   1.00
H567   H     0.80434   0.82166   0.08853   0.00000  Uiso   1.00
H568   H     0.71764   0.81890   0.41332   0.00000  Uiso   1.00
H569   H     0.74730   0.83417   0.05721   0.00000  Uiso   1.00
H570   H     0.69102   0.81829   0.00817   0.00000  Uiso   1.00
H571   H     0.87811   0.88362   0.37346   0.00000  Uiso   1.00
H572   H     0.91096   0.96328   0.21574   0.00000  Uiso   1.00
N573   N     0.71598   0.83332   0.24999   0.00000  Uiso   1.00
N574   N     0.95069   0.83335   0.25000   0.00000  Uiso   1.00
O575   O     0.79375   0.89345   0.25001   0.00000  Uiso   1.00
O576   O     0.87294   0.89346   0.25001   0.00000  Uiso   1.00
O577   O     0.77441   0.83332   0.32549   0.00000  Uiso   1.00
O578   O     0.85360   0.83333   0.32549   0.00000  Uiso   1.00
O579   O     0.79373   0.77321   0.25000   0.00000  Uiso   1.00
O580   O     0.87292   0.77322   0.25000   0.00000  Uiso   1.00
O581   O     0.81306   0.83334   0.17451   0.00000  Uiso   1.00
O582   O     0.89225   0.83335   0.17451   0.00000  Uiso   1.00
N583   N     0.74359   0.70918   0.30117   0.00000  Uiso   1.00
H584   H     0.74656   0.73000   0.32944   0.00000  Uiso   1.00
C585   C     0.69663   0.68860   0.31161   0.00000  Uiso   1.00
H586   H     0.69196   0.99962   0.34366   0.00000  Uiso   1.00
H587   H     0.69324   0.67265   0.27601   0.00000  Uiso   1.00
H588   H     0.66708   0.71184   0.32364   0.00000  Uiso   1.00
N589   N     0.72969   0.77196   0.19520   0.00000  Uiso   1.00
H590   H     0.72732   0.74580   0.21709   0.00000  Uiso   1.00
C591   C     0.72767   0.76223   0.14322   0.00000  Uiso   1.00
H592   H     0.69790   0.73960   0.14462   0.00000  Uiso   1.00
H593   H     0.76293   0.74848   0.12043   0.00000  Uiso   1.00
H594   H     0.72119   0.79037   0.12342   0.00000  Uiso   1.00
C595   C     0.16672   0.24591   0.75043   0.00000  Uiso   1.00
C596   C     0.14419   0.17800   0.98988   0.00000  Uiso   1.00
C597   C     0.15765   0.18493   0.93568   0.00000  Uiso   1.00
C598   C     0.18037   0.18202   0.51635   0.00000  Uiso   1.00
C599   C     0.22726   0.19804   0.99004   0.00000  Uiso   1.00
C600   C     0.23723   0.21068   0.93872   0.00000  Uiso   1.00
C601   C     0.20276   0.20464   0.91209   0.00000  Uiso   1.00
C602   C     0.17176   0.16931   0.56781   0.00000  Uiso   1.00
C603   C     0.25335   0.19014   0.56741   0.00000  Uiso   1.00
C604   C     0.12498   0.17272   0.90715   0.00000  Uiso   1.00
C605   C     0.20993   0.31237   0.73243   0.00000  Uiso   1.00
C606   C     0.14069   0.16924   0.84996   0.00000  Uiso   1.00
C607   C     0.20924   0.02161   0.73303   0.00000  Uiso   1.00
C608   C     0.16509   0.04266   0.75377   0.00000  Uiso   1.00
C609   C     0.12094   0.02080   0.77555   0.00000  Uiso   1.00
C610   C     0.12220   0.31106   0.77355   0.00000  Uiso   1.00
C611   C     0.16638   0.29045   0.75197   0.00000  Uiso   1.00
C612   C     0.30169   0.19634   0.77647   0.00000  Uiso   1.00
C613   C     0.01777   0.19615   0.77683   0.00000  Uiso   1.00
C614   C     0.03172   0.13712   0.72258   0.00000  Uiso   1.00
C615   C     0.31513   0.13713   0.72341   0.00000  Uiso   1.00
C616   C     0.16603   0.08739   0.75150   0.00000  Uiso   1.00
C617   C     0.19270   0.16775   0.65007   0.00000  Uiso   1.00
C618   C     0.26340   0.20178   0.51566   0.00000  Uiso   1.00
C619   C     0.20714   0.17441   0.59386   0.00000  Uiso   1.00
C620   C     0.07696   0.16091   0.93398   0.00000  Uiso   1.00
C621   C     0.06178   0.15978   0.98782   0.00000  Uiso   1.00
C622   C     0.09493   0.16785   0.51559   0.00000  Uiso   1.00
Cu623  Cu    0.11978   0.16666   0.75000   0.00000  Uiso   1.00
Cu624  Cu    0.21355   0.16667   0.75000   0.00000  Uiso   1.00
H625   H     0.28113   0.19457   0.58708   0.00000  Uiso   1.00
H626   H     0.24325   0.03810   0.71643   0.00000  Uiso   1.00
H627   H     0.08929   0.29324   0.79012   0.00000  Uiso   1.00
H628   H     0.27774   0.22038   0.79736   0.00000  Uiso   1.00
H629   H     0.03067   0.21973   0.79851   0.00000  Uiso   1.00
H630   H     0.30123   0.11343   0.70277   0.00000  Uiso   1.00
H631   H     0.27201   0.22490   0.91884   0.00000  Uiso   1.00
H632   H     0.29920   0.21425   0.99585   0.00000  Uiso   1.00
H633   H     0.13768   0.15500   0.58853   0.00000  Uiso   1.00
H634   H     0.05098   0.15223   0.91332   0.00000  Uiso   1.00
H635   H     0.08063   0.16750   0.55721   0.00000  Uiso   1.00
H636   H     0.02435   0.15162   0.50817   0.00000  Uiso   1.00
H637   H     0.21145   0.21695   0.87346   0.00000  Uiso   1.00
H638   H     0.24430   0.29661   0.71574   0.00000  Uiso   1.00
N639   N     0.04931   0.16666   0.74999   0.00000  Uiso   1.00
N640   N     0.28402   0.16669   0.75000   0.00000  Uiso   1.00
O641   O     0.12708   0.22678   0.75001   0.00000  Uiso   1.00
O642   O     0.20627   0.22679   0.75001   0.00000  Uiso   1.00
O643   O     0.10775   0.16665   0.82549   0.00000  Uiso   1.00
O644   O     0.18694   0.16666   0.82549   0.00000  Uiso   1.00
O645   O     0.12706   0.10654   0.75000   0.00000  Uiso   1.00
O646   O     0.20625   0.10655   0.75000   0.00000  Uiso   1.00
O647   O     0.14640   0.16667   0.67451   0.00000  Uiso   1.00
O648   O     0.22559   0.16668   0.67451   0.00000  Uiso   1.00
N649   N     0.07692   0.04251   0.80117   0.00000  Uiso   1.00
H650   H     0.07989   0.06333   0.82944   0.00000  Uiso   1.00
C651   C     0.02997   0.02193   0.81161   0.00000  Uiso   1.00
H652   H     0.02529   0.33295   0.84366   0.00000  Uiso   1.00
H653   H     0.02657   0.00599   0.77601   0.00000  Uiso   1.00
H654   H     0.00041   0.04517   0.82364   0.00000  Uiso   1.00
N655   N     0.06302   0.10529   0.69520   0.00000  Uiso   1.00
H656   H     0.06065   0.07914   0.71709   0.00000  Uiso   1.00
C657   C     0.06100   0.09556   0.64322   0.00000  Uiso   1.00
H658   H     0.03123   0.07294   0.64462   0.00000  Uiso   1.00
H659   H     0.09627   0.08182   0.62043   0.00000  Uiso   1.00
H660   H     0.05453   0.12370   0.62342   0.00000  Uiso   1.00
C661   C     0.50005   0.24591   0.75043   0.00000  Uiso   1.00
C662   C     0.47752   0.17800   0.98988   0.00000  Uiso   1.00
C663   C     0.49098   0.18493   0.93568   0.00000  Uiso   1.00
C664   C     0.51370   0.18202   0.51635   0.00000  Uiso   1.00
C665   C     0.56059   0.19804   0.99004   0.00000  Uiso   1.00
C666   C     0.57057   0.21068   0.93872   0.00000  Uiso   1.00
C667   C     0.53610   0.20464   0.91209   0.00000  Uiso   1.00
C668   C     0.50509   0.16931   0.56781   0.00000  Uiso   1.00
C669   C     0.58669   0.19014   0.56741   0.00000  Uiso   1.00
C670   C     0.45832   0.17272   0.90715   0.00000  Uiso   1.00
C671   C     0.54327   0.31237   0.73243   0.00000  Uiso   1.00
C672   C     0.47402   0.16924   0.84996   0.00000  Uiso   1.00
C673   C     0.54258   0.02161   0.73303   0.00000  Uiso   1.00
C674   C     0.49843   0.04266   0.75377   0.00000  Uiso   1.00
C675   C     0.45427   0.02080   0.77555   0.00000  Uiso   1.00
C676   C     0.45553   0.31106   0.77355   0.00000  Uiso   1.00
C677   C     0.49971   0.29045   0.75197   0.00000  Uiso   1.00
C678   C     0.63502   0.19634   0.77647   0.00000  Uiso   1.00
C679   C     0.35111   0.19615   0.77683   0.00000  Uiso   1.00
C680   C     0.36505   0.13712   0.72258   0.00000  Uiso   1.00
C681   C     0.64846   0.13713   0.72341   0.00000  Uiso   1.00
C682   C     0.49936   0.08739   0.75150   0.00000  Uiso   1.00
C683   C     0.52603   0.16775   0.65007   0.00000  Uiso   1.00
C684   C     0.59674   0.20178   0.51566   0.00000  Uiso   1.00
C685   C     0.54047   0.17441   0.59386   0.00000  Uiso   1.00
C686   C     0.41029   0.16091   0.93398   0.00000  Uiso   1.00
C687   C     0.39512   0.15978   0.98782   0.00000  Uiso   1.00
C688   C     0.42826   0.16785   0.51559   0.00000  Uiso   1.00
Cu689  Cu    0.45311   0.16666   0.75000   0.00000  Uiso   1.00
Cu690  Cu    0.54689   0.16667   0.75000   0.00000  Uiso   1.00
H691   H     0.61446   0.19457   0.58708   0.00000  Uiso   1.00
H692   H     0.57658   0.03810   0.71643   0.00000  Uiso   1.00
H693   H     0.42263   0.29324   0.79012   0.00000  Uiso   1.00
H694   H     0.61107   0.22038   0.79736   0.00000  Uiso   1.00
H695   H     0.36400   0.21973   0.79851   0.00000  Uiso   1.00
H696   H     0.63456   0.11343   0.70277   0.00000  Uiso   1.00
H697   H     0.60534   0.22490   0.91884   0.00000  Uiso   1.00
H698   H     0.63253   0.21425   0.99585   0.00000  Uiso   1.00
H699   H     0.47101   0.15500   0.58853   0.00000  Uiso   1.00
H700   H     0.38431   0.15223   0.91332   0.00000  Uiso   1.00
H701   H     0.41397   0.16750   0.55721   0.00000  Uiso   1.00
H702   H     0.35768   0.15162   0.50817   0.00000  Uiso   1.00
H703   H     0.54478   0.21695   0.87346   0.00000  Uiso   1.00
H704   H     0.57763   0.29661   0.71574   0.00000  Uiso   1.00
N705   N     0.38265   0.16666   0.74999   0.00000  Uiso   1.00
N706   N     0.61735   0.16669   0.75000   0.00000  Uiso   1.00
O707   O     0.46042   0.22678   0.75001   0.00000  Uiso   1.00
O708   O     0.53961   0.22679   0.75001   0.00000  Uiso   1.00
O709   O     0.44108   0.16665   0.82549   0.00000  Uiso   1.00
O710   O     0.52027   0.16666   0.82549   0.00000  Uiso   1.00
O711   O     0.46039   0.10654   0.75000   0.00000  Uiso   1.00
O712   O     0.53958   0.10655   0.75000   0.00000  Uiso   1.00
O713   O     0.47973   0.16667   0.67451   0.00000  Uiso   1.00
O714   O     0.55892   0.16668   0.67451   0.00000  Uiso   1.00
N715   N     0.41026   0.04251   0.80117   0.00000  Uiso   1.00
H716   H     0.41323   0.06333   0.82944   0.00000  Uiso   1.00
C717   C     0.36330   0.02193   0.81161   0.00000  Uiso   1.00
H718   H     0.35863   0.33295   0.84366   0.00000  Uiso   1.00
H719   H     0.35990   0.00599   0.77601   0.00000  Uiso   1.00
H720   H     0.33374   0.04517   0.82364   0.00000  Uiso   1.00
N721   N     0.39635   0.10529   0.69520   0.00000  Uiso   1.00
H722   H     0.39398   0.07914   0.71709   0.00000  Uiso   1.00
C723   C     0.39433   0.09556   0.64322   0.00000  Uiso   1.00
H724   H     0.36457   0.07294   0.64462   0.00000  Uiso   1.00
H725   H     0.42960   0.08182   0.62043   0.00000  Uiso   1.00
H726   H     0.38786   0.12370   0.62342   0.00000  Uiso   1.00
C727   C     0.83339   0.24591   0.75043   0.00000  Uiso   1.00
C728   C     0.81086   0.17800   0.98988   0.00000  Uiso   1.00
C729   C     0.82431   0.18493   0.93568   0.00000  Uiso   1.00
C730   C     0.84704   0.18202   0.51635   0.00000  Uiso   1.00
C731   C     0.89393   0.19804   0.99004   0.00000  Uiso   1.00
C732   C     0.90390   0.21068   0.93872   0.00000  Uiso   1.00
C733   C     0.86943   0.20464   0.91209   0.00000  Uiso   1.00
C734   C     0.83843   0.16931   0.56781   0.00000  Uiso   1.00
C735   C     0.92002   0.19014   0.56741   0.00000  Uiso   1.00
C736   C     0.79165   0.17272   0.90715   0.00000  Uiso   1.00
C737   C     0.87660   0.31237   0.73243   0.00000  Uiso   1.00
C738   C     0.80735   0.16924   0.84996   0.00000  Uiso   1.00
C739   C     0.87591   0.02161   0.73303   0.00000  Uiso   1.00
C740   C     0.83176   0.04266   0.75377   0.00000  Uiso   1.00
C741   C     0.78761   0.02080   0.77555   0.00000  Uiso   1.00
C742   C     0.78887   0.31106   0.77355   0.00000  Uiso   1.00
C743   C     0.83305   0.29045   0.75197   0.00000  Uiso   1.00
C744   C     0.96836   0.19634   0.77647   0.00000  Uiso   1.00
C745   C     0.68444   0.19615   0.77683   0.00000  Uiso   1.00
C746   C     0.69838   0.13712   0.72258   0.00000  Uiso   1.00
C747   C     0.98179   0.13713   0.72341   0.00000  Uiso   1.00
C748   C     0.83270   0.08739   0.75150   0.00000  Uiso   1.00
C749   C     0.85936   0.16775   0.65007   0.00000  Uiso   1.00
C750   C     0.93007   0.20178   0.51566   0.00000  Uiso   1.00
C751   C     0.87380   0.17441   0.59386   0.00000  Uiso   1.00
C752   C     0.74362   0.16091   0.93398   0.00000  Uiso   1.00
C753   C     0.72845   0.15978   0.98782   0.00000  Uiso   1.00
C754   C     0.76159   0.16785   0.51559   0.00000  Uiso   1.00
Cu755  Cu    0.78645   0.16666   0.75000   0.00000  Uiso   1.00
Cu756  Cu    0.88022   0.16667   0.75000   0.00000  Uiso   1.00
H757   H     0.94779   0.19457   0.58708   0.00000  Uiso   1.00
H758   H     0.90992   0.03810   0.71643   0.00000  Uiso   1.00
H759   H     0.75596   0.29324   0.79012   0.00000  Uiso   1.00
H760   H     0.94440   0.22038   0.79736   0.00000  Uiso   1.00
H761   H     0.69734   0.21973   0.79851   0.00000  Uiso   1.00
H762   H     0.96790   0.11343   0.70277   0.00000  Uiso   1.00
H763   H     0.93868   0.22490   0.91884   0.00000  Uiso   1.00
H764   H     0.96586   0.21425   0.99585   0.00000  Uiso   1.00
H765   H     0.80434   0.15500   0.58853   0.00000  Uiso   1.00
H766   H     0.71764   0.15223   0.91332   0.00000  Uiso   1.00
H767   H     0.74730   0.16750   0.55721   0.00000  Uiso   1.00
H768   H     0.69102   0.15162   0.50817   0.00000  Uiso   1.00
H769   H     0.87811   0.21695   0.87346   0.00000  Uiso   1.00
H770   H     0.91096   0.29661   0.71574   0.00000  Uiso   1.00
N771   N     0.71598   0.16666   0.74999   0.00000  Uiso   1.00
N772   N     0.95069   0.16669   0.75000   0.00000  Uiso   1.00
O773   O     0.79375   0.22678   0.75001   0.00000  Uiso   1.00
O774   O     0.87294   0.22679   0.75001   0.00000  Uiso   1.00
O775   O     0.77441   0.16665   0.82549   0.00000  Uiso   1.00
O776   O     0.85360   0.16666   0.82549   0.00000  Uiso   1.00
O777   O     0.79373   0.10654   0.75000   0.00000  Uiso   1.00
O778   O     0.87292   0.10655   0.75000   0.00000  Uiso   1.00
O779   O     0.81306   0.16667   0.67451   0.00000  Uiso   1.00
O780   O     0.89225   0.16668   0.67451   0.00000  Uiso   1.00
N781   N     0.74359   0.04251   0.80117   0.00000  Uiso   1.00
H782   H     0.74656   0.06333   0.82944   0.00000  Uiso   1.00
C783   C     0.69663   0.02193   0.81161   0.00000  Uiso   1.00
H784   H     0.69196   0.33295   0.84366   0.00000  Uiso   1.00
H785   H     0.69324   0.00599   0.77601   0.00000  Uiso   1.00
H786   H     0.66708   0.04517   0.82364   0.00000  Uiso   1.00
N787   N     0.72969   0.10529   0.69520   0.00000  Uiso   1.00
H788   H     0.72732   0.07914   0.71709   0.00000  Uiso   1.00
C789   C     0.72767   0.09556   0.64322   0.00000  Uiso   1.00
H790   H     0.69790   0.07294   0.64462   0.00000  Uiso   1.00
H791   H     0.76293   0.08182   0.62043   0.00000  Uiso   1.00
H792   H     0.72119   0.12370   0.62342   0.00000  Uiso   1.00
C793   C     0.16672   0.57924   0.75043   0.00000  Uiso   1.00
C794   C     0.14419   0.51133   0.98988   0.00000  Uiso   1.00
C795   C     0.15765   0.51827   0.93568   0.00000  Uiso   1.00
C796   C     0.18037   0.51535   0.51635   0.00000  Uiso   1.00
C797   C     0.22726   0.53137   0.99004   0.00000  Uiso   1.00
C798   C     0.23723   0.54401   0.93872   0.00000  Uiso   1.00
C799   C     0.20276   0.53798   0.91209   0.00000  Uiso   1.00
C800   C     0.17176   0.50264   0.56781   0.00000  Uiso   1.00
C801   C     0.25335   0.52347   0.56741   0.00000  Uiso   1.00
C802   C     0.12498   0.50606   0.90715   0.00000  Uiso   1.00
C803   C     0.20993   0.64571   0.73243   0.00000  Uiso   1.00
C804   C     0.14069   0.50257   0.84996   0.00000  Uiso   1.00
C805   C     0.20924   0.35494   0.73303   0.00000  Uiso   1.00
C806   C     0.16509   0.37600   0.75377   0.00000  Uiso   1.00
C807   C     0.12094   0.35414   0.77555   0.00000  Uiso   1.00
C808   C     0.12220   0.64439   0.77355   0.00000  Uiso   1.00
C809   C     0.16638   0.62379   0.75197   0.00000  Uiso   1.00
C810   C     0.30169   0.52968   0.77647   0.00000  Uiso   1.00
C811   C     0.01777   0.52948   0.77683   0.00000  Uiso   1.00
C812   C     0.03172   0.47045   0.72258   0.00000  Uiso   1.00
C813   C     0.31513   0.47046   0.72341   0.00000  Uiso   1.00
C814   C     0.16603   0.42073   0.75150   0.00000  Uiso   1.00
C815   C     0.19270   0.50108   0.65007   0.00000  Uiso   1.00
C816   C     0.26340   0.53511   0.51566   0.00000  Uiso   1.00
C817   C     0.20714   0.50774   0.59386   0.00000  Uiso   1.00
C818   C     0.07696   0.49425   0.93398   0.00000  Uiso   1.00
C819   C     0.06178   0.49311   0.98782   0.00000  Uiso   1.00
C820   C     0.09493   0.50118   0.51559   0.00000  Uiso   1.00
Cu821  Cu    0.11978   0.49999   0.75000   0.00000  Uiso   1.00
Cu822  Cu    0.21355   0.50001   0.75000   0.00000  Uiso   1.00
H823   H     0.28113   0.52791   0.58708   0.00000  Uiso   1.00
H824   H     0.24325   0.37143   0.71643   0.00000  Uiso   1.00
H825   H     0.08929   0.62657   0.79012   0.00000  Uiso   1.00
H826   H     0.27774   0.55372   0.79736   0.00000  Uiso   1.00
H827   H     0.03067   0.55307   0.79851   0.00000  Uiso   1.00
H828   H     0.30123   0.44676   0.70277   0.00000  Uiso   1.00
H829   H     0.27201   0.55824   0.91884   0.00000  Uiso   1.00
H830   H     0.29920   0.54758   0.99585   0.00000  Uiso   1.00
H831   H     0.13768   0.48833   0.58853   0.00000  Uiso   1.00
H832   H     0.05098   0.48556   0.91332   0.00000  Uiso   1.00
H833   H     0.08063   0.50084   0.55721   0.00000  Uiso   1.00
H834   H     0.02435   0.48495   0.50817   0.00000  Uiso   1.00
H835   H     0.21145   0.55028   0.87346   0.00000  Uiso   1.00
H836   H     0.24430   0.62994   0.71574   0.00000  Uiso   1.00
N837   N     0.04931   0.49999   0.74999   0.00000  Uiso   1.00
N838   N     0.28402   0.50002   0.75000   0.00000  Uiso   1.00
O839   O     0.12708   0.56011   0.75001   0.00000  Uiso   1.00
O840   O     0.20627   0.56012   0.75001   0.00000  Uiso   1.00
O841   O     0.10775   0.49998   0.82549   0.00000  Uiso   1.00
O842   O     0.18694   0.49999   0.82549   0.00000  Uiso   1.00
O843   O     0.12706   0.43988   0.75000   0.00000  Uiso   1.00
O844   O     0.20625   0.43989   0.75000   0.00000  Uiso   1.00
O845   O     0.14640   0.50001   0.67451   0.00000  Uiso   1.00
O846   O     0.22559   0.50002   0.67451   0.00000  Uiso   1.00
N847   N     0.07692   0.37585   0.80117   0.00000  Uiso   1.00
H848   H     0.07989   0.39666   0.82944   0.00000  Uiso   1.00
C849   C     0.02997   0.35527   0.81161   0.00000  Uiso   1.00
H850   H     0.02529   0.66629   0.84366   0.00000  Uiso   1.00
H851   H     0.02657   0.33932   0.77601   0.00000  Uiso   1.00
H852   H     0.00041   0.37851   0.82364   0.00000  Uiso   1.00
N853   N     0.06302   0.43862   0.69520   0.00000  Uiso   1.00
H854   H     0.06065   0.41247   0.71709   0.00000  Uiso   1.00
C855   C     0.06100   0.42890   0.64322   0.00000  Uiso   1.00
H856   H     0.03123   0.40627   0.64462   0.00000  Uiso   1.00
H857   H     0.09627   0.41515   0.62043   0.00000  Uiso   1.00
H858   H     0.05453   0.45704   0.62342   0.00000  Uiso   1.00
C859   C     0.50005   0.57924   0.75043   0.00000  Uiso   1.00
C860   C     0.47752   0.51133   0.98988   0.00000  Uiso   1.00
C861   C     0.49098   0.51827   0.93568   0.00000  Uiso   1.00
C862   C     0.51370   0.51535   0.51635   0.00000  Uiso   1.00
C863   C     0.56059   0.53137   0.99004   0.00000  Uiso   1.00
C864   C     0.57057   0.54401   0.93872   0.00000  Uiso   1.00
C865   C     0.53610   0.53798   0.91209   0.00000  Uiso   1.00
C866   C     0.50509   0.50264   0.56781   0.00000  Uiso   1.00
C867   C     0.58669   0.52347   0.56741   0.00000  Uiso   1.00
C868   C     0.45832   0.50606   0.90715   0.00000  Uiso   1.00
C869   C     0.54327   0.64571   0.73243   0.00000  Uiso   1.00
C870   C     0.47402   0.50257   0.84996   0.00000  Uiso   1.00
C871   C     0.54258   0.35494   0.73303   0.00000  Uiso   1.00
C872   C     0.49843   0.37600   0.75377   0.00000  Uiso   1.00
C873   C     0.45427   0.35414   0.77555   0.00000  Uiso   1.00
C874   C     0.45553   0.64439   0.77355   0.00000  Uiso   1.00
C875   C     0.49971   0.62379   0.75197   0.00000  Uiso   1.00
C876   C     0.63502   0.52968   0.77647   0.00000  Uiso   1.00
C877   C     0.35111   0.52948   0.77683   0.00000  Uiso   1.00
C878   C     0.36505   0.47045   0.72258   0.00000  Uiso   1.00
C879   C     0.64846   0.47046   0.72341   0.00000  Uiso   1.00
C880   C     0.49936   0.42073   0.75150   0.00000  Uiso   1.00
C881   C     0.52603   0.50108   0.65007   0.00000  Uiso   1.00
C882   C     0.59674   0.53511   0.51566   0.00000  Uiso   1.00
C883   C     0.54047   0.50774   0.59386   0.00000  Uiso   1.00
C884   C     0.41029   0.49425   0.93398   0.00000  Uiso   1.00
C885   C     0.39512   0.49311   0.98782   0.00000  Uiso   1.00
C886   C     0.42826   0.50118   0.51559   0.00000  Uiso   1.00
Cu887  Cu    0.45311   0.49999   0.75000   0.00000  Uiso   1.00
Cu888  Cu    0.54689   0.50001   0.75000   0.00000  Uiso   1.00
H889   H     0.61446   0.52791   0.58708   0.00000  Uiso   1.00
H890   H     0.57658   0.37143   0.71643   0.00000  Uiso   1.00
H891   H     0.42263   0.62657   0.79012   0.00000  Uiso   1.00
H892   H     0.61107   0.55372   0.79736   0.00000  Uiso   1.00
H893   H     0.36400   0.55307   0.79851   0.00000  Uiso   1.00
H894   H     0.63456   0.44676   0.70277   0.00000  Uiso   1.00
H895   H     0.60534   0.55824   0.91884   0.00000  Uiso   1.00
H896   H     0.63253   0.54758   0.99585   0.00000  Uiso   1.00
H897   H     0.47101   0.48833   0.58853   0.00000  Uiso   1.00
H898   H     0.38431   0.48556   0.91332   0.00000  Uiso   1.00
H899   H     0.41397   0.50084   0.55721   0.00000  Uiso   1.00
H900   H     0.35768   0.48495   0.50817   0.00000  Uiso   1.00
H901   H     0.54478   0.55028   0.87346   0.00000  Uiso   1.00
H902   H     0.57763   0.62994   0.71574   0.00000  Uiso   1.00
N903   N     0.38265   0.49999   0.74999   0.00000  Uiso   1.00
N904   N     0.61735   0.50002   0.75000   0.00000  Uiso   1.00
O905   O     0.46042   0.56011   0.75001   0.00000  Uiso   1.00
O906   O     0.53961   0.56012   0.75001   0.00000  Uiso   1.00
O907   O     0.44108   0.49998   0.82549   0.00000  Uiso   1.00
O908   O     0.52027   0.49999   0.82549   0.00000  Uiso   1.00
O909   O     0.46039   0.43988   0.75000   0.00000  Uiso   1.00
O910   O     0.53958   0.43989   0.75000   0.00000  Uiso   1.00
O911   O     0.47973   0.50001   0.67451   0.00000  Uiso   1.00
O912   O     0.55892   0.50002   0.67451   0.00000  Uiso   1.00
N913   N     0.41026   0.37585   0.80117   0.00000  Uiso   1.00
H914   H     0.41323   0.39666   0.82944   0.00000  Uiso   1.00
C915   C     0.36330   0.35527   0.81161   0.00000  Uiso   1.00
H916   H     0.35863   0.66629   0.84366   0.00000  Uiso   1.00
H917   H     0.35990   0.33932   0.77601   0.00000  Uiso   1.00
H918   H     0.33374   0.37851   0.82364   0.00000  Uiso   1.00
N919   N     0.39635   0.43862   0.69520   0.00000  Uiso   1.00
H920   H     0.39398   0.41247   0.71709   0.00000  Uiso   1.00
C921   C     0.39433   0.42890   0.64322   0.00000  Uiso   1.00
H922   H     0.36457   0.40627   0.64462   0.00000  Uiso   1.00
H923   H     0.42960   0.41515   0.62043   0.00000  Uiso   1.00
H924   H     0.38786   0.45704   0.62342   0.00000  Uiso   1.00
C925   C     0.83339   0.57924   0.75043   0.00000  Uiso   1.00
C926   C     0.81086   0.51133   0.98988   0.00000  Uiso   1.00
C927   C     0.82431   0.51827   0.93568   0.00000  Uiso   1.00
C928   C     0.84704   0.51535   0.51635   0.00000  Uiso   1.00
C929   C     0.89393   0.53137   0.99004   0.00000  Uiso   1.00
C930   C     0.90390   0.54401   0.93872   0.00000  Uiso   1.00
C931   C     0.86943   0.53798   0.91209   0.00000  Uiso   1.00
C932   C     0.83843   0.50264   0.56781   0.00000  Uiso   1.00
C933   C     0.92002   0.52347   0.56741   0.00000  Uiso   1.00
C934   C     0.79165   0.50606   0.90715   0.00000  Uiso   1.00
C935   C     0.87660   0.64571   0.73243   0.00000  Uiso   1.00
C936   C     0.80735   0.50257   0.84996   0.00000  Uiso   1.00
C937   C     0.87591   0.35494   0.73303   0.00000  Uiso   1.00
C938   C     0.83176   0.37600   0.75377   0.00000  Uiso   1.00
C939   C     0.78761   0.35414   0.77555   0.00000  Uiso   1.00
C940   C     0.78887   0.64439   0.77355   0.00000  Uiso   1.00
C941   C     0.83305   0.62379   0.75197   0.00000  Uiso   1.00
C942   C     0.96836   0.52968   0.77647   0.00000  Uiso   1.00
C943   C     0.68444   0.52948   0.77683   0.00000  Uiso   1.00
C944   C     0.69838   0.47045   0.72258   0.00000  Uiso   1.00
C945   C     0.98179   0.47046   0.72341   0.00000  Uiso   1.00
C946   C     0.83270   0.42073   0.75150   0.00000  Uiso   1.00
C947   C     0.85936   0.50108   0.65007   0.00000  Uiso   1.00
C948   C     0.93007   0.53511   0.51566   0.00000  Uiso   1.00
C949   C     0.87380   0.50774   0.59386   0.00000  Uiso   1.00
C950   C     0.74362   0.49425   0.93398   0.00000  Uiso   1.00
C951   C     0.72845   0.49311   0.98782   0.00000  Uiso   1.00
C952   C     0.76159   0.50118   0.51559   0.00000  Uiso   1.00
Cu953  Cu    0.78645   0.49999   0.75000   0.00000  Uiso   1.00
Cu954  Cu    0.88022   0.50001   0.75000   0.00000  Uiso   1.00
H955   H     0.94779   0.52791   0.58708   0.00000  Uiso   1.00
H956   H     0.90992   0.37143   0.71643   0.00000  Uiso   1.00
H957   H     0.75596   0.62657   0.79012   0.00000  Uiso   1.00
H958   H     0.94440   0.55372   0.79736   0.00000  Uiso   1.00
H959   H     0.69734   0.55307   0.79851   0.00000  Uiso   1.00
H960   H     0.96790   0.44676   0.70277   0.00000  Uiso   1.00
H961   H     0.93868   0.55824   0.91884   0.00000  Uiso   1.00
H962   H     0.96586   0.54758   0.99585   0.00000  Uiso   1.00
H963   H     0.80434   0.48833   0.58853   0.00000  Uiso   1.00
H964   H     0.71764   0.48556   0.91332   0.00000  Uiso   1.00
H965   H     0.74730   0.50084   0.55721   0.00000  Uiso   1.00
H966   H     0.69102   0.48495   0.50817   0.00000  Uiso   1.00
H967   H     0.87811   0.55028   0.87346   0.00000  Uiso   1.00
H968   H     0.91096   0.62994   0.71574   0.00000  Uiso   1.00
N969   N     0.71598   0.49999   0.74999   0.00000  Uiso   1.00
N970   N     0.95069   0.50002   0.75000   0.00000  Uiso   1.00
O971   O     0.79375   0.56011   0.75001   0.00000  Uiso   1.00
O972   O     0.87294   0.56012   0.75001   0.00000  Uiso   1.00
O973   O     0.77441   0.49998   0.82549   0.00000  Uiso   1.00
O974   O     0.85360   0.49999   0.82549   0.00000  Uiso   1.00
O975   O     0.79373   0.43988   0.75000   0.00000  Uiso   1.00
O976   O     0.87292   0.43989   0.75000   0.00000  Uiso   1.00
O977   O     0.81306   0.50001   0.67451   0.00000  Uiso   1.00
O978   O     0.89225   0.50002   0.67451   0.00000  Uiso   1.00
N979   N     0.74359   0.37585   0.80117   0.00000  Uiso   1.00
H980   H     0.74656   0.39666   0.82944   0.00000  Uiso   1.00
C981   C     0.69663   0.35527   0.81161   0.00000  Uiso   1.00
H982   H     0.69196   0.66629   0.84366   0.00000  Uiso   1.00
H983   H     0.69324   0.33932   0.77601   0.00000  Uiso   1.00
H984   H     0.66708   0.37851   0.82364   0.00000  Uiso   1.00
N985   N     0.72969   0.43862   0.69520   0.00000  Uiso   1.00
H986   H     0.72732   0.41247   0.71709   0.00000  Uiso   1.00
C987   C     0.72767   0.42890   0.64322   0.00000  Uiso   1.00
H988   H     0.69790   0.40627   0.64462   0.00000  Uiso   1.00
H989   H     0.76293   0.41515   0.62043   0.00000  Uiso   1.00
H990   H     0.72119   0.45704   0.62342   0.00000  Uiso   1.00
C991   C     0.16672   0.91257   0.75043   0.00000  Uiso   1.00
C992   C     0.14419   0.84466   0.98988   0.00000  Uiso   1.00
C993   C     0.15765   0.85160   0.93568   0.00000  Uiso   1.00
C994   C     0.18037   0.84869   0.51635   0.00000  Uiso   1.00
C995   C     0.22726   0.86471   0.99004   0.00000  Uiso   1.00
C996   C     0.23723   0.87735   0.93872   0.00000  Uiso   1.00
C997   C     0.20276   0.87131   0.91209   0.00000  Uiso   1.00
C998   C     0.17176   0.83598   0.56781   0.00000  Uiso   1.00
C999   C     0.25335   0.85681   0.56741   0.00000  Uiso   1.00
C1000  C     0.12498   0.83939   0.90715   0.00000  Uiso   1.00
C1001  C     0.20993   0.97904   0.73243   0.00000  Uiso   1.00
C1002  C     0.14069   0.83590   0.84996   0.00000  Uiso   1.00
C1003  C     0.20924   0.68828   0.73303   0.00000  Uiso   1.00
C1004  C     0.16509   0.70933   0.75377   0.00000  Uiso   1.00
C1005  C     0.12094   0.68747   0.77555   0.00000  Uiso   1.00
C1006  C     0.12220   0.97773   0.77355   0.00000  Uiso   1.00
C1007  C     0.16638   0.95712   0.75197   0.00000  Uiso   1.00
C1008  C     0.30169   0.86301   0.77647   0.00000  Uiso   1.00
C1009  C     0.01777   0.86281   0.77683   0.00000  Uiso   1.00
C1010  C     0.03172   0.80379   0.72258   0.00000  Uiso   1.00
C1011  C     0.31513   0.80379   0.72341   0.00000  Uiso   1.00
C1012  C     0.16603   0.75406   0.75150   0.00000  Uiso   1.00
C1013  C     0.19270   0.83441   0.65007   0.00000  Uiso   1.00
C1014  C     0.26340   0.86845   0.51566   0.00000  Uiso   1.00
C1015  C     0.20714   0.84108   0.59386   0.00000  Uiso   1.00
C1016  C     0.07696   0.82758   0.93398   0.00000  Uiso   1.00
C1017  C     0.06178   0.82644   0.98782   0.00000  Uiso   1.00
C1018  C     0.09493   0.83451   0.51559   0.00000  Uiso   1.00
Cu1019 Cu    0.11978   0.83333   0.75000   0.00000  Uiso   1.00
Cu1020 Cu    0.21355   0.83334   0.75000   0.00000  Uiso   1.00
H1021  H     0.28113   0.86124   0.58708   0.00000  Uiso   1.00
H1022  H     0.24325   0.70477   0.71643   0.00000  Uiso   1.00
H1023  H     0.08929   0.95991   0.79012   0.00000  Uiso   1.00
H1024  H     0.27774   0.88705   0.79736   0.00000  Uiso   1.00
H1025  H     0.03067   0.88640   0.79851   0.00000  Uiso   1.00
H1026  H     0.30123   0.78010   0.70277   0.00000  Uiso   1.00
H1027  H     0.27201   0.89157   0.91884   0.00000  Uiso   1.00
H1028  H     0.29920   0.88092   0.99585   0.00000  Uiso   1.00
H1029  H     0.13768   0.82166   0.58853   0.00000  Uiso   1.00
H1030  H     0.05098   0.81890   0.91332   0.00000  Uiso   1.00
H1031  H     0.08063   0.83417   0.55721   0.00000  Uiso   1.00
H1032  H     0.02435   0.81829   0.50817   0.00000  Uiso   1.00
H1033  H     0.21145   0.88362   0.87346   0.00000  Uiso   1.00
H1034  H     0.24430   0.96328   0.71574   0.00000  Uiso   1.00
N1035  N     0.04931   0.83332   0.74999   0.00000  Uiso   1.00
N1036  N     0.28402   0.83335   0.75000   0.00000  Uiso   1.00
O1037  O     0.12708   0.89345   0.75001   0.00000  Uiso   1.00
O1038  O     0.20627   0.89346   0.75001   0.00000  Uiso   1.00
O1039  O     0.10775   0.83332   0.82549   0.00000  Uiso   1.00
O1040  O     0.18694   0.83333   0.82549   0.00000  Uiso   1.00
O1041  O     0.12706   0.77321   0.75000   0.00000  Uiso   1.00
O1042  O     0.20625   0.77322   0.75000   0.00000  Uiso   1.00
O1043  O     0.14640   0.83334   0.67451   0.00000  Uiso   1.00
O1044  O     0.22559   0.83335   0.67451   0.00000  Uiso   1.00
N1045  N     0.07692   0.70918   0.80117   0.00000  Uiso   1.00
H1046  H     0.07989   0.73000   0.82944   0.00000  Uiso   1.00
C1047  C     0.02997   0.68860   0.81161   0.00000  Uiso   1.00
H1048  H     0.02529   0.99962   0.84366   0.00000  Uiso   1.00
H1049  H     0.02657   0.67265   0.77601   0.00000  Uiso   1.00
H1050  H     0.00041   0.71184   0.82364   0.00000  Uiso   1.00
N1051  N     0.06302   0.77196   0.69520   0.00000  Uiso   1.00
H1052  H     0.06065   0.74580   0.71709   0.00000  Uiso   1.00
C1053  C     0.06100   0.76223   0.64322   0.00000  Uiso   1.00
H1054  H     0.03123   0.73960   0.64462   0.00000  Uiso   1.00
H1055  H     0.09627   0.74848   0.62043   0.00000  Uiso   1.00
H1056  H     0.05453   0.79037   0.62342   0.00000  Uiso   1.00
C1057  C     0.50005   0.91257   0.75043   0.00000  Uiso   1.00
C1058  C     0.47752   0.84466   0.98988   0.00000  Uiso   1.00
C1059  C     0.49098   0.85160   0.93568   0.00000  Uiso   1.00
C1060  C     0.51370   0.84869   0.51635   0.00000  Uiso   1.00
C1061  C     0.56059   0.86471   0.99004   0.00000  Uiso   1.00
C1062  C     0.57057   0.87735   0.93872   0.00000  Uiso   1.00
C1063  C     0.53610   0.87131   0.91209   0.00000  Uiso   1.00
C1064  C     0.50509   0.83598   0.56781   0.00000  Uiso   1.00
C1065  C     0.58669   0.85681   0.56741   0.00000  Uiso   1.00
C1066  C     0.45832   0.83939   0.90715   0.00000  Uiso   1.00
C1067  C     0.54327   0.97904   0.73243   0.00000  Uiso   1.00
C1068  C     0.47402   0.83590   0.84996   0.00000  Uiso   1.00
C1069  C     0.54258   0.68828   0.73303   0.00000  Uiso   1.00
C1070  C     0.49843   0.70933   0.75377   0.00000  Uiso   1.00
C1071  C     0.45427   0.68747   0.77555   0.00000  Uiso   1.00
C1072  C     0.45553   0.97773   0.77355   0.00000  Uiso   1.00
C1073  C     0.49971   0.95712   0.75197   0.00000  Uiso   1.00
C1074  C     0.63502   0.86301   0.77647   0.00000  Uiso   1.00
C1075  C     0.35111   0.86281   0.77683   0.00000  Uiso   1.00
C1076  C     0.36505   0.80379   0.72258   0.00000  Uiso   1.00
C1077  C     0.64846   0.80379   0.72341   0.00000  Uiso   1.00
C1078  C     0.49936   0.75406   0.75150   0.00000  Uiso   1.00
C1079  C     0.52603   0.83441   0.65007   0.00000  Uiso   1.00
C1080  C     0.59674   0.86845   0.51566   0.00000  Uiso   1.00
C1081  C     0.54047   0.84108   0.59386   0.00000  Uiso   1.00
C1082  C     0.41029   0.82758   0.93398   0.00000  Uiso   1.00
C1083  C     0.39512   0.82644   0.98782   0.00000  Uiso   1.00
C1084  C     0.42826   0.83451   0.51559   0.00000  Uiso   1.00
Cu1085 Cu    0.45311   0.83333   0.75000   0.00000  Uiso   1.00
Cu1086 Cu    0.54689   0.83334   0.75000   0.00000  Uiso   1.00
H1087  H     0.61446   0.86124   0.58708   0.00000  Uiso   1.00
H1088  H     0.57658   0.70477   0.71643   0.00000  Uiso   1.00
H1089  H     0.42263   0.95991   0.79012   0.00000  Uiso   1.00
H1090  H     0.61107   0.88705   0.79736   0.00000  Uiso   1.00
H1091  H     0.36400   0.88640   0.79851   0.00000  Uiso   1.00
H1092  H     0.63456   0.78010   0.70277   0.00000  Uiso   1.00
H1093  H     0.60534   0.89157   0.91884   0.00000  Uiso   1.00
H1094  H     0.63253   0.88092   0.99585   0.00000  Uiso   1.00
H1095  H     0.47101   0.82166   0.58853   0.00000  Uiso   1.00
H1096  H     0.38431   0.81890   0.91332   0.00000  Uiso   1.00
H1097  H     0.41397   0.83417   0.55721   0.00000  Uiso   1.00
H1098  H     0.35768   0.81829   0.50817   0.00000  Uiso   1.00
H1099  H     0.54478   0.88362   0.87346   0.00000  Uiso   1.00
H1100  H     0.57763   0.96328   0.71574   0.00000  Uiso   1.00
N1101  N     0.38265   0.83332   0.74999   0.00000  Uiso   1.00
N1102  N     0.61735   0.83335   0.75000   0.00000  Uiso   1.00
O1103  O     0.46042   0.89345   0.75001   0.00000  Uiso   1.00
O1104  O     0.53961   0.89346   0.75001   0.00000  Uiso   1.00
O1105  O     0.44108   0.83332   0.82549   0.00000  Uiso   1.00
O1106  O     0.52027   0.83333   0.82549   0.00000  Uiso   1.00
O1107  O     0.46039   0.77321   0.75000   0.00000  Uiso   1.00
O1108  O     0.53958   0.77322   0.75000   0.00000  Uiso   1.00
O1109  O     0.47973   0.83334   0.67451   0.00000  Uiso   1.00
O1110  O     0.55892   0.83335   0.67451   0.00000  Uiso   1.00
N1111  N     0.41026   0.70918   0.80117   0.00000  Uiso   1.00
H1112  H     0.41323   0.73000   0.82944   0.00000  Uiso   1.00
C1113  C     0.36330   0.68860   0.81161   0.00000  Uiso   1.00
H1114  H     0.35863   0.99962   0.84366   0.00000  Uiso   1.00
H1115  H     0.35990   0.67265   0.77601   0.00000  Uiso   1.00
H1116  H     0.33374   0.71184   0.82364   0.00000  Uiso   1.00
N1117  N     0.39635   0.77196   0.69520   0.00000  Uiso   1.00
H1118  H     0.39398   0.74580   0.71709   0.00000  Uiso   1.00
C1119  C     0.39433   0.76223   0.64322   0.00000  Uiso   1.00
H1120  H     0.36457   0.73960   0.64462   0.00000  Uiso   1.00
H1121  H     0.42960   0.74848   0.62043   0.00000  Uiso   1.00
H1122  H     0.38786   0.79037   0.62342   0.00000  Uiso   1.00
C1123  C     0.83339   0.91257   0.75043   0.00000  Uiso   1.00
C1124  C     0.81086   0.84466   0.98988   0.00000  Uiso   1.00
C1125  C     0.82431   0.85160   0.93568   0.00000  Uiso   1.00
C1126  C     0.84704   0.84869   0.51635   0.00000  Uiso   1.00
C1127  C     0.89393   0.86471   0.99004   0.00000  Uiso   1.00
C1128  C     0.90390   0.87735   0.93872   0.00000  Uiso   1.00
C1129  C     0.86943   0.87131   0.91209   0.00000  Uiso   1.00
C1130  C     0.83843   0.83598   0.56781   0.00000  Uiso   1.00
C1131  C     0.92002   0.85681   0.56741   0.00000  Uiso   1.00
C1132  C     0.79165   0.83939   0.90715   0.00000  Uiso   1.00
C1133  C     0.87660   0.97904   0.73243   0.00000  Uiso   1.00
C1134  C     0.80735   0.83590   0.84996   0.00000  Uiso   1.00
C1135  C     0.87591   0.68828   0.73303   0.00000  Uiso   1.00
C1136  C     0.83176   0.70933   0.75377   0.00000  Uiso   1.00
C1137  C     0.78761   0.68747   0.77555   0.00000  Uiso   1.00
C1138  C     0.78887   0.97773   0.77355   0.00000  Uiso   1.00
C1139  C     0.83305   0.95712   0.75197   0.00000  Uiso   1.00
C1140  C     0.96836   0.86301   0.77647   0.00000  Uiso   1.00
C1141  C     0.68444   0.86281   0.77683   0.00000  Uiso   1.00
C1142  C     0.69838   0.80379   0.72258   0.00000  Uiso   1.00
C1143  C     0.98179   0.80379   0.72341   0.00000  Uiso   1.00
C1144  C     0.83270   0.75406   0.75150   0.00000  Uiso   1.00
C1145  C     0.85936   0.83441   0.65007   0.00000  Uiso   1.00
C1146  C     0.93007   0.86845   0.51566   0.00000  Uiso   1.00
C1147  C     0.87380   0.84108   0.59386   0.00000  Uiso   1.00
C1148  C     0.74362   0.82758   0.93398   0.00000  Uiso   1.00
C1149  C     0.72845   0.82644   0.98782   0.00000  Uiso   1.00
C1150  C     0.76159   0.83451   0.51559   0.00000  Uiso   1.00
Cu1151 Cu    0.78645   0.83333   0.75000   0.00000  Uiso   1.00
Cu1152 Cu    0.88022   0.83334   0.75000   0.00000  Uiso   1.00
H1153  H     0.94779   0.86124   0.58708   0.00000  Uiso   1.00
H1154  H     0.90992   0.70477   0.71643   0.00000  Uiso   1.00
H1155  H     0.75596   0.95991   0.79012   0.00000  Uiso   1.00
H1156  H     0.94440   0.88705   0.79736   0.00000  Uiso   1.00
H1157  H     0.69734   0.88640   0.79851   0.00000  Uiso   1.00
H1158  H     0.96790   0.78010   0.70277   0.00000  Uiso   1.00
H1159  H     0.93868   0.89157   0.91884   0.00000  Uiso   1.00
H1160  H     0.96586   0.88092   0.99585   0.00000  Uiso   1.00
H1161  H     0.80434   0.82166   0.58853   0.00000  Uiso   1.00
H1162  H     0.71764   0.81890   0.91332   0.00000  Uiso   1.00
H1163  H     0.74730   0.83417   0.55721   0.00000  Uiso   1.00
H1164  H     0.69102   0.81829   0.50817   0.00000  Uiso   1.00
H1165  H     0.87811   0.88362   0.87346   0.00000  Uiso   1.00
H1166  H     0.91096   0.96328   0.71574   0.00000  Uiso   1.00
N1167  N     0.71598   0.83332   0.74999   0.00000  Uiso   1.00
N1168  N     0.95069   0.83335   0.75000   0.00000  Uiso   1.00
O1169  O     0.79375   0.89345   0.75001   0.00000  Uiso   1.00
O1170  O     0.87294   0.89346   0.75001   0.00000  Uiso   1.00
O1171  O     0.77441   0.83332   0.82549   0.00000  Uiso   1.00
O1172  O     0.85360   0.83333   0.82549   0.00000  Uiso   1.00
O1173  O     0.79373   0.77321   0.75000   0.00000  Uiso   1.00
O1174  O     0.87292   0.77322   0.75000   0.00000  Uiso   1.00
O1175  O     0.81306   0.83334   0.67451   0.00000  Uiso   1.00
O1176  O     0.89225   0.83335   0.67451   0.00000  Uiso   1.00
N1177  N     0.74359   0.70918   0.80117   0.00000  Uiso   1.00
H1178  H     0.74656   0.73000   0.82944   0.00000  Uiso   1.00
C1179  C     0.69663   0.68860   0.81161   0.00000  Uiso   1.00
H1180  H     0.69196   0.99962   0.84366   0.00000  Uiso   1.00
H1181  H     0.69324   0.67265   0.77601   0.00000  Uiso   1.00
H1182  H     0.66708   0.71184   0.82364   0.00000  Uiso   1.00
N1183  N     0.72969   0.77196   0.69520   0.00000  Uiso   1.00
H1184  H     0.72732   0.74580   0.71709   0.00000  Uiso   1.00
C1185  C     0.72767   0.76223   0.64322   0.00000  Uiso   1.00
H1186  H     0.69790   0.73960   0.64462   0.00000  Uiso   1.00
H1187  H     0.76293   0.74848   0.62043   0.00000  Uiso   1.00
H1188  H     0.72119   0.79037   0.62342   0.00000  Uiso   1.00
loop_
_geom_bond_atom_site_label_1
_geom_bond_atom_site_label_2
_geom_bond_distance
_geom_bond_site_symmetry_2
_ccdc_geom_bond_type
C1     O48     1.292   .     A
C1     C17     1.445   .     S
C1     O47     1.290   .     A
C2     C3      1.416   .     A
C2     C598    1.422   .     S
C2     C622    1.414   .     S
C3     C10     1.422   .     A
C3     C7      1.412   .     A
C4     C8      1.401   .     A
C4     C596    1.422   1_554 S
C4     C599    1.418   1_554 S
C5     C6      1.393   .     A
C5     C598    1.418   .     S
C5     C618    1.404   .     S
C6     C7      1.389   .     A
C6     H37     1.084   .     S
C7     H43     1.077   .     S
C8     H39     1.076   .     S
C8     C25     1.397   .     A
C9     C25     1.400   .     A
C9     C24     1.394   .     A
C9     H31     1.083   .     S
C10    C12     1.475   .     S
C10    C26     1.405   .     A
C11    H44     1.084   .     S
C11    C17     1.394   .     A
C11    C211    1.381   .     S
C12    O50     1.297   .     A
C12    O49     1.299   .     A
C13    H32     1.084   .     S
C13    C14     1.402   .     A
C13    C407    1.381   1_545 S
C14    C22     1.453   .     S
C14    C15     1.415   .     A
C15    N55     1.432   .     S
C15    C412    1.398   1_545 S
C16    H33     1.082   .     S
C16    C17     1.399   .     A
C16    C213    1.398   .     S
C18    N46     1.368   .     A
C18    H34     1.080   .     S
C18    C85     1.416   .     S
C19    N45     1.366   .     A
C19    H35     1.082   .     S
C19    C150    1.416   1_455 S
C20    N45     1.379   .     A
C20    N61     1.422   .     S
C20    C153    1.421   1_455 S
C21    N46     1.359   .     A
C21    H36     1.081   .     S
C21    C86     1.421   .     S
C22    O52     1.293   .     A
C22    O51     1.292   .     A
C23    O53     1.295   .     A
C23    C25     1.465   .     S
C23    O54     1.297   .     A
C24    C599    1.404   1_554 S
C24    H632    1.084   1_554 S
C26    H40     1.083   .     S
C26    C27     1.386   .     A
C27    C622    1.389   .     S
C27    H636    1.083   .     S
C28    H41     1.074   .     S
C28    C621    1.389   1_554 S
C28    C596    1.414   1_554 S
Cu29   O49     1.959   .     S
Cu29   Cu30    2.682   .     S
Cu29   O47     1.959   .     S
Cu29   O51     1.963   .     S
Cu29   N45     2.015   .     S
Cu29   O53     1.950   .     S
Cu30   O54     1.959   .     S
Cu30   O48     1.963   .     S
Cu30   O50     1.950   .     S
Cu30   O52     1.959   .     S
Cu30   N46     2.015   .     S
H38    C618    1.084   .     S
H42    C621    1.083   1_554 S
N55    H56     1.032   .     S
N55    C57     1.448   .     S
C57    H59     1.111   .     S
C57    H60     1.110   .     S
C57    H454    1.111   1_545 S
H58    C255    1.111   .     S
N61    H62     1.030   .     S
N61    C63     1.447   .     S
C63    H65     1.110   .     S
C63    H64     1.111   .     S
C63    H66     1.107   .     S
C67    O114    1.292   .     A
C67    C83     1.445   .     S
C67    O113    1.290   .     A
C68    C69     1.416   .     A
C68    C664    1.422   .     S
C68    C688    1.414   .     S
C69    C76     1.422   .     A
C69    C73     1.412   .     A
C70    C74     1.401   .     A
C70    C662    1.422   1_554 S
C70    C665    1.418   1_554 S
C71    C72     1.393   .     A
C71    C664    1.418   .     S
C71    C684    1.404   .     S
C72    C73     1.389   .     A
C72    H103    1.084   .     S
C73    H109    1.077   .     S
C74    H105    1.076   .     S
C74    C91     1.397   .     A
C75    C91     1.400   .     A
C75    C90     1.394   .     A
C75    H97     1.083   .     S
C76    C78     1.475   .     S
C76    C92     1.405   .     A
C77    H110    1.084   .     S
C77    C83     1.394   .     A
C77    C277    1.381   .     S
C78    O116    1.297   .     A
C78    O115    1.299   .     A
C79    H98     1.084   .     S
C79    C80     1.402   .     A
C79    C473    1.381   1_545 S
C80    C88     1.453   .     S
C80    C81     1.415   .     A
C81    N121    1.432   .     S
C81    C478    1.398   1_545 S
C82    H99     1.082   .     S
C82    C83     1.399   .     A
C82    C279    1.398   .     S
C84    N112    1.368   .     A
C84    H100    1.080   .     S
C84    C151    1.416   .     S
C85    N111    1.366   .     A
C85    H101    1.082   .     S
C86    N111    1.379   .     A
C86    N127    1.422   .     S
C87    N112    1.359   .     A
C87    H102    1.081   .     S
C87    C152    1.421   .     S
C88    O118    1.293   .     A
C88    O117    1.292   .     A
C89    O119    1.295   .     A
C89    C91     1.465   .     S
C89    O120    1.297   .     A
C90    C665    1.404   1_554 S
C90    H698    1.084   1_554 S
C92    H106    1.083   .     S
C92    C93     1.386   .     A
C93    C688    1.389   .     S
C93    H702    1.083   .     S
C94    H107    1.074   .     S
C94    C687    1.389   1_554 S
C94    C662    1.414   1_554 S
Cu95   O115    1.959   .     S
Cu95   Cu96    2.682   .     S
Cu95   O113    1.959   .     S
Cu95   O117    1.963   .     S
Cu95   N111    2.015   .     S
Cu95   O119    1.950   .     S
Cu96   O120    1.959   .     S
Cu96   O114    1.963   .     S
Cu96   O116    1.950   .     S
Cu96   O118    1.959   .     S
Cu96   N112    2.015   .     S
H104   C684    1.084   .     S
H108   C687    1.083   1_554 S
N121   H122    1.032   .     S
N121   C123    1.448   .     S
C123   H125    1.111   .     S
C123   H126    1.110   .     S
C123   H520    1.111   1_545 S
H124   C321    1.111   .     S
N127   H128    1.030   .     S
N127   C129    1.447   .     S
C129   H131    1.110   .     S
C129   H130    1.111   .     S
C129   H132    1.107   .     S
C133   O180    1.292   .     A
C133   C149    1.445   .     S
C133   O179    1.290   .     A
C134   C135    1.416   .     A
C134   C730    1.422   .     S
C134   C754    1.414   .     S
C135   C142    1.422   .     A
C135   C139    1.412   .     A
C136   C140    1.401   .     A
C136   C728    1.422   1_554 S
C136   C731    1.418   1_554 S
C137   C138    1.393   .     A
C137   C730    1.418   .     S
C137   C750    1.404   .     S
C138   C139    1.389   .     A
C138   H169    1.084   .     S
C139   H175    1.077   .     S
C140   H171    1.076   .     S
C140   C157    1.397   .     A
C141   C157    1.400   .     A
C141   C156    1.394   .     A
C141   H163    1.083   .     S
C142   C144    1.475   .     S
C142   C158    1.405   .     A
C143   H176    1.084   .     S
C143   C149    1.394   .     A
C143   C343    1.381   .     S
C144   O182    1.297   .     A
C144   O181    1.299   .     A
C145   H164    1.084   .     S
C145   C146    1.402   .     A
C145   C539    1.381   1_545 S
C146   C154    1.453   .     S
C146   C147    1.415   .     A
C147   N187    1.432   .     S
C147   C544    1.398   1_545 S
C148   H165    1.082   .     S
C148   C149    1.399   .     A
C148   C345    1.398   .     S
C150   N178    1.368   .     A
C150   H166    1.080   .     S
C150   C19     1.416   1_655 S
C151   N177    1.366   .     A
C151   H167    1.082   .     S
C152   N177    1.379   .     A
C152   N193    1.422   .     S
C153   N178    1.359   .     A
C153   H168    1.081   .     S
C153   C20     1.421   1_655 S
C154   O184    1.293   .     A
C154   O183    1.292   .     A
C155   O185    1.295   .     A
C155   C157    1.465   .     S
C155   O186    1.297   .     A
C156   C731    1.404   1_554 S
C156   H764    1.084   1_554 S
C158   H172    1.083   .     S
C158   C159    1.386   .     A
C159   C754    1.389   .     S
C159   H768    1.083   .     S
C160   H173    1.074   .     S
C160   C753    1.389   1_554 S
C160   C728    1.414   1_554 S
Cu161  O181    1.959   .     S
Cu161  Cu162   2.682   .     S
Cu161  O179    1.959   .     S
Cu161  O183    1.963   .     S
Cu161  N177    2.015   .     S
Cu161  O185    1.950   .     S
Cu162  O186    1.959   .     S
Cu162  O180    1.963   .     S
Cu162  O182    1.950   .     S
Cu162  O184    1.959   .     S
Cu162  N178    2.015   .     S
H170   C750    1.084   .     S
H174   C753    1.083   1_554 S
N187   H188    1.032   .     S
N187   C189    1.448   .     S
C189   H191    1.111   .     S
C189   H192    1.110   .     S
C189   H586    1.111   1_545 S
H190   C387    1.111   .     S
N193   H194    1.030   .     S
N193   C195    1.447   .     S
C195   H197    1.110   .     S
C195   H196    1.111   .     S
C195   H198    1.107   .     S
C199   O246    1.292   .     A
C199   C215    1.445   .     S
C199   O245    1.290   .     A
C200   C201    1.416   .     A
C200   C796    1.422   .     S
C200   C820    1.414   .     S
C201   C208    1.422   .     A
C201   C205    1.412   .     A
C202   C206    1.401   .     A
C202   C794    1.422   1_554 S
C202   C797    1.418   1_554 S
C203   C204    1.393   .     A
C203   C796    1.418   .     S
C203   C816    1.404   .     S
C204   C205    1.389   .     A
C204   H235    1.084   .     S
C205   H241    1.077   .     S
C206   H237    1.076   .     S
C206   C223    1.397   .     A
C207   C223    1.400   .     A
C207   C222    1.394   .     A
C207   H229    1.083   .     S
C208   C210    1.475   .     S
C208   C224    1.405   .     A
C209   H242    1.084   .     S
C209   C215    1.394   .     A
C209   C409    1.381   .     S
C210   O248    1.297   .     A
C210   O247    1.299   .     A
C211   H230    1.084   .     S
C211   C212    1.402   .     A
C212   C220    1.453   .     S
C212   C213    1.415   .     A
C213   N253    1.432   .     S
C214   H231    1.082   .     S
C214   C215    1.399   .     A
C214   C411    1.398   .     S
C216   N244    1.368   .     A
C216   H232    1.080   .     S
C216   C283    1.416   .     S
C217   N243    1.366   .     A
C217   H233    1.082   .     S
C217   C348    1.416   1_455 S
C218   N243    1.379   .     A
C218   N259    1.422   .     S
C218   C351    1.421   1_455 S
C219   N244    1.359   .     A
C219   H234    1.081   .     S
C219   C284    1.421   .     S
C220   O250    1.293   .     A
C220   O249    1.292   .     A
C221   O251    1.295   .     A
C221   C223    1.465   .     S
C221   O252    1.297   .     A
C222   C797    1.404   1_554 S
C222   H830    1.084   1_554 S
C224   H238    1.083   .     S
C224   C225    1.386   .     A
C225   C820    1.389   .     S
C225   H834    1.083   .     S
C226   H239    1.074   .     S
C226   C819    1.389   1_554 S
C226   C794    1.414   1_554 S
Cu227  O247    1.959   .     S
Cu227  Cu228   2.682   .     S
Cu227  O245    1.959   .     S
Cu227  O249    1.963   .     S
Cu227  N243    2.015   .     S
Cu227  O251    1.950   .     S
Cu228  O252    1.959   .     S
Cu228  O246    1.963   .     S
Cu228  O248    1.950   .     S
Cu228  O250    1.959   .     S
Cu228  N244    2.015   .     S
H236   C816    1.084   .     S
H240   C819    1.083   1_554 S
N253   H254    1.032   .     S
N253   C255    1.448   .     S
C255   H257    1.111   .     S
C255   H258    1.110   .     S
H256   C453    1.111   .     S
N259   H260    1.030   .     S
N259   C261    1.447   .     S
C261   H263    1.110   .     S
C261   H262    1.111   .     S
C261   H264    1.107   .     S
C265   O312    1.292   .     A
C265   C281    1.445   .     S
C265   O311    1.290   .     A
C266   C267    1.416   .     A
C266   C862    1.422   .     S
C266   C886    1.414   .     S
C267   C274    1.422   .     A
C267   C271    1.412   .     A
C268   C272    1.401   .     A
C268   C860    1.422   1_554 S
C268   C863    1.418   1_554 S
C269   C270    1.393   .     A
C269   C862    1.418   .     S
C269   C882    1.404   .     S
C270   C271    1.389   .     A
C270   H301    1.084   .     S
C271   H307    1.077   .     S
C272   H303    1.076   .     S
C272   C289    1.397   .     A
C273   C289    1.400   .     A
C273   C288    1.394   .     A
C273   H295    1.083   .     S
C274   C276    1.475   .     S
C274   C290    1.405   .     A
C275   H308    1.084   .     S
C275   C281    1.394   .     A
C275   C475    1.381   .     S
C276   O314    1.297   .     A
C276   O313    1.299   .     A
C277   H296    1.084   .     S
C277   C278    1.402   .     A
C278   C286    1.453   .     S
C278   C279    1.415   .     A
C279   N319    1.432   .     S
C280   H297    1.082   .     S
C280   C281    1.399   .     A
C280   C477    1.398   .     S
C282   N310    1.368   .     A
C282   H298    1.080   .     S
C282   C349    1.416   .     S
C283   N309    1.366   .     A
C283   H299    1.082   .     S
C284   N309    1.379   .     A
C284   N325    1.422   .     S
C285   N310    1.359   .     A
C285   H300    1.081   .     S
C285   C350    1.421   .     S
C286   O316    1.293   .     A
C286   O315    1.292   .     A
C287   O317    1.295   .     A
C287   C289    1.465   .     S
C287   O318    1.297   .     A
C288   C863    1.404   1_554 S
C288   H896    1.084   1_554 S
C290   H304    1.083   .     S
C290   C291    1.386   .     A
C291   C886    1.389   .     S
C291   H900    1.083   .     S
C292   H305    1.074   .     S
C292   C885    1.389   1_554 S
C292   C860    1.414   1_554 S
Cu293  O313    1.959   .     S
Cu293  Cu294   2.682   .     S
Cu293  O311    1.959   .     S
Cu293  O315    1.963   .     S
Cu293  N309    2.015   .     S
Cu293  O317    1.950   .     S
Cu294  O318    1.959   .     S
Cu294  O312    1.963   .     S
Cu294  O314    1.950   .     S
Cu294  O316    1.959   .     S
Cu294  N310    2.015   .     S
H302   C882    1.084   .     S
H306   C885    1.083   1_554 S
N319   H320    1.032   .     S
N319   C321    1.448   .     S
C321   H323    1.111   .     S
C321   H324    1.110   .     S
H322   C519    1.111   .     S
N325   H326    1.030   .     S
N325   C327    1.447   .     S
C327   H329    1.110   .     S
C327   H328    1.111   .     S
C327   H330    1.107   .     S
C331   O378    1.292   .     A
C331   C347    1.445   .     S
C331   O377    1.290   .     A
C332   C333    1.416   .     A
C332   C928    1.422   .     S
C332   C952    1.414   .     S
C333   C340    1.422   .     A
C333   C337    1.412   .     A
C334   C338    1.401   .     A
C334   C926    1.422   1_554 S
C334   C929    1.418   1_554 S
C335   C336    1.393   .     A
C335   C928    1.418   .     S
C335   C948    1.404   .     S
C336   C337    1.389   .     A
C336   H367    1.084   .     S
C337   H373    1.077   .     S
C338   H369    1.076   .     S
C338   C355    1.397   .     A
C339   C355    1.400   .     A
C339   C354    1.394   .     A
C339   H361    1.083   .     S
C340   C342    1.475   .     S
C340   C356    1.405   .     A
C341   H374    1.084   .     S
C341   C347    1.394   .     A
C341   C541    1.381   .     S
C342   O380    1.297   .     A
C342   O379    1.299   .     A
C343   H362    1.084   .     S
C343   C344    1.402   .     A
C344   C352    1.453   .     S
C344   C345    1.415   .     A
C345   N385    1.432   .     S
C346   H363    1.082   .     S
C346   C347    1.399   .     A
C346   C543    1.398   .     S
C348   N376    1.368   .     A
C348   H364    1.080   .     S
C348   C217    1.416   1_655 S
C349   N375    1.366   .     A
C349   H365    1.082   .     S
C350   N375    1.379   .     A
C350   N391    1.422   .     S
C351   N376    1.359   .     A
C351   H366    1.081   .     S
C351   C218    1.421   1_655 S
C352   O382    1.293   .     A
C352   O381    1.292   .     A
C353   O383    1.295   .     A
C353   C355    1.465   .     S
C353   O384    1.297   .     A
C354   C929    1.404   1_554 S
C354   H962    1.084   1_554 S
C356   H370    1.083   .     S
C356   C357    1.386   .     A
C357   C952    1.389   .     S
C357   H966    1.083   .     S
C358   H371    1.074   .     S
C358   C951    1.389   1_554 S
C358   C926    1.414   1_554 S
Cu359  O379    1.959   .     S
Cu359  Cu360   2.682   .     S
Cu359  O377    1.959   .     S
Cu359  O381    1.963   .     S
Cu359  N375    2.015   .     S
Cu359  O383    1.950   .     S
Cu360  O384    1.959   .     S
Cu360  O378    1.963   .     S
Cu360  O380    1.950   .     S
Cu360  O382    1.959   .     S
Cu360  N376    2.015   .     S
H368   C948    1.084   .     S
H372   C951    1.083   1_554 S
N385   H386    1.032   .     S
N385   C387    1.448   .     S
C387   H389    1.111   .     S
C387   H390    1.110   .     S
H388   C585    1.111   .     S
N391   H392    1.030   .     S
N391   C393    1.447   .     S
C393   H395    1.110   .     S
C393   H394    1.111   .     S
C393   H396    1.107   .     S
C397   O444    1.292   .     A
C397   C413    1.445   .     S
C397   O443    1.290   .     A
C398   C399    1.416   .     A
C398   C994    1.422   .     S
C398   C1018   1.414   .     S
C399   C406    1.422   .     A
C399   C403    1.412   .     A
C400   C404    1.401   .     A
C400   C992    1.422   1_554 S
C400   C995    1.418   1_554 S
C401   C402    1.393   .     A
C401   C994    1.418   .     S
C401   C1014   1.404   .     S
C402   C403    1.389   .     A
C402   H433    1.084   .     S
C403   H439    1.077   .     S
C404   H435    1.076   .     S
C404   C421    1.397   .     A
C405   C421    1.400   .     A
C405   C420    1.394   .     A
C405   H427    1.083   .     S
C406   C408    1.475   .     S
C406   C422    1.405   .     A
C407   H440    1.084   .     S
C407   C413    1.394   .     A
C407   C13     1.381   1_565 S
C408   O446    1.297   .     A
C408   O445    1.299   .     A
C409   H428    1.084   .     S
C409   C410    1.402   .     A
C410   C418    1.453   .     S
C410   C411    1.415   .     A
C411   N451    1.432   .     S
C412   H429    1.082   .     S
C412   C413    1.399   .     A
C412   C15     1.398   1_565 S
C414   N442    1.368   .     A
C414   H430    1.080   .     S
C414   C481    1.416   .     S
C415   N441    1.366   .     A
C415   H431    1.082   .     S
C415   C546    1.416   1_455 S
C416   N441    1.379   .     A
C416   N457    1.422   .     S
C416   C549    1.421   1_455 S
C417   N442    1.359   .     A
C417   H432    1.081   .     S
C417   C482    1.421   .     S
C418   O448    1.293   .     A
C418   O447    1.292   .     A
C419   O449    1.295   .     A
C419   C421    1.465   .     S
C419   O450    1.297   .     A
C420   C995    1.404   1_554 S
C420   H1028   1.084   1_554 S
C422   H436    1.083   .     S
C422   C423    1.386   .     A
C423   C1018   1.389   .     S
C423   H1032   1.083   .     S
C424   H437    1.074   .     S
C424   C1017   1.389   1_554 S
C424   C992    1.414   1_554 S
Cu425  O445    1.959   .     S
Cu425  Cu426   2.682   .     S
Cu425  O443    1.959   .     S
Cu425  O447    1.963   .     S
Cu425  N441    2.015   .     S
Cu425  O449    1.950   .     S
Cu426  O450    1.959   .     S
Cu426  O444    1.963   .     S
Cu426  O446    1.950   .     S
Cu426  O448    1.959   .     S
Cu426  N442    2.015   .     S
H434   C1014   1.084   .     S
H438   C1017   1.083   1_554 S
N451   H452    1.032   .     S
N451   C453    1.448   .     S
C453   H455    1.111   .     S
C453   H456    1.110   .     S
H454   C57     1.111   1_565 S
N457   H458    1.030   .     S
N457   C459    1.447   .     S
C459   H461    1.110   .     S
C459   H460    1.111   .     S
C459   H462    1.107   .     S
C463   O510    1.292   .     A
C463   C479    1.445   .     S
C463   O509    1.290   .     A
C464   C465    1.416   .     A
C464   C1060   1.422   .     S
C464   C1084   1.414   .     S
C465   C472    1.422   .     A
C465   C469    1.412   .     A
C466   C470    1.401   .     A
C466   C1058   1.422   1_554 S
C466   C1061   1.418   1_554 S
C467   C468    1.393   .     A
C467   C1060   1.418   .     S
C467   C1080   1.404   .     S
C468   C469    1.389   .     A
C468   H499    1.084   .     S
C469   H505    1.077   .     S
C470   H501    1.076   .     S
C470   C487    1.397   .     A
C471   C487    1.400   .     A
C471   C486    1.394   .     A
C471   H493    1.083   .     S
C472   C474    1.475   .     S
C472   C488    1.405   .     A
C473   H506    1.084   .     S
C473   C479    1.394   .     A
C473   C79     1.381   1_565 S
C474   O512    1.297   .     A
C474   O511    1.299   .     A
C475   H494    1.084   .     S
C475   C476    1.402   .     A
C476   C484    1.453   .     S
C476   C477    1.415   .     A
C477   N517    1.432   .     S
C478   H495    1.082   .     S
C478   C479    1.399   .     A
C478   C81     1.398   1_565 S
C480   N508    1.368   .     A
C480   H496    1.080   .     S
C480   C547    1.416   .     S
C481   N507    1.366   .     A
C481   H497    1.082   .     S
C482   N507    1.379   .     A
C482   N523    1.422   .     S
C483   N508    1.359   .     A
C483   H498    1.081   .     S
C483   C548    1.421   .     S
C484   O514    1.293   .     A
C484   O513    1.292   .     A
C485   O515    1.295   .     A
C485   C487    1.465   .     S
C485   O516    1.297   .     A
C486   C1061   1.404   1_554 S
C486   H1094   1.084   1_554 S
C488   H502    1.083   .     S
C488   C489    1.386   .     A
C489   C1084   1.389   .     S
C489   H1098   1.083   .     S
C490   H503    1.074   .     S
C490   C1083   1.389   1_554 S
C490   C1058   1.414   1_554 S
Cu491  O511    1.959   .     S
Cu491  Cu492   2.682   .     S
Cu491  O509    1.959   .     S
Cu491  O513    1.963   .     S
Cu491  N507    2.015   .     S
Cu491  O515    1.950   .     S
Cu492  O516    1.959   .     S
Cu492  O510    1.963   .     S
Cu492  O512    1.950   .     S
Cu492  O514    1.959   .     S
Cu492  N508    2.015   .     S
H500   C1080   1.084   .     S
H504   C1083   1.083   1_554 S
N517   H518    1.032   .     S
N517   C519    1.448   .     S
C519   H521    1.111   .     S
C519   H522    1.110   .     S
H520   C123    1.111   1_565 S
N523   H524    1.030   .     S
N523   C525    1.447   .     S
C525   H527    1.110   .     S
C525   H526    1.111   .     S
C525   H528    1.107   .     S
C529   O576    1.292   .     A
C529   C545    1.445   .     S
C529   O575    1.290   .     A
C530   C531    1.416   .     A
C530   C1126   1.422   .     S
C530   C1150   1.414   .     S
C531   C538    1.422   .     A
C531   C535    1.412   .     A
C532   C536    1.401   .     A
C532   C1124   1.422   1_554 S
C532   C1127   1.418   1_554 S
C533   C534    1.393   .     A
C533   C1126   1.418   .     S
C533   C1146   1.404   .     S
C534   C535    1.389   .     A
C534   H565    1.084   .     S
C535   H571    1.077   .     S
C536   H567    1.076   .     S
C536   C553    1.397   .     A
C537   C553    1.400   .     A
C537   C552    1.394   .     A
C537   H559    1.083   .     S
C538   C540    1.475   .     S
C538   C554    1.405   .     A
C539   H572    1.084   .     S
C539   C545    1.394   .     A
C539   C145    1.381   1_565 S
C540   O578    1.297   .     A
C540   O577    1.299   .     A
C541   H560    1.084   .     S
C541   C542    1.402   .     A
C542   C550    1.453   .     S
C542   C543    1.415   .     A
C543   N583    1.432   .     S
C544   H561    1.082   .     S
C544   C545    1.399   .     A
C544   C147    1.398   1_565 S
C546   N574    1.368   .     A
C546   H562    1.080   .     S
C546   C415    1.416   1_655 S
C547   N573    1.366   .     A
C547   H563    1.082   .     S
C548   N573    1.379   .     A
C548   N589    1.422   .     S
C549   N574    1.359   .     A
C549   H564    1.081   .     S
C549   C416    1.421   1_655 S
C550   O580    1.293   .     A
C550   O579    1.292   .     A
C551   O581    1.295   .     A
C551   C553    1.465   .     S
C551   O582    1.297   .     A
C552   C1127   1.404   1_554 S
C552   H1160   1.084   1_554 S
C554   H568    1.083   .     S
C554   C555    1.386   .     A
C555   C1150   1.389   .     S
C555   H1164   1.083   .     S
C556   H569    1.074   .     S
C556   C1149   1.389   1_554 S
C556   C1124   1.414   1_554 S
Cu557  O577    1.959   .     S
Cu557  Cu558   2.682   .     S
Cu557  O575    1.959   .     S
Cu557  O579    1.963   .     S
Cu557  N573    2.015   .     S
Cu557  O581    1.950   .     S
Cu558  O582    1.959   .     S
Cu558  O576    1.963   .     S
Cu558  O578    1.950   .     S
Cu558  O580    1.959   .     S
Cu558  N574    2.015   .     S
H566   C1146   1.084   .     S
H570   C1149   1.083   1_554 S
N583   H584    1.032   .     S
N583   C585    1.448   .     S
C585   H587    1.111   .     S
C585   H588    1.110   .     S
H586   C189    1.111   1_565 S
N589   H590    1.030   .     S
N589   C591    1.447   .     S
C591   H593    1.110   .     S
C591   H592    1.111   .     S
C591   H594    1.107   .     S
C595   O642    1.292   .     A
C595   C611    1.445   .     S
C595   O641    1.290   .     A
C596   C597    1.416   .     A
C596   C4      1.422   1_556 S
C596   C28     1.414   1_556 S
C597   C604    1.422   .     A
C597   C601    1.412   .     A
C598   C602    1.401   .     A
C599   C600    1.393   .     A
C599   C4      1.418   1_556 S
C599   C24     1.404   1_556 S
C600   C601    1.389   .     A
C600   H631    1.084   .     S
C601   H637    1.077   .     S
C602   H633    1.076   .     S
C602   C619    1.397   .     A
C603   C619    1.400   .     A
C603   C618    1.394   .     A
C603   H625    1.083   .     S
C604   C606    1.475   .     S
C604   C620    1.405   .     A
C605   H638    1.084   .     S
C605   C611    1.394   .     A
C605   C805    1.381   .     S
C606   O644    1.297   .     A
C606   O643    1.299   .     A
C607   H626    1.084   .     S
C607   C608    1.402   .     A
C607   C1001   1.381   1_545 S
C608   C616    1.453   .     S
C608   C609    1.415   .     A
C609   N649    1.432   .     S
C609   C1006   1.398   1_545 S
C610   H627    1.082   .     S
C610   C611    1.399   .     A
C610   C807    1.398   .     S
C612   N640    1.368   .     A
C612   H628    1.080   .     S
C612   C679    1.416   .     S
C613   N639    1.366   .     A
C613   H629    1.082   .     S
C613   C744    1.416   1_455 S
C614   N639    1.379   .     A
C614   N655    1.422   .     S
C614   C747    1.421   1_455 S
C615   N640    1.359   .     A
C615   H630    1.081   .     S
C615   C680    1.421   .     S
C616   O646    1.293   .     A
C616   O645    1.292   .     A
C617   O647    1.295   .     A
C617   C619    1.465   .     S
C617   O648    1.297   .     A
C620   H634    1.083   .     S
C620   C621    1.386   .     A
C621   C28     1.389   1_556 S
C621   H42     1.083   1_556 S
C622   H635    1.074   .     S
Cu623  O643    1.959   .     S
Cu623  Cu624   2.682   .     S
Cu623  O641    1.959   .     S
Cu623  O645    1.963   .     S
Cu623  N639    2.015   .     S
Cu623  O647    1.950   .     S
Cu624  O648    1.959   .     S
Cu624  O642    1.963   .     S
Cu624  O644    1.950   .     S
Cu624  O646    1.959   .     S
Cu624  N640    2.015   .     S
H632   C24     1.084   1_556 S
N649   H650    1.032   .     S
N649   C651    1.448   .     S
C651   H653    1.111   .     S
C651   H654    1.110   .     S
C651   H1048   1.111   1_545 S
H652   C849    1.111   .     S
N655   H656    1.030   .     S
N655   C657    1.447   .     S
C657   H659    1.110   .     S
C657   H658    1.111   .     S
C657   H660    1.107   .     S
C661   O708    1.292   .     A
C661   C677    1.445   .     S
C661   O707    1.290   .     A
C662   C663    1.416   .     A
C662   C70     1.422   1_556 S
C662   C94     1.414   1_556 S
C663   C670    1.422   .     A
C663   C667    1.412   .     A
C664   C668    1.401   .     A
C665   C666    1.393   .     A
C665   C70     1.418   1_556 S
C665   C90     1.404   1_556 S
C666   C667    1.389   .     A
C666   H697    1.084   .     S
C667   H703    1.077   .     S
C668   H699    1.076   .     S
C668   C685    1.397   .     A
C669   C685    1.400   .     A
C669   C684    1.394   .     A
C669   H691    1.083   .     S
C670   C672    1.475   .     S
C670   C686    1.405   .     A
C671   H704    1.084   .     S
C671   C677    1.394   .     A
C671   C871    1.381   .     S
C672   O710    1.297   .     A
C672   O709    1.299   .     A
C673   H692    1.084   .     S
C673   C674    1.402   .     A
C673   C1067   1.381   1_545 S
C674   C682    1.453   .     S
C674   C675    1.415   .     A
C675   N715    1.432   .     S
C675   C1072   1.398   1_545 S
C676   H693    1.082   .     S
C676   C677    1.399   .     A
C676   C873    1.398   .     S
C678   N706    1.368   .     A
C678   H694    1.080   .     S
C678   C745    1.416   .     S
C679   N705    1.366   .     A
C679   H695    1.082   .     S
C680   N705    1.379   .     A
C680   N721    1.422   .     S
C681   N706    1.359   .     A
C681   H696    1.081   .     S
C681   C746    1.421   .     S
C682   O712    1.293   .     A
C682   O711    1.292   .     A
C683   O713    1.295   .     A
C683   C685    1.465   .     S
C683   O714    1.297   .     A
C686   H700    1.083   .     S
C686   C687    1.386   .     A
C687   C94     1.389   1_556 S
C687   H108    1.083   1_556 S
C688   H701    1.074   .     S
Cu689  O709    1.959   .     S
Cu689  Cu690   2.682   .     S
Cu689  O707    1.959   .     S
Cu689  O711    1.963   .     S
Cu689  N705    2.015   .     S
Cu689  O713    1.950   .     S
Cu690  O714    1.959   .     S
Cu690  O708    1.963   .     S
Cu690  O710    1.950   .     S
Cu690  O712    1.959   .     S
Cu690  N706    2.015   .     S
H698   C90     1.084   1_556 S
N715   H716    1.032   .     S
N715   C717    1.448   .     S
C717   H719    1.111   .     S
C717   H720    1.110   .     S
C717   H1114   1.111   1_545 S
H718   C915    1.111   .     S
N721   H722    1.030   .     S
N721   C723    1.447   .     S
C723   H725    1.110   .     S
C723   H724    1.111   .     S
C723   H726    1.107   .     S
C727   O774    1.292   .     A
C727   C743    1.445   .     S
C727   O773    1.290   .     A
C728   C729    1.416   .     A
C728   C136    1.422   1_556 S
C728   C160    1.414   1_556 S
C729   C736    1.422   .     A
C729   C733    1.412   .     A
C730   C734    1.401   .     A
C731   C732    1.393   .     A
C731   C136    1.418   1_556 S
C731   C156    1.404   1_556 S
C732   C733    1.389   .     A
C732   H763    1.084   .     S
C733   H769    1.077   .     S
C734   H765    1.076   .     S
C734   C751    1.397   .     A
C735   C751    1.400   .     A
C735   C750    1.394   .     A
C735   H757    1.083   .     S
C736   C738    1.475   .     S
C736   C752    1.405   .     A
C737   H770    1.084   .     S
C737   C743    1.394   .     A
C737   C937    1.381   .     S
C738   O776    1.297   .     A
C738   O775    1.299   .     A
C739   H758    1.084   .     S
C739   C740    1.402   .     A
C739   C1133   1.381   1_545 S
C740   C748    1.453   .     S
C740   C741    1.415   .     A
C741   N781    1.432   .     S
C741   C1138   1.398   1_545 S
C742   H759    1.082   .     S
C742   C743    1.399   .     A
C742   C939    1.398   .     S
C744   N772    1.368   .     A
C744   H760    1.080   .     S
C744   C613    1.416   1_655 S
C745   N771    1.366   .     A
C745   H761    1.082   .     S
C746   N771    1.379   .     A
C746   N787    1.422   .     S
C747   N772    1.359   .     A
C747   H762    1.081   .     S
C747   C614    1.421   1_655 S
C748   O778    1.293   .     A
C748   O777    1.292   .     A
C749   O779    1.295   .     A
C749   C751    1.465   .     S
C749   O780    1.297   .     A
C752   H766    1.083   .     S
C752   C753    1.386   .     A
C753   C160    1.389   1_556 S
C753   H174    1.083   1_556 S
C754   H767    1.074   .     S
Cu755  O775    1.959   .     S
Cu755  Cu756   2.682   .     S
Cu755  O773    1.959   .     S
Cu755  O777    1.963   .     S
Cu755  N771    2.015   .     S
Cu755  O779    1.950   .     S
Cu756  O780    1.959   .     S
Cu756  O774    1.963   .     S
Cu756  O776    1.950   .     S
Cu756  O778    1.959   .     S
Cu756  N772    2.015   .     S
H764   C156    1.084   1_556 S
N781   H782    1.032   .     S
N781   C783    1.448   .     S
C783   H785    1.111   .     S
C783   H786    1.110   .     S
C783   H1180   1.111   1_545 S
H784   C981    1.111   .     S
N787   H788    1.030   .     S
N787   C789    1.447   .     S
C789   H791    1.110   .     S
C789   H790    1.111   .     S
C789   H792    1.107   .     S
C793   O840    1.292   .     A
C793   C809    1.445   .     S
C793   O839    1.290   .     A
C794   C795    1.416   .     A
C794   C202    1.422   1_556 S
C794   C226    1.414   1_556 S
C795   C802    1.422   .     A
C795   C799    1.412   .     A
C796   C800    1.401   .     A
C797   C798    1.393   .     A
C797   C202    1.418   1_556 S
C797   C222    1.404   1_556 S
C798   C799    1.389   .     A
C798   H829    1.084   .     S
C799   H835    1.077   .     S
C800   H831    1.076   .     S
C800   C817    1.397   .     A
C801   C817    1.400   .     A
C801   C816    1.394   .     A
C801   H823    1.083   .     S
C802   C804    1.475   .     S
C802   C818    1.405   .     A
C803   H836    1.084   .     S
C803   C809    1.394   .     A
C803   C1003   1.381   .     S
C804   O842    1.297   .     A
C804   O841    1.299   .     A
C805   H824    1.084   .     S
C805   C806    1.402   .     A
C806   C814    1.453   .     S
C806   C807    1.415   .     A
C807   N847    1.432   .     S
C808   H825    1.082   .     S
C808   C809    1.399   .     A
C808   C1005   1.398   .     S
C810   N838    1.368   .     A
C810   H826    1.080   .     S
C810   C877    1.416   .     S
C811   N837    1.366   .     A
C811   H827    1.082   .     S
C811   C942    1.416   1_455 S
C812   N837    1.379   .     A
C812   N853    1.422   .     S
C812   C945    1.421   1_455 S
C813   N838    1.359   .     A
C813   H828    1.081   .     S
C813   C878    1.421   .     S
C814   O844    1.293   .     A
C814   O843    1.292   .     A
C815   O845    1.295   .     A
C815   C817    1.465   .     S
C815   O846    1.297   .     A
C818   H832    1.083   .     S
C818   C819    1.386   .     A
C819   C226    1.389   1_556 S
C819   H240    1.083   1_556 S
C820   H833    1.074   .     S
Cu821  O841    1.959   .     S
Cu821  Cu822   2.682   .     S
Cu821  O839    1.959   .     S
Cu821  O843    1.963   .     S
Cu821  N837    2.015   .     S
Cu821  O845    1.950   .     S
Cu822  O846    1.959   .     S
Cu822  O840    1.963   .     S
Cu822  O842    1.950   .     S
Cu822  O844    1.959   .     S
Cu822  N838    2.015   .     S
H830   C222    1.084   1_556 S
N847   H848    1.032   .     S
N847   C849    1.448   .     S
C849   H851    1.111   .     S
C849   H852    1.110   .     S
H850   C1047   1.111   .     S
N853   H854    1.030   .     S
N853   C855    1.447   .     S
C855   H857    1.110   .     S
C855   H856    1.111   .     S
C855   H858    1.107   .     S
C859   O906    1.292   .     A
C859   C875    1.445   .     S
C859   O905    1.290   .     A
C860   C861    1.416   .     A
C860   C268    1.422   1_556 S
C860   C292    1.414   1_556 S
C861   C868    1.422   .     A
C861   C865    1.412   .     A
C862   C866    1.401   .     A
C863   C864    1.393   .     A
C863   C268    1.418   1_556 S
C863   C288    1.404   1_556 S
C864   C865    1.389   .     A
C864   H895    1.084   .     S
C865   H901    1.077   .     S
C866   H897    1.076   .     S
C866   C883    1.397   .     A
C867   C883    1.400   .     A
C867   C882    1.394   .     A
C867   H889    1.083   .     S
C868   C870    1.475   .     S
C868   C884    1.405   .     A
C869   H902    1.084   .     S
C869   C875    1.394   .     A
C869   C1069   1.381   .     S
C870   O908    1.297   .     A
C870   O907    1.299   .     A
C871   H890    1.084   .     S
C871   C872    1.402   .     A
C872   C880    1.453   .     S
C872   C873    1.415   .     A
C873   N913    1.432   .     S
C874   H891    1.082   .     S
C874   C875    1.399   .     A
C874   C1071   1.398   .     S
C876   N904    1.368   .     A
C876   H892    1.080   .     S
C876   C943    1.416   .     S
C877   N903    1.366   .     A
C877   H893    1.082   .     S
C878   N903    1.379   .     A
C878   N919    1.422   .     S
C879   N904    1.359   .     A
C879   H894    1.081   .     S
C879   C944    1.421   .     S
C880   O910    1.293   .     A
C880   O909    1.292   .     A
C881   O911    1.295   .     A
C881   C883    1.465   .     S
C881   O912    1.297   .     A
C884   H898    1.083   .     S
C884   C885    1.386   .     A
C885   C292    1.389   1_556 S
C885   H306    1.083   1_556 S
C886   H899    1.074   .     S
Cu887  O907    1.959   .     S
Cu887  Cu888   2.682   .     S
Cu887  O905    1.959   .     S
Cu887  O909    1.963   .     S
Cu887  N903    2.015   .     S
Cu887  O911    1.950   .     S
Cu888  O912    1.959   .     S
Cu888  O906    1.963   .     S
Cu888  O908    1.950   .     S
Cu888  O910    1.959   .     S
Cu888  N904    2.015   .     S
H896   C288    1.084   1_556 S
N913   H914    1.032   .     S
N913   C915    1.448   .     S
C915   H917    1.111   .     S
C915   H918    1.110   .     S
H916   C1113   1.111   .     S
N919   H920    1.030   .     S
N919   C921    1.447   .     S
C921   H923    1.110   .     S
C921   H922    1.111   .     S
C921   H924    1.107   .     S
C925   O972    1.292   .     A
C925   C941    1.445   .     S
C925   O971    1.290   .     A
C926   C927    1.416   .     A
C926   C334    1.422   1_556 S
C926   C358    1.414   1_556 S
C927   C934    1.422   .     A
C927   C931    1.412   .     A
C928   C932    1.401   .     A
C929   C930    1.393   .     A
C929   C334    1.418   1_556 S
C929   C354    1.404   1_556 S
C930   C931    1.389   .     A
C930   H961    1.084   .     S
C931   H967    1.077   .     S
C932   H963    1.076   .     S
C932   C949    1.397   .     A
C933   C949    1.400   .     A
C933   C948    1.394   .     A
C933   H955    1.083   .     S
C934   C936    1.475   .     S
C934   C950    1.405   .     A
C935   H968    1.084   .     S
C935   C941    1.394   .     A
C935   C1135   1.381   .     S
C936   O974    1.297   .     A
C936   O973    1.299   .     A
C937   H956    1.084   .     S
C937   C938    1.402   .     A
C938   C946    1.453   .     S
C938   C939    1.415   .     A
C939   N979    1.432   .     S
C940   H957    1.082   .     S
C940   C941    1.399   .     A
C940   C1137   1.398   .     S
C942   N970    1.368   .     A
C942   H958    1.080   .     S
C942   C811    1.416   1_655 S
C943   N969    1.366   .     A
C943   H959    1.082   .     S
C944   N969    1.379   .     A
C944   N985    1.422   .     S
C945   N970    1.359   .     A
C945   H960    1.081   .     S
C945   C812    1.421   1_655 S
C946   O976    1.293   .     A
C946   O975    1.292   .     A
C947   O977    1.295   .     A
C947   C949    1.465   .     S
C947   O978    1.297   .     A
C950   H964    1.083   .     S
C950   C951    1.386   .     A
C951   C358    1.389   1_556 S
C951   H372    1.083   1_556 S
C952   H965    1.074   .     S
Cu953  O973    1.959   .     S
Cu953  Cu954   2.682   .     S
Cu953  O971    1.959   .     S
Cu953  O975    1.963   .     S
Cu953  N969    2.015   .     S
Cu953  O977    1.950   .     S
Cu954  O978    1.959   .     S
Cu954  O972    1.963   .     S
Cu954  O974    1.950   .     S
Cu954  O976    1.959   .     S
Cu954  N970    2.015   .     S
H962   C354    1.084   1_556 S
N979   H980    1.032   .     S
N979   C981    1.448   .     S
C981   H983    1.111   .     S
C981   H984    1.110   .     S
H982   C1179   1.111   .     S
N985   H986    1.030   .     S
N985   C987    1.447   .     S
C987   H989    1.110   .     S
C987   H988    1.111   .     S
C987   H990    1.107   .     S
C991   O1038   1.292   .     A
C991   C1007   1.445   .     S
C991   O1037   1.290   .     A
C992   C993    1.416   .     A
C992   C400    1.422   1_556 S
C992   C424    1.414   1_556 S
C993   C1000   1.422   .     A
C993   C997    1.412   .     A
C994   C998    1.401   .     A
C995   C996    1.393   .     A
C995   C400    1.418   1_556 S
C995   C420    1.404   1_556 S
C996   C997    1.389   .     A
C996   H1027   1.084   .     S
C997   H1033   1.077   .     S
C998   H1029   1.076   .     S
C998   C1015   1.397   .     A
C999   C1015   1.400   .     A
C999   C1014   1.394   .     A
C999   H1021   1.083   .     S
C1000  C1002   1.475   .     S
C1000  C1016   1.405   .     A
C1001  H1034   1.084   .     S
C1001  C1007   1.394   .     A
C1001  C607    1.381   1_565 S
C1002  O1040   1.297   .     A
C1002  O1039   1.299   .     A
C1003  H1022   1.084   .     S
C1003  C1004   1.402   .     A
C1004  C1012   1.453   .     S
C1004  C1005   1.415   .     A
C1005  N1045   1.432   .     S
C1006  H1023   1.082   .     S
C1006  C1007   1.399   .     A
C1006  C609    1.398   1_565 S
C1008  N1036   1.368   .     A
C1008  H1024   1.080   .     S
C1008  C1075   1.416   .     S
C1009  N1035   1.366   .     A
C1009  H1025   1.082   .     S
C1009  C1140   1.416   1_455 S
C1010  N1035   1.379   .     A
C1010  N1051   1.422   .     S
C1010  C1143   1.421   1_455 S
C1011  N1036   1.359   .     A
C1011  H1026   1.081   .     S
C1011  C1076   1.421   .     S
C1012  O1042   1.293   .     A
C1012  O1041   1.292   .     A
C1013  O1043   1.295   .     A
C1013  C1015   1.465   .     S
C1013  O1044   1.297   .     A
C1016  H1030   1.083   .     S
C1016  C1017   1.386   .     A
C1017  C424    1.389   1_556 S
C1017  H438    1.083   1_556 S
C1018  H1031   1.074   .     S
Cu1019 O1039   1.959   .     S
Cu1019 Cu1020  2.682   .     S
Cu1019 O1037   1.959   .     S
Cu1019 O1041   1.963   .     S
Cu1019 N1035   2.015   .     S
Cu1019 O1043   1.950   .     S
Cu1020 O1044   1.959   .     S
Cu1020 O1038   1.963   .     S
Cu1020 O1040   1.950   .     S
Cu1020 O1042   1.959   .     S
Cu1020 N1036   2.015   .     S
H1028  C420    1.084   1_556 S
N1045  H1046   1.032   .     S
N1045  C1047   1.448   .     S
C1047  H1049   1.111   .     S
C1047  H1050   1.110   .     S
H1048  C651    1.111   1_565 S
N1051  H1052   1.030   .     S
N1051  C1053   1.447   .     S
C1053  H1055   1.110   .     S
C1053  H1054   1.111   .     S
C1053  H1056   1.107   .     S
C1057  O1104   1.292   .     A
C1057  C1073   1.445   .     S
C1057  O1103   1.290   .     A
C1058  C1059   1.416   .     A
C1058  C466    1.422   1_556 S
C1058  C490    1.414   1_556 S
C1059  C1066   1.422   .     A
C1059  C1063   1.412   .     A
C1060  C1064   1.401   .     A
C1061  C1062   1.393   .     A
C1061  C466    1.418   1_556 S
C1061  C486    1.404   1_556 S
C1062  C1063   1.389   .     A
C1062  H1093   1.084   .     S
C1063  H1099   1.077   .     S
C1064  H1095   1.076   .     S
C1064  C1081   1.397   .     A
C1065  C1081   1.400   .     A
C1065  C1080   1.394   .     A
C1065  H1087   1.083   .     S
C1066  C1068   1.475   .     S
C1066  C1082   1.405   .     A
C1067  H1100   1.084   .     S
C1067  C1073   1.394   .     A
C1067  C673    1.381   1_565 S
C1068  O1106   1.297   .     A
C1068  O1105   1.299   .     A
C1069  H1088   1.084   .     S
C1069  C1070   1.402   .     A
C1070  C1078   1.453   .     S
C1070  C1071   1.415   .     A
C1071  N1111   1.432   .     S
C1072  H1089   1.082   .     S
C1072  C1073   1.399   .     A
C1072  C675    1.398   1_565 S
C1074  N1102   1.368   .     A
C1074  H1090   1.080   .     S
C1074  C1141   1.416   .     S
C1075  N1101   1.366   .     A
C1075  H1091   1.082   .     S
C1076  N1101   1.379   .     A
C1076  N1117   1.422   .     S
C1077  N1102   1.359   .     A
C1077  H1092   1.081   .     S
C1077  C1142   1.421   .     S
C1078  O1108   1.293   .     A
C1078  O1107   1.292   .     A
C1079  O1109   1.295   .     A
C1079  C1081   1.465   .     S
C1079  O1110   1.297   .     A
C1082  H1096   1.083   .     S
C1082  C1083   1.386   .     A
C1083  C490    1.389   1_556 S
C1083  H504    1.083   1_556 S
C1084  H1097   1.074   .     S
Cu1085 O1105   1.959   .     S
Cu1085 Cu1086  2.682   .     S
Cu1085 O1103   1.959   .     S
Cu1085 O1107   1.963   .     S
Cu1085 N1101   2.015   .     S
Cu1085 O1109   1.950   .     S
Cu1086 O1110   1.959   .     S
Cu1086 O1104   1.963   .     S
Cu1086 O1106   1.950   .     S
Cu1086 O1108   1.959   .     S
Cu1086 N1102   2.015   .     S
H1094  C486    1.084   1_556 S
N1111  H1112   1.032   .     S
N1111  C1113   1.448   .     S
C1113  H1115   1.111   .     S
C1113  H1116   1.110   .     S
H1114  C717    1.111   1_565 S
N1117  H1118   1.030   .     S
N1117  C1119   1.447   .     S
C1119  H1121   1.110   .     S
C1119  H1120   1.111   .     S
C1119  H1122   1.107   .     S
C1123  O1170   1.292   .     A
C1123  C1139   1.445   .     S
C1123  O1169   1.290   .     A
C1124  C1125   1.416   .     A
C1124  C532    1.422   1_556 S
C1124  C556    1.414   1_556 S
C1125  C1132   1.422   .     A
C1125  C1129   1.412   .     A
C1126  C1130   1.401   .     A
C1127  C1128   1.393   .     A
C1127  C532    1.418   1_556 S
C1127  C552    1.404   1_556 S
C1128  C1129   1.389   .     A
C1128  H1159   1.084   .     S
C1129  H1165   1.077   .     S
C1130  H1161   1.076   .     S
C1130  C1147   1.397   .     A
C1131  C1147   1.400   .     A
C1131  C1146   1.394   .     A
C1131  H1153   1.083   .     S
C1132  C1134   1.475   .     S
C1132  C1148   1.405   .     A
C1133  H1166   1.084   .     S
C1133  C1139   1.394   .     A
C1133  C739    1.381   1_565 S
C1134  O1172   1.297   .     A
C1134  O1171   1.299   .     A
C1135  H1154   1.084   .     S
C1135  C1136   1.402   .     A
C1136  C1144   1.453   .     S
C1136  C1137   1.415   .     A
C1137  N1177   1.432   .     S
C1138  H1155   1.082   .     S
C1138  C1139   1.399   .     A
C1138  C741    1.398   1_565 S
C1140  N1168   1.368   .     A
C1140  H1156   1.080   .     S
C1140  C1009   1.416   1_655 S
C1141  N1167   1.366   .     A
C1141  H1157   1.082   .     S
C1142  N1167   1.379   .     A
C1142  N1183   1.422   .     S
C1143  N1168   1.359   .     A
C1143  H1158   1.081   .     S
C1143  C1010   1.421   1_655 S
C1144  O1174   1.293   .     A
C1144  O1173   1.292   .     A
C1145  O1175   1.295   .     A
C1145  C1147   1.465   .     S
C1145  O1176   1.297   .     A
C1148  H1162   1.083   .     S
C1148  C1149   1.386   .     A
C1149  C556    1.389   1_556 S
C1149  H570    1.083   1_556 S
C1150  H1163   1.074   .     S
Cu1151 O1171   1.959   .     S
Cu1151 Cu1152  2.682   .     S
Cu1151 O1169   1.959   .     S
Cu1151 O1173   1.963   .     S
Cu1151 N1167   2.015   .     S
Cu1151 O1175   1.950   .     S
Cu1152 O1176   1.959   .     S
Cu1152 O1170   1.963   .     S
Cu1152 O1172   1.950   .     S
Cu1152 O1174   1.959   .     S
Cu1152 N1168   2.015   .     S
H1160  C552    1.084   1_556 S
N1177  H1178   1.032   .     S
N1177  C1179   1.448   .     S
C1179  H1181   1.111   .     S
C1179  H1182   1.110   .     S
H1180  C783    1.111   1_565 S
N1183  H1184   1.030   .     S
N1183  C1185   1.447   .     S
C1185  H1187   1.110   .     S
C1185  H1186   1.111   .     S
C1185  H1188   1.107   .     S
