data_str_m3_o1_o17_pcu_sym.81
_audit_creation_date              2020-01-03
_audit_creation_method            'Materials Studio'
_symmetry_space_group_name_H-M    'P1'
_symmetry_Int_Tables_number       1
_symmetry_cell_setting            triclinic
loop_
_symmetry_equiv_pos_as_xyz
  x,y,z
_cell_length_a                    32.1273
_cell_length_b                    29.7593
_cell_length_c                    29.8900
_cell_angle_alpha                 89.5592
_cell_angle_beta                  91.7725
_cell_angle_gamma                 89.3503
loop_
_atom_site_label
_atom_site_type_symbol
_atom_site_fract_x
_atom_site_fract_y
_atom_site_fract_z
_atom_site_U_iso_or_equiv
_atom_site_adp_type
_atom_site_occupancy
C1     C     0.08724   0.16691   0.25572   0.00000  Uiso   1.00
C2     C     0.04320   0.16762   0.26385   0.00000  Uiso   1.00
C3     C     0.18908   0.02319   0.28206   0.00000  Uiso   1.00
C4     C     0.14516   0.30972   0.21721   0.00000  Uiso   1.00
C5     C     0.14510   0.02461   0.21727   0.00000  Uiso   1.00
C6     C     0.19123   0.30864   0.28006   0.00000  Uiso   1.00
C7     C     0.16640   0.16689   0.16374   0.00000  Uiso   1.00
C8     C     0.16733   0.16636   0.33629   0.00000  Uiso   1.00
C9     C     0.20613   0.16846   0.40810   0.00000  Uiso   1.00
C10    C     0.12940   0.15402   0.09242   0.00000  Uiso   1.00
C11    C     0.16821   0.16500   0.38399   0.00000  Uiso   1.00
C12    C     0.24682   0.16635   0.24765   0.00000  Uiso   1.00
C13    C     0.16524   0.16776   0.11607   0.00000  Uiso   1.00
C14    C     0.13116   0.15575   0.40461   0.00000  Uiso   1.00
C15    C     0.20006   0.18370   0.09505   0.00000  Uiso   1.00
C16    C     0.12991   0.15663   0.45144   0.00000  Uiso   1.00
C17    C     0.20209   0.18096   0.04837   0.00000  Uiso   1.00
C18    C     0.16720   0.16572   0.47653   0.00000  Uiso   1.00
C19    C     0.16636   0.16656   0.02347   0.00000  Uiso   1.00
C20    C     0.20542   0.17311   0.45476   0.00000  Uiso   1.00
C21    C     0.12980   0.15277   0.04550   0.00000  Uiso   1.00
C22    C     0.09267   0.14790   0.47384   0.00000  Uiso   1.00
C23    C     0.09393   0.14062   0.01979   0.00000  Uiso   1.00
C24    C     0.23924   0.19108   0.02661   0.00000  Uiso   1.00
C25    C     0.02219   0.14757   0.04528   0.00000  Uiso   1.00
C26    C     0.29097   0.23396   0.44227   0.00000  Uiso   1.00
C27    C     0.19693   0.04174   0.36168   0.00000  Uiso   1.00
C28    C     0.08418   0.27940   0.17671   0.00000  Uiso   1.00
C29    C     0.07978   0.05539   0.18552   0.00000  Uiso   1.00
C30    C     0.22242   0.27299   0.34770   0.00000  Uiso   1.00
C31    C     0.24159   0.18509   0.48027   0.00000  Uiso   1.00
C32    C     0.02215   0.12683   0.26900   0.00000  Uiso   1.00
C33    C     0.31283   0.20705   0.24560   0.00000  Uiso   1.00
C34    C     0.31382   0.12520   0.25737   0.00000  Uiso   1.00
C35    C     0.02108   0.20837   0.25910   0.00000  Uiso   1.00
C36    C     0.29175   0.16568   0.24735   0.00000  Uiso   1.00
H37    H     0.24029   0.15281   0.35674   0.00000  Uiso   1.00
H38    H     0.32824   0.13163   0.02851   0.00000  Uiso   1.00
H39    H     0.29517   0.16242   0.44713   0.00000  Uiso   1.00
H40    H     0.29505   0.23144   0.40565   0.00000  Uiso   1.00
H41    H     0.32068   0.24563   0.45786   0.00000  Uiso   1.00
H42    H     0.26615   0.25924   0.44872   0.00000  Uiso   1.00
H43    H     0.06414   0.09607   0.30588   0.00000  Uiso   1.00
H44    H     0.27662   0.23823   0.20281   0.00000  Uiso   1.00
H45    H     0.28144   0.08067   0.22687   0.00000  Uiso   1.00
H46    H     0.02035   0.27356   0.26745   0.00000  Uiso   1.00
H47    H     0.22536   0.07557   0.30894   0.00000  Uiso   1.00
H48    H     0.09280   0.16013   0.14349   0.00000  Uiso   1.00
H49    H     0.17101   0.01752   0.36388   0.00000  Uiso   1.00
H50    H     0.18542   0.07451   0.37346   0.00000  Uiso   1.00
H51    H     0.22282   0.03151   0.38504   0.00000  Uiso   1.00
H52    H     0.14141   0.29515   0.14948   0.00000  Uiso   1.00
H53    H     0.06824   0.29520   0.20503   0.00000  Uiso   1.00
H54    H     0.07783   0.24286   0.17647   0.00000  Uiso   1.00
H55    H     0.07094   0.29394   0.14497   0.00000  Uiso   1.00
H56    H     0.13351   0.04105   0.15034   0.00000  Uiso   1.00
H57    H     0.06310   0.03818   0.15762   0.00000  Uiso   1.00
H58    H     0.07174   0.09157   0.18272   0.00000  Uiso   1.00
H59    H     0.08863   0.11328   0.38951   0.00000  Uiso   1.00
H60    H     0.06844   0.04232   0.21779   0.00000  Uiso   1.00
H61    H     0.25414   0.29892   0.29397   0.00000  Uiso   1.00
H62    H     0.24285   0.29422   0.36907   0.00000  Uiso   1.00
H63    H     0.23414   0.23829   0.35165   0.00000  Uiso   1.00
H64    H     0.18986   0.27487   0.35908   0.00000  Uiso   1.00
H65    H     0.23496   0.23277   0.11157   0.00000  Uiso   1.00
H66    H     0.05183   0.17219   0.43183   0.00000  Uiso   1.00
H67    H     0.29263   0.22164   0.03310   0.00000  Uiso   1.00
H68    H     0.06407   0.09355   0.06109   0.00000  Uiso   1.00
H69    H     0.02589   0.18189   0.03108   0.00000  Uiso   1.00
H70    H     0.01618   0.15049   0.08153   0.00000  Uiso   1.00
N71    N     0.16667   0.28573   0.25000   0.00000  Uiso   1.00
N72    N     0.16667   0.04760   0.25000   0.00000  Uiso   1.00
N73    N     0.05879   0.11984   0.03889   0.00000  Uiso   1.00
N74    N     0.28115   0.19031   0.46064   0.00000  Uiso   1.00
N75    N     0.21226   0.04535   0.31659   0.00000  Uiso   1.00
N76    N     0.12868   0.28625   0.17949   0.00000  Uiso   1.00
N77    N     0.12438   0.04925   0.18205   0.00000  Uiso   1.00
N78    N     0.22558   0.28567   0.30125   0.00000  Uiso   1.00
O79    O     0.10559   0.20487   0.25000   0.00000  Uiso   1.00
O80    O     0.09322   0.14450   0.11440   0.00000  Uiso   1.00
O81    O     0.09772   0.14276   0.37786   0.00000  Uiso   1.00
O82    O     0.23191   0.20107   0.12138   0.00000  Uiso   1.00
O83    O     0.05436   0.14558   0.45194   0.00000  Uiso   1.00
O84    O     0.27404   0.20360   0.05170   0.00000  Uiso   1.00
O85    O     0.04141   0.08777   0.28445   0.00000  Uiso   1.00
O86    O     0.29425   0.24618   0.22934   0.00000  Uiso   1.00
O87    O     0.29563   0.08352   0.25664   0.00000  Uiso   1.00
O88    O     0.04107   0.24871   0.26638   0.00000  Uiso   1.00
O89    O     0.22774   0.12846   0.25001   0.00000  Uiso   1.00
O90    O     0.22774   0.20487   0.25001   0.00000  Uiso   1.00
O91    O     0.10559   0.12846   0.25000   0.00000  Uiso   1.00
O92    O     0.16666   0.20489   0.18393   0.00000  Uiso   1.00
O93    O     0.16667   0.12844   0.31608   0.00000  Uiso   1.00
O94    O     0.16667   0.20489   0.31608   0.00000  Uiso   1.00
O95    O     0.16666   0.12844   0.18393   0.00000  Uiso   1.00
O96    O     0.24386   0.16556   0.38706   0.00000  Uiso   1.00
Zn97   Zn    0.16667   0.21771   0.25000   0.00000  Uiso   1.00
Zn98   Zn    0.16667   0.11563   0.25000   0.00000  Uiso   1.00
C99    C     0.42058   0.16691   0.25572   0.00000  Uiso   1.00
C100   C     0.37654   0.16762   0.26385   0.00000  Uiso   1.00
C101   C     0.52242   0.02319   0.28206   0.00000  Uiso   1.00
C102   C     0.47849   0.30972   0.21721   0.00000  Uiso   1.00
C103   C     0.47843   0.02461   0.21727   0.00000  Uiso   1.00
C104   C     0.52456   0.30864   0.28006   0.00000  Uiso   1.00
C105   C     0.49973   0.16689   0.16374   0.00000  Uiso   1.00
C106   C     0.50066   0.16636   0.33629   0.00000  Uiso   1.00
C107   C     0.53947   0.16846   0.40810   0.00000  Uiso   1.00
C108   C     0.46274   0.15402   0.09242   0.00000  Uiso   1.00
C109   C     0.50155   0.16500   0.38399   0.00000  Uiso   1.00
C110   C     0.58015   0.16635   0.24765   0.00000  Uiso   1.00
C111   C     0.49857   0.16776   0.11607   0.00000  Uiso   1.00
C112   C     0.46449   0.15575   0.40461   0.00000  Uiso   1.00
C113   C     0.53339   0.18370   0.09505   0.00000  Uiso   1.00
C114   C     0.46324   0.15663   0.45144   0.00000  Uiso   1.00
C115   C     0.53543   0.18096   0.04837   0.00000  Uiso   1.00
C116   C     0.50053   0.16572   0.47653   0.00000  Uiso   1.00
C117   C     0.49970   0.16656   0.02347   0.00000  Uiso   1.00
C118   C     0.53875   0.17311   0.45476   0.00000  Uiso   1.00
C119   C     0.46313   0.15277   0.04550   0.00000  Uiso   1.00
C120   C     0.42601   0.14790   0.47384   0.00000  Uiso   1.00
C121   C     0.42726   0.14062   0.01979   0.00000  Uiso   1.00
C122   C     0.57257   0.19108   0.02661   0.00000  Uiso   1.00
C123   C     0.35553   0.14757   0.04528   0.00000  Uiso   1.00
C124   C     0.62430   0.23396   0.44227   0.00000  Uiso   1.00
C125   C     0.53027   0.04174   0.36168   0.00000  Uiso   1.00
C126   C     0.41751   0.27940   0.17671   0.00000  Uiso   1.00
C127   C     0.41312   0.05539   0.18552   0.00000  Uiso   1.00
C128   C     0.55575   0.27299   0.34770   0.00000  Uiso   1.00
C129   C     0.57492   0.18509   0.48027   0.00000  Uiso   1.00
C130   C     0.35548   0.12683   0.26900   0.00000  Uiso   1.00
C131   C     0.64616   0.20705   0.24560   0.00000  Uiso   1.00
C132   C     0.64715   0.12520   0.25737   0.00000  Uiso   1.00
C133   C     0.35442   0.20837   0.25910   0.00000  Uiso   1.00
C134   C     0.62509   0.16568   0.24735   0.00000  Uiso   1.00
H135   H     0.57362   0.15281   0.35674   0.00000  Uiso   1.00
H136   H     0.66157   0.13163   0.02851   0.00000  Uiso   1.00
H137   H     0.62850   0.16242   0.44713   0.00000  Uiso   1.00
H138   H     0.62838   0.23144   0.40565   0.00000  Uiso   1.00
H139   H     0.65401   0.24563   0.45786   0.00000  Uiso   1.00
H140   H     0.59948   0.25924   0.44872   0.00000  Uiso   1.00
H141   H     0.39747   0.09607   0.30588   0.00000  Uiso   1.00
H142   H     0.60995   0.23823   0.20281   0.00000  Uiso   1.00
H143   H     0.61477   0.08067   0.22687   0.00000  Uiso   1.00
H144   H     0.35368   0.27356   0.26745   0.00000  Uiso   1.00
H145   H     0.55869   0.07557   0.30894   0.00000  Uiso   1.00
H146   H     0.42613   0.16013   0.14349   0.00000  Uiso   1.00
H147   H     0.50434   0.01752   0.36388   0.00000  Uiso   1.00
H148   H     0.51875   0.07451   0.37346   0.00000  Uiso   1.00
H149   H     0.55616   0.03151   0.38504   0.00000  Uiso   1.00
H150   H     0.47474   0.29515   0.14948   0.00000  Uiso   1.00
H151   H     0.40158   0.29520   0.20503   0.00000  Uiso   1.00
H152   H     0.41116   0.24286   0.17647   0.00000  Uiso   1.00
H153   H     0.40427   0.29394   0.14497   0.00000  Uiso   1.00
H154   H     0.46684   0.04105   0.15034   0.00000  Uiso   1.00
H155   H     0.39643   0.03818   0.15762   0.00000  Uiso   1.00
H156   H     0.40507   0.09157   0.18272   0.00000  Uiso   1.00
H157   H     0.42196   0.11328   0.38951   0.00000  Uiso   1.00
H158   H     0.40177   0.04232   0.21779   0.00000  Uiso   1.00
H159   H     0.58748   0.29892   0.29397   0.00000  Uiso   1.00
H160   H     0.57618   0.29422   0.36907   0.00000  Uiso   1.00
H161   H     0.56747   0.23829   0.35165   0.00000  Uiso   1.00
H162   H     0.52319   0.27487   0.35908   0.00000  Uiso   1.00
H163   H     0.56829   0.23277   0.11157   0.00000  Uiso   1.00
H164   H     0.38516   0.17219   0.43183   0.00000  Uiso   1.00
H165   H     0.62596   0.22164   0.03310   0.00000  Uiso   1.00
H166   H     0.39741   0.09355   0.06109   0.00000  Uiso   1.00
H167   H     0.35922   0.18189   0.03108   0.00000  Uiso   1.00
H168   H     0.34952   0.15049   0.08153   0.00000  Uiso   1.00
N169   N     0.50000   0.28573   0.25000   0.00000  Uiso   1.00
N170   N     0.50000   0.04760   0.25000   0.00000  Uiso   1.00
N171   N     0.39212   0.11984   0.03889   0.00000  Uiso   1.00
N172   N     0.61449   0.19031   0.46064   0.00000  Uiso   1.00
N173   N     0.54560   0.04535   0.31659   0.00000  Uiso   1.00
N174   N     0.46202   0.28625   0.17949   0.00000  Uiso   1.00
N175   N     0.45772   0.04925   0.18205   0.00000  Uiso   1.00
N176   N     0.55891   0.28567   0.30125   0.00000  Uiso   1.00
O177   O     0.43892   0.20487   0.25000   0.00000  Uiso   1.00
O178   O     0.42655   0.14450   0.11440   0.00000  Uiso   1.00
O179   O     0.43105   0.14276   0.37786   0.00000  Uiso   1.00
O180   O     0.56524   0.20107   0.12138   0.00000  Uiso   1.00
O181   O     0.38769   0.14558   0.45194   0.00000  Uiso   1.00
O182   O     0.60737   0.20360   0.05170   0.00000  Uiso   1.00
O183   O     0.37475   0.08777   0.28445   0.00000  Uiso   1.00
O184   O     0.62758   0.24618   0.22934   0.00000  Uiso   1.00
O185   O     0.62897   0.08352   0.25664   0.00000  Uiso   1.00
O186   O     0.37440   0.24871   0.26638   0.00000  Uiso   1.00
O187   O     0.56108   0.12846   0.25001   0.00000  Uiso   1.00
O188   O     0.56108   0.20487   0.25001   0.00000  Uiso   1.00
O189   O     0.43892   0.12846   0.25000   0.00000  Uiso   1.00
O190   O     0.49999   0.20489   0.18393   0.00000  Uiso   1.00
O191   O     0.50001   0.12844   0.31608   0.00000  Uiso   1.00
O192   O     0.50001   0.20489   0.31608   0.00000  Uiso   1.00
O193   O     0.49999   0.12844   0.18393   0.00000  Uiso   1.00
O194   O     0.57719   0.16556   0.38706   0.00000  Uiso   1.00
Zn195  Zn    0.50000   0.21771   0.25000   0.00000  Uiso   1.00
Zn196  Zn    0.50000   0.11563   0.25000   0.00000  Uiso   1.00
C197   C     0.75391   0.16691   0.25572   0.00000  Uiso   1.00
C198   C     0.70987   0.16762   0.26385   0.00000  Uiso   1.00
C199   C     0.85575   0.02319   0.28206   0.00000  Uiso   1.00
C200   C     0.81182   0.30972   0.21721   0.00000  Uiso   1.00
C201   C     0.81176   0.02461   0.21727   0.00000  Uiso   1.00
C202   C     0.85789   0.30864   0.28006   0.00000  Uiso   1.00
C203   C     0.83307   0.16689   0.16374   0.00000  Uiso   1.00
C204   C     0.83399   0.16636   0.33629   0.00000  Uiso   1.00
C205   C     0.87280   0.16846   0.40810   0.00000  Uiso   1.00
C206   C     0.79607   0.15402   0.09242   0.00000  Uiso   1.00
C207   C     0.83488   0.16500   0.38399   0.00000  Uiso   1.00
C208   C     0.91348   0.16635   0.24765   0.00000  Uiso   1.00
C209   C     0.83190   0.16776   0.11607   0.00000  Uiso   1.00
C210   C     0.79783   0.15575   0.40461   0.00000  Uiso   1.00
C211   C     0.86673   0.18370   0.09505   0.00000  Uiso   1.00
C212   C     0.79657   0.15663   0.45144   0.00000  Uiso   1.00
C213   C     0.86876   0.18096   0.04837   0.00000  Uiso   1.00
C214   C     0.83387   0.16572   0.47653   0.00000  Uiso   1.00
C215   C     0.83303   0.16656   0.02347   0.00000  Uiso   1.00
C216   C     0.87208   0.17311   0.45476   0.00000  Uiso   1.00
C217   C     0.79646   0.15277   0.04550   0.00000  Uiso   1.00
C218   C     0.75934   0.14790   0.47384   0.00000  Uiso   1.00
C219   C     0.76059   0.14062   0.01979   0.00000  Uiso   1.00
C220   C     0.90591   0.19108   0.02661   0.00000  Uiso   1.00
C221   C     0.68886   0.14757   0.04528   0.00000  Uiso   1.00
C222   C     0.95764   0.23396   0.44227   0.00000  Uiso   1.00
C223   C     0.86360   0.04174   0.36168   0.00000  Uiso   1.00
C224   C     0.75084   0.27940   0.17671   0.00000  Uiso   1.00
C225   C     0.74645   0.05539   0.18552   0.00000  Uiso   1.00
C226   C     0.88908   0.27299   0.34770   0.00000  Uiso   1.00
C227   C     0.90825   0.18509   0.48027   0.00000  Uiso   1.00
C228   C     0.68881   0.12683   0.26900   0.00000  Uiso   1.00
C229   C     0.97950   0.20705   0.24560   0.00000  Uiso   1.00
C230   C     0.98048   0.12520   0.25737   0.00000  Uiso   1.00
C231   C     0.68775   0.20837   0.25910   0.00000  Uiso   1.00
C232   C     0.95842   0.16568   0.24735   0.00000  Uiso   1.00
H233   H     0.90696   0.15281   0.35674   0.00000  Uiso   1.00
H234   H     0.99490   0.13163   0.02851   0.00000  Uiso   1.00
H235   H     0.96183   0.16242   0.44713   0.00000  Uiso   1.00
H236   H     0.96171   0.23144   0.40565   0.00000  Uiso   1.00
H237   H     0.98734   0.24563   0.45786   0.00000  Uiso   1.00
H238   H     0.93282   0.25924   0.44872   0.00000  Uiso   1.00
H239   H     0.73081   0.09607   0.30588   0.00000  Uiso   1.00
H240   H     0.94328   0.23823   0.20281   0.00000  Uiso   1.00
H241   H     0.94811   0.08067   0.22687   0.00000  Uiso   1.00
H242   H     0.68701   0.27356   0.26745   0.00000  Uiso   1.00
H243   H     0.89202   0.07557   0.30894   0.00000  Uiso   1.00
H244   H     0.75947   0.16013   0.14349   0.00000  Uiso   1.00
H245   H     0.83767   0.01752   0.36388   0.00000  Uiso   1.00
H246   H     0.85208   0.07451   0.37346   0.00000  Uiso   1.00
H247   H     0.88949   0.03151   0.38504   0.00000  Uiso   1.00
H248   H     0.80807   0.29515   0.14948   0.00000  Uiso   1.00
H249   H     0.73491   0.29520   0.20503   0.00000  Uiso   1.00
H250   H     0.74449   0.24286   0.17647   0.00000  Uiso   1.00
H251   H     0.73760   0.29394   0.14497   0.00000  Uiso   1.00
H252   H     0.80017   0.04105   0.15034   0.00000  Uiso   1.00
H253   H     0.72977   0.03818   0.15762   0.00000  Uiso   1.00
H254   H     0.73841   0.09157   0.18272   0.00000  Uiso   1.00
H255   H     0.75529   0.11328   0.38951   0.00000  Uiso   1.00
H256   H     0.73511   0.04232   0.21779   0.00000  Uiso   1.00
H257   H     0.92081   0.29892   0.29397   0.00000  Uiso   1.00
H258   H     0.90951   0.29422   0.36907   0.00000  Uiso   1.00
H259   H     0.90080   0.23829   0.35165   0.00000  Uiso   1.00
H260   H     0.85652   0.27487   0.35908   0.00000  Uiso   1.00
H261   H     0.90162   0.23277   0.11157   0.00000  Uiso   1.00
H262   H     0.71850   0.17219   0.43183   0.00000  Uiso   1.00
H263   H     0.95929   0.22164   0.03310   0.00000  Uiso   1.00
H264   H     0.73074   0.09355   0.06109   0.00000  Uiso   1.00
H265   H     0.69256   0.18189   0.03108   0.00000  Uiso   1.00
H266   H     0.68285   0.15049   0.08153   0.00000  Uiso   1.00
N267   N     0.83333   0.28573   0.25000   0.00000  Uiso   1.00
N268   N     0.83333   0.04760   0.25000   0.00000  Uiso   1.00
N269   N     0.72546   0.11984   0.03889   0.00000  Uiso   1.00
N270   N     0.94782   0.19031   0.46064   0.00000  Uiso   1.00
N271   N     0.87893   0.04535   0.31659   0.00000  Uiso   1.00
N272   N     0.79535   0.28625   0.17949   0.00000  Uiso   1.00
N273   N     0.79105   0.04925   0.18205   0.00000  Uiso   1.00
N274   N     0.89224   0.28567   0.30125   0.00000  Uiso   1.00
O275   O     0.77226   0.20487   0.25000   0.00000  Uiso   1.00
O276   O     0.75989   0.14450   0.11440   0.00000  Uiso   1.00
O277   O     0.76438   0.14276   0.37786   0.00000  Uiso   1.00
O278   O     0.89858   0.20107   0.12138   0.00000  Uiso   1.00
O279   O     0.72103   0.14558   0.45194   0.00000  Uiso   1.00
O280   O     0.94070   0.20360   0.05170   0.00000  Uiso   1.00
O281   O     0.70808   0.08777   0.28445   0.00000  Uiso   1.00
O282   O     0.96091   0.24618   0.22934   0.00000  Uiso   1.00
O283   O     0.96230   0.08352   0.25664   0.00000  Uiso   1.00
O284   O     0.70773   0.24871   0.26638   0.00000  Uiso   1.00
O285   O     0.89441   0.12846   0.25001   0.00000  Uiso   1.00
O286   O     0.89441   0.20487   0.25001   0.00000  Uiso   1.00
O287   O     0.77226   0.12846   0.25000   0.00000  Uiso   1.00
O288   O     0.83333   0.20489   0.18393   0.00000  Uiso   1.00
O289   O     0.83334   0.12844   0.31608   0.00000  Uiso   1.00
O290   O     0.83334   0.20489   0.31608   0.00000  Uiso   1.00
O291   O     0.83333   0.12844   0.18393   0.00000  Uiso   1.00
O292   O     0.91053   0.16556   0.38706   0.00000  Uiso   1.00
Zn293  Zn    0.83333   0.21771   0.25000   0.00000  Uiso   1.00
Zn294  Zn    0.83333   0.11563   0.25000   0.00000  Uiso   1.00
C295   C     0.08724   0.50024   0.25572   0.00000  Uiso   1.00
C296   C     0.04320   0.50096   0.26385   0.00000  Uiso   1.00
C297   C     0.18908   0.35652   0.28206   0.00000  Uiso   1.00
C298   C     0.14516   0.64305   0.21721   0.00000  Uiso   1.00
C299   C     0.14510   0.35794   0.21727   0.00000  Uiso   1.00
C300   C     0.19123   0.64197   0.28006   0.00000  Uiso   1.00
C301   C     0.16640   0.50023   0.16374   0.00000  Uiso   1.00
C302   C     0.16733   0.49969   0.33629   0.00000  Uiso   1.00
C303   C     0.20613   0.50179   0.40810   0.00000  Uiso   1.00
C304   C     0.12940   0.48735   0.09242   0.00000  Uiso   1.00
C305   C     0.16821   0.49833   0.38399   0.00000  Uiso   1.00
C306   C     0.24682   0.49968   0.24765   0.00000  Uiso   1.00
C307   C     0.16524   0.50109   0.11607   0.00000  Uiso   1.00
C308   C     0.13116   0.48908   0.40461   0.00000  Uiso   1.00
C309   C     0.20006   0.51703   0.09505   0.00000  Uiso   1.00
C310   C     0.12991   0.48996   0.45144   0.00000  Uiso   1.00
C311   C     0.20209   0.51430   0.04837   0.00000  Uiso   1.00
C312   C     0.16720   0.49906   0.47653   0.00000  Uiso   1.00
C313   C     0.16636   0.49989   0.02347   0.00000  Uiso   1.00
C314   C     0.20542   0.50644   0.45476   0.00000  Uiso   1.00
C315   C     0.12980   0.48610   0.04550   0.00000  Uiso   1.00
C316   C     0.09267   0.48123   0.47384   0.00000  Uiso   1.00
C317   C     0.09393   0.47396   0.01979   0.00000  Uiso   1.00
C318   C     0.23924   0.52441   0.02661   0.00000  Uiso   1.00
C319   C     0.02219   0.48090   0.04528   0.00000  Uiso   1.00
C320   C     0.29097   0.56729   0.44227   0.00000  Uiso   1.00
C321   C     0.19693   0.37508   0.36168   0.00000  Uiso   1.00
C322   C     0.08418   0.61273   0.17671   0.00000  Uiso   1.00
C323   C     0.07978   0.38872   0.18552   0.00000  Uiso   1.00
C324   C     0.22242   0.60633   0.34770   0.00000  Uiso   1.00
C325   C     0.24159   0.51842   0.48027   0.00000  Uiso   1.00
C326   C     0.02215   0.46016   0.26900   0.00000  Uiso   1.00
C327   C     0.31283   0.54039   0.24560   0.00000  Uiso   1.00
C328   C     0.31382   0.45854   0.25737   0.00000  Uiso   1.00
C329   C     0.02108   0.54170   0.25910   0.00000  Uiso   1.00
C330   C     0.29175   0.49902   0.24735   0.00000  Uiso   1.00
H331   H     0.24029   0.48615   0.35674   0.00000  Uiso   1.00
H332   H     0.32824   0.46496   0.02851   0.00000  Uiso   1.00
H333   H     0.29517   0.49575   0.44713   0.00000  Uiso   1.00
H334   H     0.29505   0.56478   0.40565   0.00000  Uiso   1.00
H335   H     0.32068   0.57897   0.45786   0.00000  Uiso   1.00
H336   H     0.26615   0.59257   0.44872   0.00000  Uiso   1.00
H337   H     0.06414   0.42940   0.30588   0.00000  Uiso   1.00
H338   H     0.27662   0.57156   0.20281   0.00000  Uiso   1.00
H339   H     0.28144   0.41401   0.22687   0.00000  Uiso   1.00
H340   H     0.02035   0.60689   0.26745   0.00000  Uiso   1.00
H341   H     0.22536   0.40890   0.30894   0.00000  Uiso   1.00
H342   H     0.09280   0.49347   0.14349   0.00000  Uiso   1.00
H343   H     0.17101   0.35085   0.36388   0.00000  Uiso   1.00
H344   H     0.18542   0.40784   0.37346   0.00000  Uiso   1.00
H345   H     0.22282   0.36484   0.38504   0.00000  Uiso   1.00
H346   H     0.14141   0.62849   0.14948   0.00000  Uiso   1.00
H347   H     0.06824   0.62853   0.20503   0.00000  Uiso   1.00
H348   H     0.07783   0.57619   0.17647   0.00000  Uiso   1.00
H349   H     0.07094   0.62727   0.14497   0.00000  Uiso   1.00
H350   H     0.13351   0.37438   0.15034   0.00000  Uiso   1.00
H351   H     0.06310   0.37151   0.15762   0.00000  Uiso   1.00
H352   H     0.07174   0.42490   0.18272   0.00000  Uiso   1.00
H353   H     0.08863   0.44661   0.38951   0.00000  Uiso   1.00
H354   H     0.06844   0.37566   0.21779   0.00000  Uiso   1.00
H355   H     0.25414   0.63225   0.29397   0.00000  Uiso   1.00
H356   H     0.24285   0.62755   0.36907   0.00000  Uiso   1.00
H357   H     0.23414   0.57162   0.35165   0.00000  Uiso   1.00
H358   H     0.18986   0.60821   0.35908   0.00000  Uiso   1.00
H359   H     0.23496   0.56610   0.11157   0.00000  Uiso   1.00
H360   H     0.05183   0.50553   0.43183   0.00000  Uiso   1.00
H361   H     0.29263   0.55497   0.03310   0.00000  Uiso   1.00
H362   H     0.06407   0.42689   0.06109   0.00000  Uiso   1.00
H363   H     0.02589   0.51522   0.03108   0.00000  Uiso   1.00
H364   H     0.01618   0.48382   0.08153   0.00000  Uiso   1.00
N365   N     0.16667   0.61907   0.25000   0.00000  Uiso   1.00
N366   N     0.16667   0.38093   0.25000   0.00000  Uiso   1.00
N367   N     0.05879   0.45317   0.03889   0.00000  Uiso   1.00
N368   N     0.28115   0.52364   0.46064   0.00000  Uiso   1.00
N369   N     0.21226   0.37868   0.31659   0.00000  Uiso   1.00
N370   N     0.12868   0.61958   0.17949   0.00000  Uiso   1.00
N371   N     0.12438   0.38258   0.18205   0.00000  Uiso   1.00
N372   N     0.22558   0.61900   0.30125   0.00000  Uiso   1.00
O373   O     0.10559   0.53821   0.25000   0.00000  Uiso   1.00
O374   O     0.09322   0.47784   0.11440   0.00000  Uiso   1.00
O375   O     0.09772   0.47609   0.37786   0.00000  Uiso   1.00
O376   O     0.23191   0.53441   0.12138   0.00000  Uiso   1.00
O377   O     0.05436   0.47892   0.45194   0.00000  Uiso   1.00
O378   O     0.27404   0.53694   0.05170   0.00000  Uiso   1.00
O379   O     0.04141   0.42110   0.28445   0.00000  Uiso   1.00
O380   O     0.29425   0.57951   0.22934   0.00000  Uiso   1.00
O381   O     0.29563   0.41685   0.25664   0.00000  Uiso   1.00
O382   O     0.04107   0.58204   0.26638   0.00000  Uiso   1.00
O383   O     0.22774   0.46179   0.25001   0.00000  Uiso   1.00
O384   O     0.22774   0.53821   0.25001   0.00000  Uiso   1.00
O385   O     0.10559   0.46179   0.25000   0.00000  Uiso   1.00
O386   O     0.16666   0.53823   0.18393   0.00000  Uiso   1.00
O387   O     0.16667   0.46177   0.31608   0.00000  Uiso   1.00
O388   O     0.16667   0.53823   0.31608   0.00000  Uiso   1.00
O389   O     0.16666   0.46177   0.18393   0.00000  Uiso   1.00
O390   O     0.24386   0.49889   0.38706   0.00000  Uiso   1.00
Zn391  Zn    0.16667   0.55104   0.25000   0.00000  Uiso   1.00
Zn392  Zn    0.16667   0.44896   0.25000   0.00000  Uiso   1.00
C393   C     0.42058   0.50024   0.25572   0.00000  Uiso   1.00
C394   C     0.37654   0.50096   0.26385   0.00000  Uiso   1.00
C395   C     0.52242   0.35652   0.28206   0.00000  Uiso   1.00
C396   C     0.47849   0.64305   0.21721   0.00000  Uiso   1.00
C397   C     0.47843   0.35794   0.21727   0.00000  Uiso   1.00
C398   C     0.52456   0.64197   0.28006   0.00000  Uiso   1.00
C399   C     0.49973   0.50023   0.16374   0.00000  Uiso   1.00
C400   C     0.50066   0.49969   0.33629   0.00000  Uiso   1.00
C401   C     0.53947   0.50179   0.40810   0.00000  Uiso   1.00
C402   C     0.46274   0.48735   0.09242   0.00000  Uiso   1.00
C403   C     0.50155   0.49833   0.38399   0.00000  Uiso   1.00
C404   C     0.58015   0.49968   0.24765   0.00000  Uiso   1.00
C405   C     0.49857   0.50109   0.11607   0.00000  Uiso   1.00
C406   C     0.46449   0.48908   0.40461   0.00000  Uiso   1.00
C407   C     0.53339   0.51703   0.09505   0.00000  Uiso   1.00
C408   C     0.46324   0.48996   0.45144   0.00000  Uiso   1.00
C409   C     0.53543   0.51430   0.04837   0.00000  Uiso   1.00
C410   C     0.50053   0.49906   0.47653   0.00000  Uiso   1.00
C411   C     0.49970   0.49989   0.02347   0.00000  Uiso   1.00
C412   C     0.53875   0.50644   0.45476   0.00000  Uiso   1.00
C413   C     0.46313   0.48610   0.04550   0.00000  Uiso   1.00
C414   C     0.42601   0.48123   0.47384   0.00000  Uiso   1.00
C415   C     0.42726   0.47396   0.01979   0.00000  Uiso   1.00
C416   C     0.57257   0.52441   0.02661   0.00000  Uiso   1.00
C417   C     0.35553   0.48090   0.04528   0.00000  Uiso   1.00
C418   C     0.62430   0.56729   0.44227   0.00000  Uiso   1.00
C419   C     0.53027   0.37508   0.36168   0.00000  Uiso   1.00
C420   C     0.41751   0.61273   0.17671   0.00000  Uiso   1.00
C421   C     0.41312   0.38872   0.18552   0.00000  Uiso   1.00
C422   C     0.55575   0.60633   0.34770   0.00000  Uiso   1.00
C423   C     0.57492   0.51842   0.48027   0.00000  Uiso   1.00
C424   C     0.35548   0.46016   0.26900   0.00000  Uiso   1.00
C425   C     0.64616   0.54039   0.24560   0.00000  Uiso   1.00
C426   C     0.64715   0.45854   0.25737   0.00000  Uiso   1.00
C427   C     0.35442   0.54170   0.25910   0.00000  Uiso   1.00
C428   C     0.62509   0.49902   0.24735   0.00000  Uiso   1.00
H429   H     0.57362   0.48615   0.35674   0.00000  Uiso   1.00
H430   H     0.66157   0.46496   0.02851   0.00000  Uiso   1.00
H431   H     0.62850   0.49575   0.44713   0.00000  Uiso   1.00
H432   H     0.62838   0.56478   0.40565   0.00000  Uiso   1.00
H433   H     0.65401   0.57897   0.45786   0.00000  Uiso   1.00
H434   H     0.59948   0.59257   0.44872   0.00000  Uiso   1.00
H435   H     0.39747   0.42940   0.30588   0.00000  Uiso   1.00
H436   H     0.60995   0.57156   0.20281   0.00000  Uiso   1.00
H437   H     0.61477   0.41401   0.22687   0.00000  Uiso   1.00
H438   H     0.35368   0.60689   0.26745   0.00000  Uiso   1.00
H439   H     0.55869   0.40890   0.30894   0.00000  Uiso   1.00
H440   H     0.42613   0.49347   0.14349   0.00000  Uiso   1.00
H441   H     0.50434   0.35085   0.36388   0.00000  Uiso   1.00
H442   H     0.51875   0.40784   0.37346   0.00000  Uiso   1.00
H443   H     0.55616   0.36484   0.38504   0.00000  Uiso   1.00
H444   H     0.47474   0.62849   0.14948   0.00000  Uiso   1.00
H445   H     0.40158   0.62853   0.20503   0.00000  Uiso   1.00
H446   H     0.41116   0.57619   0.17647   0.00000  Uiso   1.00
H447   H     0.40427   0.62727   0.14497   0.00000  Uiso   1.00
H448   H     0.46684   0.37438   0.15034   0.00000  Uiso   1.00
H449   H     0.39643   0.37151   0.15762   0.00000  Uiso   1.00
H450   H     0.40507   0.42490   0.18272   0.00000  Uiso   1.00
H451   H     0.42196   0.44661   0.38951   0.00000  Uiso   1.00
H452   H     0.40177   0.37566   0.21779   0.00000  Uiso   1.00
H453   H     0.58748   0.63225   0.29397   0.00000  Uiso   1.00
H454   H     0.57618   0.62755   0.36907   0.00000  Uiso   1.00
H455   H     0.56747   0.57162   0.35165   0.00000  Uiso   1.00
H456   H     0.52319   0.60821   0.35908   0.00000  Uiso   1.00
H457   H     0.56829   0.56610   0.11157   0.00000  Uiso   1.00
H458   H     0.38516   0.50553   0.43183   0.00000  Uiso   1.00
H459   H     0.62596   0.55497   0.03310   0.00000  Uiso   1.00
H460   H     0.39741   0.42689   0.06109   0.00000  Uiso   1.00
H461   H     0.35922   0.51522   0.03108   0.00000  Uiso   1.00
H462   H     0.34952   0.48382   0.08153   0.00000  Uiso   1.00
N463   N     0.50000   0.61907   0.25000   0.00000  Uiso   1.00
N464   N     0.50000   0.38093   0.25000   0.00000  Uiso   1.00
N465   N     0.39212   0.45317   0.03889   0.00000  Uiso   1.00
N466   N     0.61449   0.52364   0.46064   0.00000  Uiso   1.00
N467   N     0.54560   0.37868   0.31659   0.00000  Uiso   1.00
N468   N     0.46202   0.61958   0.17949   0.00000  Uiso   1.00
N469   N     0.45772   0.38258   0.18205   0.00000  Uiso   1.00
N470   N     0.55891   0.61900   0.30125   0.00000  Uiso   1.00
O471   O     0.43892   0.53821   0.25000   0.00000  Uiso   1.00
O472   O     0.42655   0.47784   0.11440   0.00000  Uiso   1.00
O473   O     0.43105   0.47609   0.37786   0.00000  Uiso   1.00
O474   O     0.56524   0.53441   0.12138   0.00000  Uiso   1.00
O475   O     0.38769   0.47892   0.45194   0.00000  Uiso   1.00
O476   O     0.60737   0.53694   0.05170   0.00000  Uiso   1.00
O477   O     0.37475   0.42110   0.28445   0.00000  Uiso   1.00
O478   O     0.62758   0.57951   0.22934   0.00000  Uiso   1.00
O479   O     0.62897   0.41685   0.25664   0.00000  Uiso   1.00
O480   O     0.37440   0.58204   0.26638   0.00000  Uiso   1.00
O481   O     0.56108   0.46179   0.25001   0.00000  Uiso   1.00
O482   O     0.56108   0.53821   0.25001   0.00000  Uiso   1.00
O483   O     0.43892   0.46179   0.25000   0.00000  Uiso   1.00
O484   O     0.49999   0.53823   0.18393   0.00000  Uiso   1.00
O485   O     0.50001   0.46177   0.31608   0.00000  Uiso   1.00
O486   O     0.50001   0.53823   0.31608   0.00000  Uiso   1.00
O487   O     0.49999   0.46177   0.18393   0.00000  Uiso   1.00
O488   O     0.57719   0.49889   0.38706   0.00000  Uiso   1.00
Zn489  Zn    0.50000   0.55104   0.25000   0.00000  Uiso   1.00
Zn490  Zn    0.50000   0.44896   0.25000   0.00000  Uiso   1.00
C491   C     0.75391   0.50024   0.25572   0.00000  Uiso   1.00
C492   C     0.70987   0.50096   0.26385   0.00000  Uiso   1.00
C493   C     0.85575   0.35652   0.28206   0.00000  Uiso   1.00
C494   C     0.81182   0.64305   0.21721   0.00000  Uiso   1.00
C495   C     0.81176   0.35794   0.21727   0.00000  Uiso   1.00
C496   C     0.85789   0.64197   0.28006   0.00000  Uiso   1.00
C497   C     0.83307   0.50023   0.16374   0.00000  Uiso   1.00
C498   C     0.83399   0.49969   0.33629   0.00000  Uiso   1.00
C499   C     0.87280   0.50179   0.40810   0.00000  Uiso   1.00
C500   C     0.79607   0.48735   0.09242   0.00000  Uiso   1.00
C501   C     0.83488   0.49833   0.38399   0.00000  Uiso   1.00
C502   C     0.91348   0.49968   0.24765   0.00000  Uiso   1.00
C503   C     0.83190   0.50109   0.11607   0.00000  Uiso   1.00
C504   C     0.79783   0.48908   0.40461   0.00000  Uiso   1.00
C505   C     0.86673   0.51703   0.09505   0.00000  Uiso   1.00
C506   C     0.79657   0.48996   0.45144   0.00000  Uiso   1.00
C507   C     0.86876   0.51430   0.04837   0.00000  Uiso   1.00
C508   C     0.83387   0.49906   0.47653   0.00000  Uiso   1.00
C509   C     0.83303   0.49989   0.02347   0.00000  Uiso   1.00
C510   C     0.87208   0.50644   0.45476   0.00000  Uiso   1.00
C511   C     0.79646   0.48610   0.04550   0.00000  Uiso   1.00
C512   C     0.75934   0.48123   0.47384   0.00000  Uiso   1.00
C513   C     0.76059   0.47396   0.01979   0.00000  Uiso   1.00
C514   C     0.90591   0.52441   0.02661   0.00000  Uiso   1.00
C515   C     0.68886   0.48090   0.04528   0.00000  Uiso   1.00
C516   C     0.95764   0.56729   0.44227   0.00000  Uiso   1.00
C517   C     0.86360   0.37508   0.36168   0.00000  Uiso   1.00
C518   C     0.75084   0.61273   0.17671   0.00000  Uiso   1.00
C519   C     0.74645   0.38872   0.18552   0.00000  Uiso   1.00
C520   C     0.88908   0.60633   0.34770   0.00000  Uiso   1.00
C521   C     0.90825   0.51842   0.48027   0.00000  Uiso   1.00
C522   C     0.68881   0.46016   0.26900   0.00000  Uiso   1.00
C523   C     0.97950   0.54039   0.24560   0.00000  Uiso   1.00
C524   C     0.98048   0.45854   0.25737   0.00000  Uiso   1.00
C525   C     0.68775   0.54170   0.25910   0.00000  Uiso   1.00
C526   C     0.95842   0.49902   0.24735   0.00000  Uiso   1.00
H527   H     0.90696   0.48615   0.35674   0.00000  Uiso   1.00
H528   H     0.99490   0.46496   0.02851   0.00000  Uiso   1.00
H529   H     0.96183   0.49575   0.44713   0.00000  Uiso   1.00
H530   H     0.96171   0.56478   0.40565   0.00000  Uiso   1.00
H531   H     0.98734   0.57897   0.45786   0.00000  Uiso   1.00
H532   H     0.93282   0.59257   0.44872   0.00000  Uiso   1.00
H533   H     0.73081   0.42940   0.30588   0.00000  Uiso   1.00
H534   H     0.94328   0.57156   0.20281   0.00000  Uiso   1.00
H535   H     0.94811   0.41401   0.22687   0.00000  Uiso   1.00
H536   H     0.68701   0.60689   0.26745   0.00000  Uiso   1.00
H537   H     0.89202   0.40890   0.30894   0.00000  Uiso   1.00
H538   H     0.75947   0.49347   0.14349   0.00000  Uiso   1.00
H539   H     0.83767   0.35085   0.36388   0.00000  Uiso   1.00
H540   H     0.85208   0.40784   0.37346   0.00000  Uiso   1.00
H541   H     0.88949   0.36484   0.38504   0.00000  Uiso   1.00
H542   H     0.80807   0.62849   0.14948   0.00000  Uiso   1.00
H543   H     0.73491   0.62853   0.20503   0.00000  Uiso   1.00
H544   H     0.74449   0.57619   0.17647   0.00000  Uiso   1.00
H545   H     0.73760   0.62727   0.14497   0.00000  Uiso   1.00
H546   H     0.80017   0.37438   0.15034   0.00000  Uiso   1.00
H547   H     0.72977   0.37151   0.15762   0.00000  Uiso   1.00
H548   H     0.73841   0.42490   0.18272   0.00000  Uiso   1.00
H549   H     0.75529   0.44661   0.38951   0.00000  Uiso   1.00
H550   H     0.73511   0.37566   0.21779   0.00000  Uiso   1.00
H551   H     0.92081   0.63225   0.29397   0.00000  Uiso   1.00
H552   H     0.90951   0.62755   0.36907   0.00000  Uiso   1.00
H553   H     0.90080   0.57162   0.35165   0.00000  Uiso   1.00
H554   H     0.85652   0.60821   0.35908   0.00000  Uiso   1.00
H555   H     0.90162   0.56610   0.11157   0.00000  Uiso   1.00
H556   H     0.71850   0.50553   0.43183   0.00000  Uiso   1.00
H557   H     0.95929   0.55497   0.03310   0.00000  Uiso   1.00
H558   H     0.73074   0.42689   0.06109   0.00000  Uiso   1.00
H559   H     0.69256   0.51522   0.03108   0.00000  Uiso   1.00
H560   H     0.68285   0.48382   0.08153   0.00000  Uiso   1.00
N561   N     0.83333   0.61907   0.25000   0.00000  Uiso   1.00
N562   N     0.83333   0.38093   0.25000   0.00000  Uiso   1.00
N563   N     0.72546   0.45317   0.03889   0.00000  Uiso   1.00
N564   N     0.94782   0.52364   0.46064   0.00000  Uiso   1.00
N565   N     0.87893   0.37868   0.31659   0.00000  Uiso   1.00
N566   N     0.79535   0.61958   0.17949   0.00000  Uiso   1.00
N567   N     0.79105   0.38258   0.18205   0.00000  Uiso   1.00
N568   N     0.89224   0.61900   0.30125   0.00000  Uiso   1.00
O569   O     0.77226   0.53821   0.25000   0.00000  Uiso   1.00
O570   O     0.75989   0.47784   0.11440   0.00000  Uiso   1.00
O571   O     0.76438   0.47609   0.37786   0.00000  Uiso   1.00
O572   O     0.89858   0.53441   0.12138   0.00000  Uiso   1.00
O573   O     0.72103   0.47892   0.45194   0.00000  Uiso   1.00
O574   O     0.94070   0.53694   0.05170   0.00000  Uiso   1.00
O575   O     0.70808   0.42110   0.28445   0.00000  Uiso   1.00
O576   O     0.96091   0.57951   0.22934   0.00000  Uiso   1.00
O577   O     0.96230   0.41685   0.25664   0.00000  Uiso   1.00
O578   O     0.70773   0.58204   0.26638   0.00000  Uiso   1.00
O579   O     0.89441   0.46179   0.25001   0.00000  Uiso   1.00
O580   O     0.89441   0.53821   0.25001   0.00000  Uiso   1.00
O581   O     0.77226   0.46179   0.25000   0.00000  Uiso   1.00
O582   O     0.83333   0.53823   0.18393   0.00000  Uiso   1.00
O583   O     0.83334   0.46177   0.31608   0.00000  Uiso   1.00
O584   O     0.83334   0.53823   0.31608   0.00000  Uiso   1.00
O585   O     0.83333   0.46177   0.18393   0.00000  Uiso   1.00
O586   O     0.91053   0.49889   0.38706   0.00000  Uiso   1.00
Zn587  Zn    0.83333   0.55104   0.25000   0.00000  Uiso   1.00
Zn588  Zn    0.83333   0.44896   0.25000   0.00000  Uiso   1.00
C589   C     0.08724   0.83358   0.25572   0.00000  Uiso   1.00
C590   C     0.04320   0.83429   0.26385   0.00000  Uiso   1.00
C591   C     0.18908   0.68985   0.28206   0.00000  Uiso   1.00
C592   C     0.14516   0.97638   0.21721   0.00000  Uiso   1.00
C593   C     0.14510   0.69127   0.21727   0.00000  Uiso   1.00
C594   C     0.19123   0.97531   0.28006   0.00000  Uiso   1.00
C595   C     0.16640   0.83356   0.16374   0.00000  Uiso   1.00
C596   C     0.16733   0.83303   0.33629   0.00000  Uiso   1.00
C597   C     0.20613   0.83513   0.40810   0.00000  Uiso   1.00
C598   C     0.12940   0.82069   0.09242   0.00000  Uiso   1.00
C599   C     0.16821   0.83166   0.38399   0.00000  Uiso   1.00
C600   C     0.24682   0.83301   0.24765   0.00000  Uiso   1.00
C601   C     0.16524   0.83442   0.11607   0.00000  Uiso   1.00
C602   C     0.13116   0.82241   0.40461   0.00000  Uiso   1.00
C603   C     0.20006   0.85037   0.09505   0.00000  Uiso   1.00
C604   C     0.12991   0.82329   0.45144   0.00000  Uiso   1.00
C605   C     0.20209   0.84763   0.04837   0.00000  Uiso   1.00
C606   C     0.16720   0.83239   0.47653   0.00000  Uiso   1.00
C607   C     0.16636   0.83322   0.02347   0.00000  Uiso   1.00
C608   C     0.20542   0.83978   0.45476   0.00000  Uiso   1.00
C609   C     0.12980   0.81943   0.04550   0.00000  Uiso   1.00
C610   C     0.09267   0.81456   0.47384   0.00000  Uiso   1.00
C611   C     0.09393   0.80729   0.01979   0.00000  Uiso   1.00
C612   C     0.23924   0.85774   0.02661   0.00000  Uiso   1.00
C613   C     0.02219   0.81423   0.04528   0.00000  Uiso   1.00
C614   C     0.29097   0.90063   0.44227   0.00000  Uiso   1.00
C615   C     0.19693   0.70841   0.36168   0.00000  Uiso   1.00
C616   C     0.08418   0.94606   0.17671   0.00000  Uiso   1.00
C617   C     0.07978   0.72206   0.18552   0.00000  Uiso   1.00
C618   C     0.22242   0.93966   0.34770   0.00000  Uiso   1.00
C619   C     0.24159   0.85176   0.48027   0.00000  Uiso   1.00
C620   C     0.02215   0.79350   0.26900   0.00000  Uiso   1.00
C621   C     0.31283   0.87372   0.24560   0.00000  Uiso   1.00
C622   C     0.31382   0.79187   0.25737   0.00000  Uiso   1.00
C623   C     0.02108   0.87504   0.25910   0.00000  Uiso   1.00
C624   C     0.29175   0.83235   0.24735   0.00000  Uiso   1.00
H625   H     0.24029   0.81948   0.35674   0.00000  Uiso   1.00
H626   H     0.32824   0.79830   0.02851   0.00000  Uiso   1.00
H627   H     0.29517   0.82909   0.44713   0.00000  Uiso   1.00
H628   H     0.29505   0.89811   0.40565   0.00000  Uiso   1.00
H629   H     0.32068   0.91230   0.45786   0.00000  Uiso   1.00
H630   H     0.26615   0.92590   0.44872   0.00000  Uiso   1.00
H631   H     0.06414   0.76273   0.30588   0.00000  Uiso   1.00
H632   H     0.27662   0.90489   0.20281   0.00000  Uiso   1.00
H633   H     0.28144   0.74734   0.22687   0.00000  Uiso   1.00
H634   H     0.02035   0.94023   0.26745   0.00000  Uiso   1.00
H635   H     0.22536   0.74224   0.30894   0.00000  Uiso   1.00
H636   H     0.09280   0.82680   0.14349   0.00000  Uiso   1.00
H637   H     0.17101   0.68419   0.36388   0.00000  Uiso   1.00
H638   H     0.18542   0.74118   0.37346   0.00000  Uiso   1.00
H639   H     0.22282   0.69818   0.38504   0.00000  Uiso   1.00
H640   H     0.14141   0.96182   0.14948   0.00000  Uiso   1.00
H641   H     0.06824   0.96187   0.20503   0.00000  Uiso   1.00
H642   H     0.07783   0.90953   0.17647   0.00000  Uiso   1.00
H643   H     0.07094   0.96060   0.14497   0.00000  Uiso   1.00
H644   H     0.13351   0.70771   0.15034   0.00000  Uiso   1.00
H645   H     0.06310   0.70484   0.15762   0.00000  Uiso   1.00
H646   H     0.07174   0.75824   0.18272   0.00000  Uiso   1.00
H647   H     0.08863   0.77994   0.38951   0.00000  Uiso   1.00
H648   H     0.06844   0.70899   0.21779   0.00000  Uiso   1.00
H649   H     0.25414   0.96559   0.29397   0.00000  Uiso   1.00
H650   H     0.24285   0.96089   0.36907   0.00000  Uiso   1.00
H651   H     0.23414   0.90496   0.35165   0.00000  Uiso   1.00
H652   H     0.18986   0.94154   0.35908   0.00000  Uiso   1.00
H653   H     0.23496   0.89943   0.11157   0.00000  Uiso   1.00
H654   H     0.05183   0.83886   0.43183   0.00000  Uiso   1.00
H655   H     0.29263   0.88831   0.03310   0.00000  Uiso   1.00
H656   H     0.06407   0.76022   0.06109   0.00000  Uiso   1.00
H657   H     0.02589   0.84855   0.03108   0.00000  Uiso   1.00
H658   H     0.01618   0.81715   0.08153   0.00000  Uiso   1.00
N659   N     0.16667   0.95240   0.25000   0.00000  Uiso   1.00
N660   N     0.16667   0.71427   0.25000   0.00000  Uiso   1.00
N661   N     0.05879   0.78650   0.03889   0.00000  Uiso   1.00
N662   N     0.28115   0.85697   0.46064   0.00000  Uiso   1.00
N663   N     0.21226   0.71201   0.31659   0.00000  Uiso   1.00
N664   N     0.12868   0.95292   0.17949   0.00000  Uiso   1.00
N665   N     0.12438   0.71592   0.18205   0.00000  Uiso   1.00
N666   N     0.22558   0.95234   0.30125   0.00000  Uiso   1.00
O667   O     0.10559   0.87154   0.25000   0.00000  Uiso   1.00
O668   O     0.09322   0.81117   0.11440   0.00000  Uiso   1.00
O669   O     0.09772   0.80942   0.37786   0.00000  Uiso   1.00
O670   O     0.23191   0.86774   0.12138   0.00000  Uiso   1.00
O671   O     0.05436   0.81225   0.45194   0.00000  Uiso   1.00
O672   O     0.27404   0.87027   0.05170   0.00000  Uiso   1.00
O673   O     0.04141   0.75443   0.28445   0.00000  Uiso   1.00
O674   O     0.29425   0.91285   0.22934   0.00000  Uiso   1.00
O675   O     0.29563   0.75018   0.25664   0.00000  Uiso   1.00
O676   O     0.04107   0.91537   0.26638   0.00000  Uiso   1.00
O677   O     0.22774   0.79513   0.25001   0.00000  Uiso   1.00
O678   O     0.22774   0.87154   0.25001   0.00000  Uiso   1.00
O679   O     0.10559   0.79513   0.25000   0.00000  Uiso   1.00
O680   O     0.16666   0.87156   0.18393   0.00000  Uiso   1.00
O681   O     0.16667   0.79511   0.31608   0.00000  Uiso   1.00
O682   O     0.16667   0.87156   0.31608   0.00000  Uiso   1.00
O683   O     0.16666   0.79511   0.18393   0.00000  Uiso   1.00
O684   O     0.24386   0.83223   0.38706   0.00000  Uiso   1.00
Zn685  Zn    0.16667   0.88437   0.25000   0.00000  Uiso   1.00
Zn686  Zn    0.16667   0.78229   0.25000   0.00000  Uiso   1.00
C687   C     0.42058   0.83358   0.25572   0.00000  Uiso   1.00
C688   C     0.37654   0.83429   0.26385   0.00000  Uiso   1.00
C689   C     0.52242   0.68985   0.28206   0.00000  Uiso   1.00
C690   C     0.47849   0.97638   0.21721   0.00000  Uiso   1.00
C691   C     0.47843   0.69127   0.21727   0.00000  Uiso   1.00
C692   C     0.52456   0.97531   0.28006   0.00000  Uiso   1.00
C693   C     0.49973   0.83356   0.16374   0.00000  Uiso   1.00
C694   C     0.50066   0.83303   0.33629   0.00000  Uiso   1.00
C695   C     0.53947   0.83513   0.40810   0.00000  Uiso   1.00
C696   C     0.46274   0.82069   0.09242   0.00000  Uiso   1.00
C697   C     0.50155   0.83166   0.38399   0.00000  Uiso   1.00
C698   C     0.58015   0.83301   0.24765   0.00000  Uiso   1.00
C699   C     0.49857   0.83442   0.11607   0.00000  Uiso   1.00
C700   C     0.46449   0.82241   0.40461   0.00000  Uiso   1.00
C701   C     0.53339   0.85037   0.09505   0.00000  Uiso   1.00
C702   C     0.46324   0.82329   0.45144   0.00000  Uiso   1.00
C703   C     0.53543   0.84763   0.04837   0.00000  Uiso   1.00
C704   C     0.50053   0.83239   0.47653   0.00000  Uiso   1.00
C705   C     0.49970   0.83322   0.02347   0.00000  Uiso   1.00
C706   C     0.53875   0.83978   0.45476   0.00000  Uiso   1.00
C707   C     0.46313   0.81943   0.04550   0.00000  Uiso   1.00
C708   C     0.42601   0.81456   0.47384   0.00000  Uiso   1.00
C709   C     0.42726   0.80729   0.01979   0.00000  Uiso   1.00
C710   C     0.57257   0.85774   0.02661   0.00000  Uiso   1.00
C711   C     0.35553   0.81423   0.04528   0.00000  Uiso   1.00
C712   C     0.62430   0.90063   0.44227   0.00000  Uiso   1.00
C713   C     0.53027   0.70841   0.36168   0.00000  Uiso   1.00
C714   C     0.41751   0.94606   0.17671   0.00000  Uiso   1.00
C715   C     0.41312   0.72206   0.18552   0.00000  Uiso   1.00
C716   C     0.55575   0.93966   0.34770   0.00000  Uiso   1.00
C717   C     0.57492   0.85176   0.48027   0.00000  Uiso   1.00
C718   C     0.35548   0.79350   0.26900   0.00000  Uiso   1.00
C719   C     0.64616   0.87372   0.24560   0.00000  Uiso   1.00
C720   C     0.64715   0.79187   0.25737   0.00000  Uiso   1.00
C721   C     0.35442   0.87504   0.25910   0.00000  Uiso   1.00
C722   C     0.62509   0.83235   0.24735   0.00000  Uiso   1.00
H723   H     0.57362   0.81948   0.35674   0.00000  Uiso   1.00
H724   H     0.66157   0.79830   0.02851   0.00000  Uiso   1.00
H725   H     0.62850   0.82909   0.44713   0.00000  Uiso   1.00
H726   H     0.62838   0.89811   0.40565   0.00000  Uiso   1.00
H727   H     0.65401   0.91230   0.45786   0.00000  Uiso   1.00
H728   H     0.59948   0.92590   0.44872   0.00000  Uiso   1.00
H729   H     0.39747   0.76273   0.30588   0.00000  Uiso   1.00
H730   H     0.60995   0.90489   0.20281   0.00000  Uiso   1.00
H731   H     0.61477   0.74734   0.22687   0.00000  Uiso   1.00
H732   H     0.35368   0.94023   0.26745   0.00000  Uiso   1.00
H733   H     0.55869   0.74224   0.30894   0.00000  Uiso   1.00
H734   H     0.42613   0.82680   0.14349   0.00000  Uiso   1.00
H735   H     0.50434   0.68419   0.36388   0.00000  Uiso   1.00
H736   H     0.51875   0.74118   0.37346   0.00000  Uiso   1.00
H737   H     0.55616   0.69818   0.38504   0.00000  Uiso   1.00
H738   H     0.47474   0.96182   0.14948   0.00000  Uiso   1.00
H739   H     0.40158   0.96187   0.20503   0.00000  Uiso   1.00
H740   H     0.41116   0.90953   0.17647   0.00000  Uiso   1.00
H741   H     0.40427   0.96060   0.14497   0.00000  Uiso   1.00
H742   H     0.46684   0.70771   0.15034   0.00000  Uiso   1.00
H743   H     0.39643   0.70484   0.15762   0.00000  Uiso   1.00
H744   H     0.40507   0.75824   0.18272   0.00000  Uiso   1.00
H745   H     0.42196   0.77994   0.38951   0.00000  Uiso   1.00
H746   H     0.40177   0.70899   0.21779   0.00000  Uiso   1.00
H747   H     0.58748   0.96559   0.29397   0.00000  Uiso   1.00
H748   H     0.57618   0.96089   0.36907   0.00000  Uiso   1.00
H749   H     0.56747   0.90496   0.35165   0.00000  Uiso   1.00
H750   H     0.52319   0.94154   0.35908   0.00000  Uiso   1.00
H751   H     0.56829   0.89943   0.11157   0.00000  Uiso   1.00
H752   H     0.38516   0.83886   0.43183   0.00000  Uiso   1.00
H753   H     0.62596   0.88831   0.03310   0.00000  Uiso   1.00
H754   H     0.39741   0.76022   0.06109   0.00000  Uiso   1.00
H755   H     0.35922   0.84855   0.03108   0.00000  Uiso   1.00
H756   H     0.34952   0.81715   0.08153   0.00000  Uiso   1.00
N757   N     0.50000   0.95240   0.25000   0.00000  Uiso   1.00
N758   N     0.50000   0.71427   0.25000   0.00000  Uiso   1.00
N759   N     0.39212   0.78650   0.03889   0.00000  Uiso   1.00
N760   N     0.61449   0.85697   0.46064   0.00000  Uiso   1.00
N761   N     0.54560   0.71201   0.31659   0.00000  Uiso   1.00
N762   N     0.46202   0.95292   0.17949   0.00000  Uiso   1.00
N763   N     0.45772   0.71592   0.18205   0.00000  Uiso   1.00
N764   N     0.55891   0.95234   0.30125   0.00000  Uiso   1.00
O765   O     0.43892   0.87154   0.25000   0.00000  Uiso   1.00
O766   O     0.42655   0.81117   0.11440   0.00000  Uiso   1.00
O767   O     0.43105   0.80942   0.37786   0.00000  Uiso   1.00
O768   O     0.56524   0.86774   0.12138   0.00000  Uiso   1.00
O769   O     0.38769   0.81225   0.45194   0.00000  Uiso   1.00
O770   O     0.60737   0.87027   0.05170   0.00000  Uiso   1.00
O771   O     0.37475   0.75443   0.28445   0.00000  Uiso   1.00
O772   O     0.62758   0.91285   0.22934   0.00000  Uiso   1.00
O773   O     0.62897   0.75018   0.25664   0.00000  Uiso   1.00
O774   O     0.37440   0.91537   0.26638   0.00000  Uiso   1.00
O775   O     0.56108   0.79513   0.25001   0.00000  Uiso   1.00
O776   O     0.56108   0.87154   0.25001   0.00000  Uiso   1.00
O777   O     0.43892   0.79513   0.25000   0.00000  Uiso   1.00
O778   O     0.49999   0.87156   0.18393   0.00000  Uiso   1.00
O779   O     0.50001   0.79511   0.31608   0.00000  Uiso   1.00
O780   O     0.50001   0.87156   0.31608   0.00000  Uiso   1.00
O781   O     0.49999   0.79511   0.18393   0.00000  Uiso   1.00
O782   O     0.57719   0.83223   0.38706   0.00000  Uiso   1.00
Zn783  Zn    0.50000   0.88437   0.25000   0.00000  Uiso   1.00
Zn784  Zn    0.50000   0.78229   0.25000   0.00000  Uiso   1.00
C785   C     0.75391   0.83358   0.25572   0.00000  Uiso   1.00
C786   C     0.70987   0.83429   0.26385   0.00000  Uiso   1.00
C787   C     0.85575   0.68985   0.28206   0.00000  Uiso   1.00
C788   C     0.81182   0.97638   0.21721   0.00000  Uiso   1.00
C789   C     0.81176   0.69127   0.21727   0.00000  Uiso   1.00
C790   C     0.85789   0.97531   0.28006   0.00000  Uiso   1.00
C791   C     0.83307   0.83356   0.16374   0.00000  Uiso   1.00
C792   C     0.83399   0.83303   0.33629   0.00000  Uiso   1.00
C793   C     0.87280   0.83513   0.40810   0.00000  Uiso   1.00
C794   C     0.79607   0.82069   0.09242   0.00000  Uiso   1.00
C795   C     0.83488   0.83166   0.38399   0.00000  Uiso   1.00
C796   C     0.91348   0.83301   0.24765   0.00000  Uiso   1.00
C797   C     0.83190   0.83442   0.11607   0.00000  Uiso   1.00
C798   C     0.79783   0.82241   0.40461   0.00000  Uiso   1.00
C799   C     0.86673   0.85037   0.09505   0.00000  Uiso   1.00
C800   C     0.79657   0.82329   0.45144   0.00000  Uiso   1.00
C801   C     0.86876   0.84763   0.04837   0.00000  Uiso   1.00
C802   C     0.83387   0.83239   0.47653   0.00000  Uiso   1.00
C803   C     0.83303   0.83322   0.02347   0.00000  Uiso   1.00
C804   C     0.87208   0.83978   0.45476   0.00000  Uiso   1.00
C805   C     0.79646   0.81943   0.04550   0.00000  Uiso   1.00
C806   C     0.75934   0.81456   0.47384   0.00000  Uiso   1.00
C807   C     0.76059   0.80729   0.01979   0.00000  Uiso   1.00
C808   C     0.90591   0.85774   0.02661   0.00000  Uiso   1.00
C809   C     0.68886   0.81423   0.04528   0.00000  Uiso   1.00
C810   C     0.95764   0.90063   0.44227   0.00000  Uiso   1.00
C811   C     0.86360   0.70841   0.36168   0.00000  Uiso   1.00
C812   C     0.75084   0.94606   0.17671   0.00000  Uiso   1.00
C813   C     0.74645   0.72206   0.18552   0.00000  Uiso   1.00
C814   C     0.88908   0.93966   0.34770   0.00000  Uiso   1.00
C815   C     0.90825   0.85176   0.48027   0.00000  Uiso   1.00
C816   C     0.68881   0.79350   0.26900   0.00000  Uiso   1.00
C817   C     0.97950   0.87372   0.24560   0.00000  Uiso   1.00
C818   C     0.98048   0.79187   0.25737   0.00000  Uiso   1.00
C819   C     0.68775   0.87504   0.25910   0.00000  Uiso   1.00
C820   C     0.95842   0.83235   0.24735   0.00000  Uiso   1.00
H821   H     0.90696   0.81948   0.35674   0.00000  Uiso   1.00
H822   H     0.99490   0.79830   0.02851   0.00000  Uiso   1.00
H823   H     0.96183   0.82909   0.44713   0.00000  Uiso   1.00
H824   H     0.96171   0.89811   0.40565   0.00000  Uiso   1.00
H825   H     0.98734   0.91230   0.45786   0.00000  Uiso   1.00
H826   H     0.93282   0.92590   0.44872   0.00000  Uiso   1.00
H827   H     0.73081   0.76273   0.30588   0.00000  Uiso   1.00
H828   H     0.94328   0.90489   0.20281   0.00000  Uiso   1.00
H829   H     0.94811   0.74734   0.22687   0.00000  Uiso   1.00
H830   H     0.68701   0.94023   0.26745   0.00000  Uiso   1.00
H831   H     0.89202   0.74224   0.30894   0.00000  Uiso   1.00
H832   H     0.75947   0.82680   0.14349   0.00000  Uiso   1.00
H833   H     0.83767   0.68419   0.36388   0.00000  Uiso   1.00
H834   H     0.85208   0.74118   0.37346   0.00000  Uiso   1.00
H835   H     0.88949   0.69818   0.38504   0.00000  Uiso   1.00
H836   H     0.80807   0.96182   0.14948   0.00000  Uiso   1.00
H837   H     0.73491   0.96187   0.20503   0.00000  Uiso   1.00
H838   H     0.74449   0.90953   0.17647   0.00000  Uiso   1.00
H839   H     0.73760   0.96060   0.14497   0.00000  Uiso   1.00
H840   H     0.80017   0.70771   0.15034   0.00000  Uiso   1.00
H841   H     0.72977   0.70484   0.15762   0.00000  Uiso   1.00
H842   H     0.73841   0.75824   0.18272   0.00000  Uiso   1.00
H843   H     0.75529   0.77994   0.38951   0.00000  Uiso   1.00
H844   H     0.73511   0.70899   0.21779   0.00000  Uiso   1.00
H845   H     0.92081   0.96559   0.29397   0.00000  Uiso   1.00
H846   H     0.90951   0.96089   0.36907   0.00000  Uiso   1.00
H847   H     0.90080   0.90496   0.35165   0.00000  Uiso   1.00
H848   H     0.85652   0.94154   0.35908   0.00000  Uiso   1.00
H849   H     0.90162   0.89943   0.11157   0.00000  Uiso   1.00
H850   H     0.71850   0.83886   0.43183   0.00000  Uiso   1.00
H851   H     0.95929   0.88831   0.03310   0.00000  Uiso   1.00
H852   H     0.73074   0.76022   0.06109   0.00000  Uiso   1.00
H853   H     0.69256   0.84855   0.03108   0.00000  Uiso   1.00
H854   H     0.68285   0.81715   0.08153   0.00000  Uiso   1.00
N855   N     0.83333   0.95240   0.25000   0.00000  Uiso   1.00
N856   N     0.83333   0.71427   0.25000   0.00000  Uiso   1.00
N857   N     0.72546   0.78650   0.03889   0.00000  Uiso   1.00
N858   N     0.94782   0.85697   0.46064   0.00000  Uiso   1.00
N859   N     0.87893   0.71201   0.31659   0.00000  Uiso   1.00
N860   N     0.79535   0.95292   0.17949   0.00000  Uiso   1.00
N861   N     0.79105   0.71592   0.18205   0.00000  Uiso   1.00
N862   N     0.89224   0.95234   0.30125   0.00000  Uiso   1.00
O863   O     0.77226   0.87154   0.25000   0.00000  Uiso   1.00
O864   O     0.75989   0.81117   0.11440   0.00000  Uiso   1.00
O865   O     0.76438   0.80942   0.37786   0.00000  Uiso   1.00
O866   O     0.89858   0.86774   0.12138   0.00000  Uiso   1.00
O867   O     0.72103   0.81225   0.45194   0.00000  Uiso   1.00
O868   O     0.94070   0.87027   0.05170   0.00000  Uiso   1.00
O869   O     0.70808   0.75443   0.28445   0.00000  Uiso   1.00
O870   O     0.96091   0.91285   0.22934   0.00000  Uiso   1.00
O871   O     0.96230   0.75018   0.25664   0.00000  Uiso   1.00
O872   O     0.70773   0.91537   0.26638   0.00000  Uiso   1.00
O873   O     0.89441   0.79513   0.25001   0.00000  Uiso   1.00
O874   O     0.89441   0.87154   0.25001   0.00000  Uiso   1.00
O875   O     0.77226   0.79513   0.25000   0.00000  Uiso   1.00
O876   O     0.83333   0.87156   0.18393   0.00000  Uiso   1.00
O877   O     0.83334   0.79511   0.31608   0.00000  Uiso   1.00
O878   O     0.83334   0.87156   0.31608   0.00000  Uiso   1.00
O879   O     0.83333   0.79511   0.18393   0.00000  Uiso   1.00
O880   O     0.91053   0.83223   0.38706   0.00000  Uiso   1.00
Zn881  Zn    0.83333   0.88437   0.25000   0.00000  Uiso   1.00
Zn882  Zn    0.83333   0.78229   0.25000   0.00000  Uiso   1.00
C883   C     0.08724   0.16691   0.75572   0.00000  Uiso   1.00
C884   C     0.04320   0.16762   0.76385   0.00000  Uiso   1.00
C885   C     0.18908   0.02319   0.78206   0.00000  Uiso   1.00
C886   C     0.14516   0.30972   0.71721   0.00000  Uiso   1.00
C887   C     0.14510   0.02461   0.71727   0.00000  Uiso   1.00
C888   C     0.19123   0.30864   0.78006   0.00000  Uiso   1.00
C889   C     0.16640   0.16689   0.66374   0.00000  Uiso   1.00
C890   C     0.16733   0.16636   0.83629   0.00000  Uiso   1.00
C891   C     0.20613   0.16846   0.90810   0.00000  Uiso   1.00
C892   C     0.12940   0.15402   0.59242   0.00000  Uiso   1.00
C893   C     0.16821   0.16500   0.88399   0.00000  Uiso   1.00
C894   C     0.24682   0.16635   0.74765   0.00000  Uiso   1.00
C895   C     0.16524   0.16776   0.61607   0.00000  Uiso   1.00
C896   C     0.13116   0.15575   0.90461   0.00000  Uiso   1.00
C897   C     0.20006   0.18370   0.59505   0.00000  Uiso   1.00
C898   C     0.12991   0.15663   0.95144   0.00000  Uiso   1.00
C899   C     0.20209   0.18096   0.54837   0.00000  Uiso   1.00
C900   C     0.16720   0.16572   0.97653   0.00000  Uiso   1.00
C901   C     0.16636   0.16656   0.52347   0.00000  Uiso   1.00
C902   C     0.20542   0.17311   0.95476   0.00000  Uiso   1.00
C903   C     0.12980   0.15277   0.54550   0.00000  Uiso   1.00
C904   C     0.09267   0.14790   0.97384   0.00000  Uiso   1.00
C905   C     0.09393   0.14062   0.51979   0.00000  Uiso   1.00
C906   C     0.23924   0.19108   0.52661   0.00000  Uiso   1.00
C907   C     0.02219   0.14757   0.54528   0.00000  Uiso   1.00
C908   C     0.29097   0.23396   0.94227   0.00000  Uiso   1.00
C909   C     0.19693   0.04174   0.86168   0.00000  Uiso   1.00
C910   C     0.08418   0.27940   0.67671   0.00000  Uiso   1.00
C911   C     0.07978   0.05539   0.68552   0.00000  Uiso   1.00
C912   C     0.22242   0.27299   0.84770   0.00000  Uiso   1.00
C913   C     0.24159   0.18509   0.98027   0.00000  Uiso   1.00
C914   C     0.02215   0.12683   0.76900   0.00000  Uiso   1.00
C915   C     0.31283   0.20705   0.74560   0.00000  Uiso   1.00
C916   C     0.31382   0.12520   0.75737   0.00000  Uiso   1.00
C917   C     0.02108   0.20837   0.75910   0.00000  Uiso   1.00
C918   C     0.29175   0.16568   0.74735   0.00000  Uiso   1.00
H919   H     0.24029   0.15281   0.85674   0.00000  Uiso   1.00
H920   H     0.32824   0.13163   0.52851   0.00000  Uiso   1.00
H921   H     0.29517   0.16242   0.94713   0.00000  Uiso   1.00
H922   H     0.29505   0.23144   0.90565   0.00000  Uiso   1.00
H923   H     0.32068   0.24563   0.95786   0.00000  Uiso   1.00
H924   H     0.26615   0.25924   0.94872   0.00000  Uiso   1.00
H925   H     0.06414   0.09607   0.80588   0.00000  Uiso   1.00
H926   H     0.27662   0.23823   0.70281   0.00000  Uiso   1.00
H927   H     0.28144   0.08067   0.72687   0.00000  Uiso   1.00
H928   H     0.02035   0.27356   0.76745   0.00000  Uiso   1.00
H929   H     0.22536   0.07557   0.80894   0.00000  Uiso   1.00
H930   H     0.09280   0.16013   0.64349   0.00000  Uiso   1.00
H931   H     0.17101   0.01752   0.86388   0.00000  Uiso   1.00
H932   H     0.18542   0.07451   0.87346   0.00000  Uiso   1.00
H933   H     0.22282   0.03151   0.88504   0.00000  Uiso   1.00
H934   H     0.14141   0.29515   0.64948   0.00000  Uiso   1.00
H935   H     0.06824   0.29520   0.70503   0.00000  Uiso   1.00
H936   H     0.07783   0.24286   0.67647   0.00000  Uiso   1.00
H937   H     0.07094   0.29394   0.64497   0.00000  Uiso   1.00
H938   H     0.13351   0.04105   0.65034   0.00000  Uiso   1.00
H939   H     0.06310   0.03818   0.65762   0.00000  Uiso   1.00
H940   H     0.07174   0.09157   0.68272   0.00000  Uiso   1.00
H941   H     0.08863   0.11328   0.88951   0.00000  Uiso   1.00
H942   H     0.06844   0.04232   0.71779   0.00000  Uiso   1.00
H943   H     0.25414   0.29892   0.79397   0.00000  Uiso   1.00
H944   H     0.24285   0.29422   0.86907   0.00000  Uiso   1.00
H945   H     0.23414   0.23829   0.85165   0.00000  Uiso   1.00
H946   H     0.18986   0.27487   0.85908   0.00000  Uiso   1.00
H947   H     0.23496   0.23277   0.61157   0.00000  Uiso   1.00
H948   H     0.05183   0.17219   0.93183   0.00000  Uiso   1.00
H949   H     0.29263   0.22164   0.53310   0.00000  Uiso   1.00
H950   H     0.06407   0.09355   0.56109   0.00000  Uiso   1.00
H951   H     0.02589   0.18189   0.53108   0.00000  Uiso   1.00
H952   H     0.01618   0.15049   0.58153   0.00000  Uiso   1.00
N953   N     0.16667   0.28573   0.75000   0.00000  Uiso   1.00
N954   N     0.16667   0.04760   0.75000   0.00000  Uiso   1.00
N955   N     0.05879   0.11984   0.53889   0.00000  Uiso   1.00
N956   N     0.28115   0.19031   0.96064   0.00000  Uiso   1.00
N957   N     0.21226   0.04535   0.81659   0.00000  Uiso   1.00
N958   N     0.12868   0.28625   0.67949   0.00000  Uiso   1.00
N959   N     0.12438   0.04925   0.68205   0.00000  Uiso   1.00
N960   N     0.22558   0.28567   0.80125   0.00000  Uiso   1.00
O961   O     0.10559   0.20487   0.75000   0.00000  Uiso   1.00
O962   O     0.09322   0.14450   0.61440   0.00000  Uiso   1.00
O963   O     0.09772   0.14276   0.87786   0.00000  Uiso   1.00
O964   O     0.23191   0.20107   0.62138   0.00000  Uiso   1.00
O965   O     0.05436   0.14558   0.95194   0.00000  Uiso   1.00
O966   O     0.27404   0.20360   0.55170   0.00000  Uiso   1.00
O967   O     0.04141   0.08777   0.78445   0.00000  Uiso   1.00
O968   O     0.29425   0.24618   0.72934   0.00000  Uiso   1.00
O969   O     0.29563   0.08352   0.75664   0.00000  Uiso   1.00
O970   O     0.04107   0.24871   0.76638   0.00000  Uiso   1.00
O971   O     0.22774   0.12846   0.75001   0.00000  Uiso   1.00
O972   O     0.22774   0.20487   0.75001   0.00000  Uiso   1.00
O973   O     0.10559   0.12846   0.75000   0.00000  Uiso   1.00
O974   O     0.16666   0.20489   0.68393   0.00000  Uiso   1.00
O975   O     0.16667   0.12844   0.81608   0.00000  Uiso   1.00
O976   O     0.16667   0.20489   0.81608   0.00000  Uiso   1.00
O977   O     0.16666   0.12844   0.68393   0.00000  Uiso   1.00
O978   O     0.24386   0.16556   0.88706   0.00000  Uiso   1.00
Zn979  Zn    0.16667   0.21771   0.75000   0.00000  Uiso   1.00
Zn980  Zn    0.16667   0.11563   0.75000   0.00000  Uiso   1.00
C981   C     0.42058   0.16691   0.75572   0.00000  Uiso   1.00
C982   C     0.37654   0.16762   0.76385   0.00000  Uiso   1.00
C983   C     0.52242   0.02319   0.78206   0.00000  Uiso   1.00
C984   C     0.47849   0.30972   0.71721   0.00000  Uiso   1.00
C985   C     0.47843   0.02461   0.71727   0.00000  Uiso   1.00
C986   C     0.52456   0.30864   0.78006   0.00000  Uiso   1.00
C987   C     0.49973   0.16689   0.66374   0.00000  Uiso   1.00
C988   C     0.50066   0.16636   0.83629   0.00000  Uiso   1.00
C989   C     0.53947   0.16846   0.90810   0.00000  Uiso   1.00
C990   C     0.46274   0.15402   0.59242   0.00000  Uiso   1.00
C991   C     0.50155   0.16500   0.88399   0.00000  Uiso   1.00
C992   C     0.58015   0.16635   0.74765   0.00000  Uiso   1.00
C993   C     0.49857   0.16776   0.61607   0.00000  Uiso   1.00
C994   C     0.46449   0.15575   0.90461   0.00000  Uiso   1.00
C995   C     0.53339   0.18370   0.59505   0.00000  Uiso   1.00
C996   C     0.46324   0.15663   0.95144   0.00000  Uiso   1.00
C997   C     0.53543   0.18096   0.54837   0.00000  Uiso   1.00
C998   C     0.50053   0.16572   0.97653   0.00000  Uiso   1.00
C999   C     0.49970   0.16656   0.52347   0.00000  Uiso   1.00
C1000  C     0.53875   0.17311   0.95476   0.00000  Uiso   1.00
C1001  C     0.46313   0.15277   0.54550   0.00000  Uiso   1.00
C1002  C     0.42601   0.14790   0.97384   0.00000  Uiso   1.00
C1003  C     0.42726   0.14062   0.51979   0.00000  Uiso   1.00
C1004  C     0.57257   0.19108   0.52661   0.00000  Uiso   1.00
C1005  C     0.35553   0.14757   0.54528   0.00000  Uiso   1.00
C1006  C     0.62430   0.23396   0.94227   0.00000  Uiso   1.00
C1007  C     0.53027   0.04174   0.86168   0.00000  Uiso   1.00
C1008  C     0.41751   0.27940   0.67671   0.00000  Uiso   1.00
C1009  C     0.41312   0.05539   0.68552   0.00000  Uiso   1.00
C1010  C     0.55575   0.27299   0.84770   0.00000  Uiso   1.00
C1011  C     0.57492   0.18509   0.98027   0.00000  Uiso   1.00
C1012  C     0.35548   0.12683   0.76900   0.00000  Uiso   1.00
C1013  C     0.64616   0.20705   0.74560   0.00000  Uiso   1.00
C1014  C     0.64715   0.12520   0.75737   0.00000  Uiso   1.00
C1015  C     0.35442   0.20837   0.75910   0.00000  Uiso   1.00
C1016  C     0.62509   0.16568   0.74735   0.00000  Uiso   1.00
H1017  H     0.57362   0.15281   0.85674   0.00000  Uiso   1.00
H1018  H     0.66157   0.13163   0.52851   0.00000  Uiso   1.00
H1019  H     0.62850   0.16242   0.94713   0.00000  Uiso   1.00
H1020  H     0.62838   0.23144   0.90565   0.00000  Uiso   1.00
H1021  H     0.65401   0.24563   0.95786   0.00000  Uiso   1.00
H1022  H     0.59948   0.25924   0.94872   0.00000  Uiso   1.00
H1023  H     0.39747   0.09607   0.80588   0.00000  Uiso   1.00
H1024  H     0.60995   0.23823   0.70281   0.00000  Uiso   1.00
H1025  H     0.61477   0.08067   0.72687   0.00000  Uiso   1.00
H1026  H     0.35368   0.27356   0.76745   0.00000  Uiso   1.00
H1027  H     0.55869   0.07557   0.80894   0.00000  Uiso   1.00
H1028  H     0.42613   0.16013   0.64349   0.00000  Uiso   1.00
H1029  H     0.50434   0.01752   0.86388   0.00000  Uiso   1.00
H1030  H     0.51875   0.07451   0.87346   0.00000  Uiso   1.00
H1031  H     0.55616   0.03151   0.88504   0.00000  Uiso   1.00
H1032  H     0.47474   0.29515   0.64948   0.00000  Uiso   1.00
H1033  H     0.40158   0.29520   0.70503   0.00000  Uiso   1.00
H1034  H     0.41116   0.24286   0.67647   0.00000  Uiso   1.00
H1035  H     0.40427   0.29394   0.64497   0.00000  Uiso   1.00
H1036  H     0.46684   0.04105   0.65034   0.00000  Uiso   1.00
H1037  H     0.39643   0.03818   0.65762   0.00000  Uiso   1.00
H1038  H     0.40507   0.09157   0.68272   0.00000  Uiso   1.00
H1039  H     0.42196   0.11328   0.88951   0.00000  Uiso   1.00
H1040  H     0.40177   0.04232   0.71779   0.00000  Uiso   1.00
H1041  H     0.58748   0.29892   0.79397   0.00000  Uiso   1.00
H1042  H     0.57618   0.29422   0.86907   0.00000  Uiso   1.00
H1043  H     0.56747   0.23829   0.85165   0.00000  Uiso   1.00
H1044  H     0.52319   0.27487   0.85908   0.00000  Uiso   1.00
H1045  H     0.56829   0.23277   0.61157   0.00000  Uiso   1.00
H1046  H     0.38516   0.17219   0.93183   0.00000  Uiso   1.00
H1047  H     0.62596   0.22164   0.53310   0.00000  Uiso   1.00
H1048  H     0.39741   0.09355   0.56109   0.00000  Uiso   1.00
H1049  H     0.35922   0.18189   0.53108   0.00000  Uiso   1.00
H1050  H     0.34952   0.15049   0.58153   0.00000  Uiso   1.00
N1051  N     0.50000   0.28573   0.75000   0.00000  Uiso   1.00
N1052  N     0.50000   0.04760   0.75000   0.00000  Uiso   1.00
N1053  N     0.39212   0.11984   0.53889   0.00000  Uiso   1.00
N1054  N     0.61449   0.19031   0.96064   0.00000  Uiso   1.00
N1055  N     0.54560   0.04535   0.81659   0.00000  Uiso   1.00
N1056  N     0.46202   0.28625   0.67949   0.00000  Uiso   1.00
N1057  N     0.45772   0.04925   0.68205   0.00000  Uiso   1.00
N1058  N     0.55891   0.28567   0.80125   0.00000  Uiso   1.00
O1059  O     0.43892   0.20487   0.75000   0.00000  Uiso   1.00
O1060  O     0.42655   0.14450   0.61440   0.00000  Uiso   1.00
O1061  O     0.43105   0.14276   0.87786   0.00000  Uiso   1.00
O1062  O     0.56524   0.20107   0.62138   0.00000  Uiso   1.00
O1063  O     0.38769   0.14558   0.95194   0.00000  Uiso   1.00
O1064  O     0.60737   0.20360   0.55170   0.00000  Uiso   1.00
O1065  O     0.37475   0.08777   0.78445   0.00000  Uiso   1.00
O1066  O     0.62758   0.24618   0.72934   0.00000  Uiso   1.00
O1067  O     0.62897   0.08352   0.75664   0.00000  Uiso   1.00
O1068  O     0.37440   0.24871   0.76638   0.00000  Uiso   1.00
O1069  O     0.56108   0.12846   0.75001   0.00000  Uiso   1.00
O1070  O     0.56108   0.20487   0.75001   0.00000  Uiso   1.00
O1071  O     0.43892   0.12846   0.75000   0.00000  Uiso   1.00
O1072  O     0.49999   0.20489   0.68393   0.00000  Uiso   1.00
O1073  O     0.50001   0.12844   0.81608   0.00000  Uiso   1.00
O1074  O     0.50001   0.20489   0.81608   0.00000  Uiso   1.00
O1075  O     0.49999   0.12844   0.68393   0.00000  Uiso   1.00
O1076  O     0.57719   0.16556   0.88706   0.00000  Uiso   1.00
Zn1077 Zn    0.50000   0.21771   0.75000   0.00000  Uiso   1.00
Zn1078 Zn    0.50000   0.11563   0.75000   0.00000  Uiso   1.00
C1079  C     0.75391   0.16691   0.75572   0.00000  Uiso   1.00
C1080  C     0.70987   0.16762   0.76385   0.00000  Uiso   1.00
C1081  C     0.85575   0.02319   0.78206   0.00000  Uiso   1.00
C1082  C     0.81182   0.30972   0.71721   0.00000  Uiso   1.00
C1083  C     0.81176   0.02461   0.71727   0.00000  Uiso   1.00
C1084  C     0.85789   0.30864   0.78006   0.00000  Uiso   1.00
C1085  C     0.83307   0.16689   0.66374   0.00000  Uiso   1.00
C1086  C     0.83399   0.16636   0.83629   0.00000  Uiso   1.00
C1087  C     0.87280   0.16846   0.90810   0.00000  Uiso   1.00
C1088  C     0.79607   0.15402   0.59242   0.00000  Uiso   1.00
C1089  C     0.83488   0.16500   0.88399   0.00000  Uiso   1.00
C1090  C     0.91348   0.16635   0.74765   0.00000  Uiso   1.00
C1091  C     0.83190   0.16776   0.61607   0.00000  Uiso   1.00
C1092  C     0.79783   0.15575   0.90461   0.00000  Uiso   1.00
C1093  C     0.86673   0.18370   0.59505   0.00000  Uiso   1.00
C1094  C     0.79657   0.15663   0.95144   0.00000  Uiso   1.00
C1095  C     0.86876   0.18096   0.54837   0.00000  Uiso   1.00
C1096  C     0.83387   0.16572   0.97653   0.00000  Uiso   1.00
C1097  C     0.83303   0.16656   0.52347   0.00000  Uiso   1.00
C1098  C     0.87208   0.17311   0.95476   0.00000  Uiso   1.00
C1099  C     0.79646   0.15277   0.54550   0.00000  Uiso   1.00
C1100  C     0.75934   0.14790   0.97384   0.00000  Uiso   1.00
C1101  C     0.76059   0.14062   0.51979   0.00000  Uiso   1.00
C1102  C     0.90591   0.19108   0.52661   0.00000  Uiso   1.00
C1103  C     0.68886   0.14757   0.54528   0.00000  Uiso   1.00
C1104  C     0.95764   0.23396   0.94227   0.00000  Uiso   1.00
C1105  C     0.86360   0.04174   0.86168   0.00000  Uiso   1.00
C1106  C     0.75084   0.27940   0.67671   0.00000  Uiso   1.00
C1107  C     0.74645   0.05539   0.68552   0.00000  Uiso   1.00
C1108  C     0.88908   0.27299   0.84770   0.00000  Uiso   1.00
C1109  C     0.90825   0.18509   0.98027   0.00000  Uiso   1.00
C1110  C     0.68881   0.12683   0.76900   0.00000  Uiso   1.00
C1111  C     0.97950   0.20705   0.74560   0.00000  Uiso   1.00
C1112  C     0.98048   0.12520   0.75737   0.00000  Uiso   1.00
C1113  C     0.68775   0.20837   0.75910   0.00000  Uiso   1.00
C1114  C     0.95842   0.16568   0.74735   0.00000  Uiso   1.00
H1115  H     0.90696   0.15281   0.85674   0.00000  Uiso   1.00
H1116  H     0.99490   0.13163   0.52851   0.00000  Uiso   1.00
H1117  H     0.96183   0.16242   0.94713   0.00000  Uiso   1.00
H1118  H     0.96171   0.23144   0.90565   0.00000  Uiso   1.00
H1119  H     0.98734   0.24563   0.95786   0.00000  Uiso   1.00
H1120  H     0.93282   0.25924   0.94872   0.00000  Uiso   1.00
H1121  H     0.73081   0.09607   0.80588   0.00000  Uiso   1.00
H1122  H     0.94328   0.23823   0.70281   0.00000  Uiso   1.00
H1123  H     0.94811   0.08067   0.72687   0.00000  Uiso   1.00
H1124  H     0.68701   0.27356   0.76745   0.00000  Uiso   1.00
H1125  H     0.89202   0.07557   0.80894   0.00000  Uiso   1.00
H1126  H     0.75947   0.16013   0.64349   0.00000  Uiso   1.00
H1127  H     0.83767   0.01752   0.86388   0.00000  Uiso   1.00
H1128  H     0.85208   0.07451   0.87346   0.00000  Uiso   1.00
H1129  H     0.88949   0.03151   0.88504   0.00000  Uiso   1.00
H1130  H     0.80807   0.29515   0.64948   0.00000  Uiso   1.00
H1131  H     0.73491   0.29520   0.70503   0.00000  Uiso   1.00
H1132  H     0.74449   0.24286   0.67647   0.00000  Uiso   1.00
H1133  H     0.73760   0.29394   0.64497   0.00000  Uiso   1.00
H1134  H     0.80017   0.04105   0.65034   0.00000  Uiso   1.00
H1135  H     0.72977   0.03818   0.65762   0.00000  Uiso   1.00
H1136  H     0.73841   0.09157   0.68272   0.00000  Uiso   1.00
H1137  H     0.75529   0.11328   0.88951   0.00000  Uiso   1.00
H1138  H     0.73511   0.04232   0.71779   0.00000  Uiso   1.00
H1139  H     0.92081   0.29892   0.79397   0.00000  Uiso   1.00
H1140  H     0.90951   0.29422   0.86907   0.00000  Uiso   1.00
H1141  H     0.90080   0.23829   0.85165   0.00000  Uiso   1.00
H1142  H     0.85652   0.27487   0.85908   0.00000  Uiso   1.00
H1143  H     0.90162   0.23277   0.61157   0.00000  Uiso   1.00
H1144  H     0.71850   0.17219   0.93183   0.00000  Uiso   1.00
H1145  H     0.95929   0.22164   0.53310   0.00000  Uiso   1.00
H1146  H     0.73074   0.09355   0.56109   0.00000  Uiso   1.00
H1147  H     0.69256   0.18189   0.53108   0.00000  Uiso   1.00
H1148  H     0.68285   0.15049   0.58153   0.00000  Uiso   1.00
N1149  N     0.83333   0.28573   0.75000   0.00000  Uiso   1.00
N1150  N     0.83333   0.04760   0.75000   0.00000  Uiso   1.00
N1151  N     0.72546   0.11984   0.53889   0.00000  Uiso   1.00
N1152  N     0.94782   0.19031   0.96064   0.00000  Uiso   1.00
N1153  N     0.87893   0.04535   0.81659   0.00000  Uiso   1.00
N1154  N     0.79535   0.28625   0.67949   0.00000  Uiso   1.00
N1155  N     0.79105   0.04925   0.68205   0.00000  Uiso   1.00
N1156  N     0.89224   0.28567   0.80125   0.00000  Uiso   1.00
O1157  O     0.77226   0.20487   0.75000   0.00000  Uiso   1.00
O1158  O     0.75989   0.14450   0.61440   0.00000  Uiso   1.00
O1159  O     0.76438   0.14276   0.87786   0.00000  Uiso   1.00
O1160  O     0.89858   0.20107   0.62138   0.00000  Uiso   1.00
O1161  O     0.72103   0.14558   0.95194   0.00000  Uiso   1.00
O1162  O     0.94070   0.20360   0.55170   0.00000  Uiso   1.00
O1163  O     0.70808   0.08777   0.78445   0.00000  Uiso   1.00
O1164  O     0.96091   0.24618   0.72934   0.00000  Uiso   1.00
O1165  O     0.96230   0.08352   0.75664   0.00000  Uiso   1.00
O1166  O     0.70773   0.24871   0.76638   0.00000  Uiso   1.00
O1167  O     0.89441   0.12846   0.75001   0.00000  Uiso   1.00
O1168  O     0.89441   0.20487   0.75001   0.00000  Uiso   1.00
O1169  O     0.77226   0.12846   0.75000   0.00000  Uiso   1.00
O1170  O     0.83333   0.20489   0.68393   0.00000  Uiso   1.00
O1171  O     0.83334   0.12844   0.81608   0.00000  Uiso   1.00
O1172  O     0.83334   0.20489   0.81608   0.00000  Uiso   1.00
O1173  O     0.83333   0.12844   0.68393   0.00000  Uiso   1.00
O1174  O     0.91053   0.16556   0.88706   0.00000  Uiso   1.00
Zn1175 Zn    0.83333   0.21771   0.75000   0.00000  Uiso   1.00
Zn1176 Zn    0.83333   0.11563   0.75000   0.00000  Uiso   1.00
C1177  C     0.08724   0.50024   0.75572   0.00000  Uiso   1.00
C1178  C     0.04320   0.50096   0.76385   0.00000  Uiso   1.00
C1179  C     0.18908   0.35652   0.78206   0.00000  Uiso   1.00
C1180  C     0.14516   0.64305   0.71721   0.00000  Uiso   1.00
C1181  C     0.14510   0.35794   0.71727   0.00000  Uiso   1.00
C1182  C     0.19123   0.64197   0.78006   0.00000  Uiso   1.00
C1183  C     0.16640   0.50023   0.66374   0.00000  Uiso   1.00
C1184  C     0.16733   0.49969   0.83629   0.00000  Uiso   1.00
C1185  C     0.20613   0.50179   0.90810   0.00000  Uiso   1.00
C1186  C     0.12940   0.48735   0.59242   0.00000  Uiso   1.00
C1187  C     0.16821   0.49833   0.88399   0.00000  Uiso   1.00
C1188  C     0.24682   0.49968   0.74765   0.00000  Uiso   1.00
C1189  C     0.16524   0.50109   0.61607   0.00000  Uiso   1.00
C1190  C     0.13116   0.48908   0.90461   0.00000  Uiso   1.00
C1191  C     0.20006   0.51703   0.59505   0.00000  Uiso   1.00
C1192  C     0.12991   0.48996   0.95144   0.00000  Uiso   1.00
C1193  C     0.20209   0.51430   0.54837   0.00000  Uiso   1.00
C1194  C     0.16720   0.49906   0.97653   0.00000  Uiso   1.00
C1195  C     0.16636   0.49989   0.52347   0.00000  Uiso   1.00
C1196  C     0.20542   0.50644   0.95476   0.00000  Uiso   1.00
C1197  C     0.12980   0.48610   0.54550   0.00000  Uiso   1.00
C1198  C     0.09267   0.48123   0.97384   0.00000  Uiso   1.00
C1199  C     0.09393   0.47396   0.51979   0.00000  Uiso   1.00
C1200  C     0.23924   0.52441   0.52661   0.00000  Uiso   1.00
C1201  C     0.02219   0.48090   0.54528   0.00000  Uiso   1.00
C1202  C     0.29097   0.56729   0.94227   0.00000  Uiso   1.00
C1203  C     0.19693   0.37508   0.86168   0.00000  Uiso   1.00
C1204  C     0.08418   0.61273   0.67671   0.00000  Uiso   1.00
C1205  C     0.07978   0.38872   0.68552   0.00000  Uiso   1.00
C1206  C     0.22242   0.60633   0.84770   0.00000  Uiso   1.00
C1207  C     0.24159   0.51842   0.98027   0.00000  Uiso   1.00
C1208  C     0.02215   0.46016   0.76900   0.00000  Uiso   1.00
C1209  C     0.31283   0.54039   0.74560   0.00000  Uiso   1.00
C1210  C     0.31382   0.45854   0.75737   0.00000  Uiso   1.00
C1211  C     0.02108   0.54170   0.75910   0.00000  Uiso   1.00
C1212  C     0.29175   0.49902   0.74735   0.00000  Uiso   1.00
H1213  H     0.24029   0.48615   0.85674   0.00000  Uiso   1.00
H1214  H     0.32824   0.46496   0.52851   0.00000  Uiso   1.00
H1215  H     0.29517   0.49575   0.94713   0.00000  Uiso   1.00
H1216  H     0.29505   0.56478   0.90565   0.00000  Uiso   1.00
H1217  H     0.32068   0.57897   0.95786   0.00000  Uiso   1.00
H1218  H     0.26615   0.59257   0.94872   0.00000  Uiso   1.00
H1219  H     0.06414   0.42940   0.80588   0.00000  Uiso   1.00
H1220  H     0.27662   0.57156   0.70281   0.00000  Uiso   1.00
H1221  H     0.28144   0.41401   0.72687   0.00000  Uiso   1.00
H1222  H     0.02035   0.60689   0.76745   0.00000  Uiso   1.00
H1223  H     0.22536   0.40890   0.80894   0.00000  Uiso   1.00
H1224  H     0.09280   0.49347   0.64349   0.00000  Uiso   1.00
H1225  H     0.17101   0.35085   0.86388   0.00000  Uiso   1.00
H1226  H     0.18542   0.40784   0.87346   0.00000  Uiso   1.00
H1227  H     0.22282   0.36484   0.88504   0.00000  Uiso   1.00
H1228  H     0.14141   0.62849   0.64948   0.00000  Uiso   1.00
H1229  H     0.06824   0.62853   0.70503   0.00000  Uiso   1.00
H1230  H     0.07783   0.57619   0.67647   0.00000  Uiso   1.00
H1231  H     0.07094   0.62727   0.64497   0.00000  Uiso   1.00
H1232  H     0.13351   0.37438   0.65034   0.00000  Uiso   1.00
H1233  H     0.06310   0.37151   0.65762   0.00000  Uiso   1.00
H1234  H     0.07174   0.42490   0.68272   0.00000  Uiso   1.00
H1235  H     0.08863   0.44661   0.88951   0.00000  Uiso   1.00
H1236  H     0.06844   0.37566   0.71779   0.00000  Uiso   1.00
H1237  H     0.25414   0.63225   0.79397   0.00000  Uiso   1.00
H1238  H     0.24285   0.62755   0.86907   0.00000  Uiso   1.00
H1239  H     0.23414   0.57162   0.85165   0.00000  Uiso   1.00
H1240  H     0.18986   0.60821   0.85908   0.00000  Uiso   1.00
H1241  H     0.23496   0.56610   0.61157   0.00000  Uiso   1.00
H1242  H     0.05183   0.50553   0.93183   0.00000  Uiso   1.00
H1243  H     0.29263   0.55497   0.53310   0.00000  Uiso   1.00
H1244  H     0.06407   0.42689   0.56109   0.00000  Uiso   1.00
H1245  H     0.02589   0.51522   0.53108   0.00000  Uiso   1.00
H1246  H     0.01618   0.48382   0.58153   0.00000  Uiso   1.00
N1247  N     0.16667   0.61907   0.75000   0.00000  Uiso   1.00
N1248  N     0.16667   0.38093   0.75000   0.00000  Uiso   1.00
N1249  N     0.05879   0.45317   0.53889   0.00000  Uiso   1.00
N1250  N     0.28115   0.52364   0.96064   0.00000  Uiso   1.00
N1251  N     0.21226   0.37868   0.81659   0.00000  Uiso   1.00
N1252  N     0.12868   0.61958   0.67949   0.00000  Uiso   1.00
N1253  N     0.12438   0.38258   0.68205   0.00000  Uiso   1.00
N1254  N     0.22558   0.61900   0.80125   0.00000  Uiso   1.00
O1255  O     0.10559   0.53821   0.75000   0.00000  Uiso   1.00
O1256  O     0.09322   0.47784   0.61440   0.00000  Uiso   1.00
O1257  O     0.09772   0.47609   0.87786   0.00000  Uiso   1.00
O1258  O     0.23191   0.53441   0.62138   0.00000  Uiso   1.00
O1259  O     0.05436   0.47892   0.95194   0.00000  Uiso   1.00
O1260  O     0.27404   0.53694   0.55170   0.00000  Uiso   1.00
O1261  O     0.04141   0.42110   0.78445   0.00000  Uiso   1.00
O1262  O     0.29425   0.57951   0.72934   0.00000  Uiso   1.00
O1263  O     0.29563   0.41685   0.75664   0.00000  Uiso   1.00
O1264  O     0.04107   0.58204   0.76638   0.00000  Uiso   1.00
O1265  O     0.22774   0.46179   0.75001   0.00000  Uiso   1.00
O1266  O     0.22774   0.53821   0.75001   0.00000  Uiso   1.00
O1267  O     0.10559   0.46179   0.75000   0.00000  Uiso   1.00
O1268  O     0.16666   0.53823   0.68393   0.00000  Uiso   1.00
O1269  O     0.16667   0.46177   0.81608   0.00000  Uiso   1.00
O1270  O     0.16667   0.53823   0.81608   0.00000  Uiso   1.00
O1271  O     0.16666   0.46177   0.68393   0.00000  Uiso   1.00
O1272  O     0.24386   0.49889   0.88706   0.00000  Uiso   1.00
Zn1273 Zn    0.16667   0.55104   0.75000   0.00000  Uiso   1.00
Zn1274 Zn    0.16667   0.44896   0.75000   0.00000  Uiso   1.00
C1275  C     0.42058   0.50024   0.75572   0.00000  Uiso   1.00
C1276  C     0.37654   0.50096   0.76385   0.00000  Uiso   1.00
C1277  C     0.52242   0.35652   0.78206   0.00000  Uiso   1.00
C1278  C     0.47849   0.64305   0.71721   0.00000  Uiso   1.00
C1279  C     0.47843   0.35794   0.71727   0.00000  Uiso   1.00
C1280  C     0.52456   0.64197   0.78006   0.00000  Uiso   1.00
C1281  C     0.49973   0.50023   0.66374   0.00000  Uiso   1.00
C1282  C     0.50066   0.49969   0.83629   0.00000  Uiso   1.00
C1283  C     0.53947   0.50179   0.90810   0.00000  Uiso   1.00
C1284  C     0.46274   0.48735   0.59242   0.00000  Uiso   1.00
C1285  C     0.50155   0.49833   0.88399   0.00000  Uiso   1.00
C1286  C     0.58015   0.49968   0.74765   0.00000  Uiso   1.00
C1287  C     0.49857   0.50109   0.61607   0.00000  Uiso   1.00
C1288  C     0.46449   0.48908   0.90461   0.00000  Uiso   1.00
C1289  C     0.53339   0.51703   0.59505   0.00000  Uiso   1.00
C1290  C     0.46324   0.48996   0.95144   0.00000  Uiso   1.00
C1291  C     0.53543   0.51430   0.54837   0.00000  Uiso   1.00
C1292  C     0.50053   0.49906   0.97653   0.00000  Uiso   1.00
C1293  C     0.49970   0.49989   0.52347   0.00000  Uiso   1.00
C1294  C     0.53875   0.50644   0.95476   0.00000  Uiso   1.00
C1295  C     0.46313   0.48610   0.54550   0.00000  Uiso   1.00
C1296  C     0.42601   0.48123   0.97384   0.00000  Uiso   1.00
C1297  C     0.42726   0.47396   0.51979   0.00000  Uiso   1.00
C1298  C     0.57257   0.52441   0.52661   0.00000  Uiso   1.00
C1299  C     0.35553   0.48090   0.54528   0.00000  Uiso   1.00
C1300  C     0.62430   0.56729   0.94227   0.00000  Uiso   1.00
C1301  C     0.53027   0.37508   0.86168   0.00000  Uiso   1.00
C1302  C     0.41751   0.61273   0.67671   0.00000  Uiso   1.00
C1303  C     0.41312   0.38872   0.68552   0.00000  Uiso   1.00
C1304  C     0.55575   0.60633   0.84770   0.00000  Uiso   1.00
C1305  C     0.57492   0.51842   0.98027   0.00000  Uiso   1.00
C1306  C     0.35548   0.46016   0.76900   0.00000  Uiso   1.00
C1307  C     0.64616   0.54039   0.74560   0.00000  Uiso   1.00
C1308  C     0.64715   0.45854   0.75737   0.00000  Uiso   1.00
C1309  C     0.35442   0.54170   0.75910   0.00000  Uiso   1.00
C1310  C     0.62509   0.49902   0.74735   0.00000  Uiso   1.00
H1311  H     0.57362   0.48615   0.85674   0.00000  Uiso   1.00
H1312  H     0.66157   0.46496   0.52851   0.00000  Uiso   1.00
H1313  H     0.62850   0.49575   0.94713   0.00000  Uiso   1.00
H1314  H     0.62838   0.56478   0.90565   0.00000  Uiso   1.00
H1315  H     0.65401   0.57897   0.95786   0.00000  Uiso   1.00
H1316  H     0.59948   0.59257   0.94872   0.00000  Uiso   1.00
H1317  H     0.39747   0.42940   0.80588   0.00000  Uiso   1.00
H1318  H     0.60995   0.57156   0.70281   0.00000  Uiso   1.00
H1319  H     0.61477   0.41401   0.72687   0.00000  Uiso   1.00
H1320  H     0.35368   0.60689   0.76745   0.00000  Uiso   1.00
H1321  H     0.55869   0.40890   0.80894   0.00000  Uiso   1.00
H1322  H     0.42613   0.49347   0.64349   0.00000  Uiso   1.00
H1323  H     0.50434   0.35085   0.86388   0.00000  Uiso   1.00
H1324  H     0.51875   0.40784   0.87346   0.00000  Uiso   1.00
H1325  H     0.55616   0.36484   0.88504   0.00000  Uiso   1.00
H1326  H     0.47474   0.62849   0.64948   0.00000  Uiso   1.00
H1327  H     0.40158   0.62853   0.70503   0.00000  Uiso   1.00
H1328  H     0.41116   0.57619   0.67647   0.00000  Uiso   1.00
H1329  H     0.40427   0.62727   0.64497   0.00000  Uiso   1.00
H1330  H     0.46684   0.37438   0.65034   0.00000  Uiso   1.00
H1331  H     0.39643   0.37151   0.65762   0.00000  Uiso   1.00
H1332  H     0.40507   0.42490   0.68272   0.00000  Uiso   1.00
H1333  H     0.42196   0.44661   0.88951   0.00000  Uiso   1.00
H1334  H     0.40177   0.37566   0.71779   0.00000  Uiso   1.00
H1335  H     0.58748   0.63225   0.79397   0.00000  Uiso   1.00
H1336  H     0.57618   0.62755   0.86907   0.00000  Uiso   1.00
H1337  H     0.56747   0.57162   0.85165   0.00000  Uiso   1.00
H1338  H     0.52319   0.60821   0.85908   0.00000  Uiso   1.00
H1339  H     0.56829   0.56610   0.61157   0.00000  Uiso   1.00
H1340  H     0.38516   0.50553   0.93183   0.00000  Uiso   1.00
H1341  H     0.62596   0.55497   0.53310   0.00000  Uiso   1.00
H1342  H     0.39741   0.42689   0.56109   0.00000  Uiso   1.00
H1343  H     0.35922   0.51522   0.53108   0.00000  Uiso   1.00
H1344  H     0.34952   0.48382   0.58153   0.00000  Uiso   1.00
N1345  N     0.50000   0.61907   0.75000   0.00000  Uiso   1.00
N1346  N     0.50000   0.38093   0.75000   0.00000  Uiso   1.00
N1347  N     0.39212   0.45317   0.53889   0.00000  Uiso   1.00
N1348  N     0.61449   0.52364   0.96064   0.00000  Uiso   1.00
N1349  N     0.54560   0.37868   0.81659   0.00000  Uiso   1.00
N1350  N     0.46202   0.61958   0.67949   0.00000  Uiso   1.00
N1351  N     0.45772   0.38258   0.68205   0.00000  Uiso   1.00
N1352  N     0.55891   0.61900   0.80125   0.00000  Uiso   1.00
O1353  O     0.43892   0.53821   0.75000   0.00000  Uiso   1.00
O1354  O     0.42655   0.47784   0.61440   0.00000  Uiso   1.00
O1355  O     0.43105   0.47609   0.87786   0.00000  Uiso   1.00
O1356  O     0.56524   0.53441   0.62138   0.00000  Uiso   1.00
O1357  O     0.38769   0.47892   0.95194   0.00000  Uiso   1.00
O1358  O     0.60737   0.53694   0.55170   0.00000  Uiso   1.00
O1359  O     0.37475   0.42110   0.78445   0.00000  Uiso   1.00
O1360  O     0.62758   0.57951   0.72934   0.00000  Uiso   1.00
O1361  O     0.62897   0.41685   0.75664   0.00000  Uiso   1.00
O1362  O     0.37440   0.58204   0.76638   0.00000  Uiso   1.00
O1363  O     0.56108   0.46179   0.75001   0.00000  Uiso   1.00
O1364  O     0.56108   0.53821   0.75001   0.00000  Uiso   1.00
O1365  O     0.43892   0.46179   0.75000   0.00000  Uiso   1.00
O1366  O     0.49999   0.53823   0.68393   0.00000  Uiso   1.00
O1367  O     0.50001   0.46177   0.81608   0.00000  Uiso   1.00
O1368  O     0.50001   0.53823   0.81608   0.00000  Uiso   1.00
O1369  O     0.49999   0.46177   0.68393   0.00000  Uiso   1.00
O1370  O     0.57719   0.49889   0.88706   0.00000  Uiso   1.00
Zn1371 Zn    0.50000   0.55104   0.75000   0.00000  Uiso   1.00
Zn1372 Zn    0.50000   0.44896   0.75000   0.00000  Uiso   1.00
C1373  C     0.75391   0.50024   0.75572   0.00000  Uiso   1.00
C1374  C     0.70987   0.50096   0.76385   0.00000  Uiso   1.00
C1375  C     0.85575   0.35652   0.78206   0.00000  Uiso   1.00
C1376  C     0.81182   0.64305   0.71721   0.00000  Uiso   1.00
C1377  C     0.81176   0.35794   0.71727   0.00000  Uiso   1.00
C1378  C     0.85789   0.64197   0.78006   0.00000  Uiso   1.00
C1379  C     0.83307   0.50023   0.66374   0.00000  Uiso   1.00
C1380  C     0.83399   0.49969   0.83629   0.00000  Uiso   1.00
C1381  C     0.87280   0.50179   0.90810   0.00000  Uiso   1.00
C1382  C     0.79607   0.48735   0.59242   0.00000  Uiso   1.00
C1383  C     0.83488   0.49833   0.88399   0.00000  Uiso   1.00
C1384  C     0.91348   0.49968   0.74765   0.00000  Uiso   1.00
C1385  C     0.83190   0.50109   0.61607   0.00000  Uiso   1.00
C1386  C     0.79783   0.48908   0.90461   0.00000  Uiso   1.00
C1387  C     0.86673   0.51703   0.59505   0.00000  Uiso   1.00
C1388  C     0.79657   0.48996   0.95144   0.00000  Uiso   1.00
C1389  C     0.86876   0.51430   0.54837   0.00000  Uiso   1.00
C1390  C     0.83387   0.49906   0.97653   0.00000  Uiso   1.00
C1391  C     0.83303   0.49989   0.52347   0.00000  Uiso   1.00
C1392  C     0.87208   0.50644   0.95476   0.00000  Uiso   1.00
C1393  C     0.79646   0.48610   0.54550   0.00000  Uiso   1.00
C1394  C     0.75934   0.48123   0.97384   0.00000  Uiso   1.00
C1395  C     0.76059   0.47396   0.51979   0.00000  Uiso   1.00
C1396  C     0.90591   0.52441   0.52661   0.00000  Uiso   1.00
C1397  C     0.68886   0.48090   0.54528   0.00000  Uiso   1.00
C1398  C     0.95764   0.56729   0.94227   0.00000  Uiso   1.00
C1399  C     0.86360   0.37508   0.86168   0.00000  Uiso   1.00
C1400  C     0.75084   0.61273   0.67671   0.00000  Uiso   1.00
C1401  C     0.74645   0.38872   0.68552   0.00000  Uiso   1.00
C1402  C     0.88908   0.60633   0.84770   0.00000  Uiso   1.00
C1403  C     0.90825   0.51842   0.98027   0.00000  Uiso   1.00
C1404  C     0.68881   0.46016   0.76900   0.00000  Uiso   1.00
C1405  C     0.97950   0.54039   0.74560   0.00000  Uiso   1.00
C1406  C     0.98048   0.45854   0.75737   0.00000  Uiso   1.00
C1407  C     0.68775   0.54170   0.75910   0.00000  Uiso   1.00
C1408  C     0.95842   0.49902   0.74735   0.00000  Uiso   1.00
H1409  H     0.90696   0.48615   0.85674   0.00000  Uiso   1.00
H1410  H     0.99490   0.46496   0.52851   0.00000  Uiso   1.00
H1411  H     0.96183   0.49575   0.94713   0.00000  Uiso   1.00
H1412  H     0.96171   0.56478   0.90565   0.00000  Uiso   1.00
H1413  H     0.98734   0.57897   0.95786   0.00000  Uiso   1.00
H1414  H     0.93282   0.59257   0.94872   0.00000  Uiso   1.00
H1415  H     0.73081   0.42940   0.80588   0.00000  Uiso   1.00
H1416  H     0.94328   0.57156   0.70281   0.00000  Uiso   1.00
H1417  H     0.94811   0.41401   0.72687   0.00000  Uiso   1.00
H1418  H     0.68701   0.60689   0.76745   0.00000  Uiso   1.00
H1419  H     0.89202   0.40890   0.80894   0.00000  Uiso   1.00
H1420  H     0.75947   0.49347   0.64349   0.00000  Uiso   1.00
H1421  H     0.83767   0.35085   0.86388   0.00000  Uiso   1.00
H1422  H     0.85208   0.40784   0.87346   0.00000  Uiso   1.00
H1423  H     0.88949   0.36484   0.88504   0.00000  Uiso   1.00
H1424  H     0.80807   0.62849   0.64948   0.00000  Uiso   1.00
H1425  H     0.73491   0.62853   0.70503   0.00000  Uiso   1.00
H1426  H     0.74449   0.57619   0.67647   0.00000  Uiso   1.00
H1427  H     0.73760   0.62727   0.64497   0.00000  Uiso   1.00
H1428  H     0.80017   0.37438   0.65034   0.00000  Uiso   1.00
H1429  H     0.72977   0.37151   0.65762   0.00000  Uiso   1.00
H1430  H     0.73841   0.42490   0.68272   0.00000  Uiso   1.00
H1431  H     0.75529   0.44661   0.88951   0.00000  Uiso   1.00
H1432  H     0.73511   0.37566   0.71779   0.00000  Uiso   1.00
H1433  H     0.92081   0.63225   0.79397   0.00000  Uiso   1.00
H1434  H     0.90951   0.62755   0.86907   0.00000  Uiso   1.00
H1435  H     0.90080   0.57162   0.85165   0.00000  Uiso   1.00
H1436  H     0.85652   0.60821   0.85908   0.00000  Uiso   1.00
H1437  H     0.90162   0.56610   0.61157   0.00000  Uiso   1.00
H1438  H     0.71850   0.50553   0.93183   0.00000  Uiso   1.00
H1439  H     0.95929   0.55497   0.53310   0.00000  Uiso   1.00
H1440  H     0.73074   0.42689   0.56109   0.00000  Uiso   1.00
H1441  H     0.69256   0.51522   0.53108   0.00000  Uiso   1.00
H1442  H     0.68285   0.48382   0.58153   0.00000  Uiso   1.00
N1443  N     0.83333   0.61907   0.75000   0.00000  Uiso   1.00
N1444  N     0.83333   0.38093   0.75000   0.00000  Uiso   1.00
N1445  N     0.72546   0.45317   0.53889   0.00000  Uiso   1.00
N1446  N     0.94782   0.52364   0.96064   0.00000  Uiso   1.00
N1447  N     0.87893   0.37868   0.81659   0.00000  Uiso   1.00
N1448  N     0.79535   0.61958   0.67949   0.00000  Uiso   1.00
N1449  N     0.79105   0.38258   0.68205   0.00000  Uiso   1.00
N1450  N     0.89224   0.61900   0.80125   0.00000  Uiso   1.00
O1451  O     0.77226   0.53821   0.75000   0.00000  Uiso   1.00
O1452  O     0.75989   0.47784   0.61440   0.00000  Uiso   1.00
O1453  O     0.76438   0.47609   0.87786   0.00000  Uiso   1.00
O1454  O     0.89858   0.53441   0.62138   0.00000  Uiso   1.00
O1455  O     0.72103   0.47892   0.95194   0.00000  Uiso   1.00
O1456  O     0.94070   0.53694   0.55170   0.00000  Uiso   1.00
O1457  O     0.70808   0.42110   0.78445   0.00000  Uiso   1.00
O1458  O     0.96091   0.57951   0.72934   0.00000  Uiso   1.00
O1459  O     0.96230   0.41685   0.75664   0.00000  Uiso   1.00
O1460  O     0.70773   0.58204   0.76638   0.00000  Uiso   1.00
O1461  O     0.89441   0.46179   0.75001   0.00000  Uiso   1.00
O1462  O     0.89441   0.53821   0.75001   0.00000  Uiso   1.00
O1463  O     0.77226   0.46179   0.75000   0.00000  Uiso   1.00
O1464  O     0.83333   0.53823   0.68393   0.00000  Uiso   1.00
O1465  O     0.83334   0.46177   0.81608   0.00000  Uiso   1.00
O1466  O     0.83334   0.53823   0.81608   0.00000  Uiso   1.00
O1467  O     0.83333   0.46177   0.68393   0.00000  Uiso   1.00
O1468  O     0.91053   0.49889   0.88706   0.00000  Uiso   1.00
Zn1469 Zn    0.83333   0.55104   0.75000   0.00000  Uiso   1.00
Zn1470 Zn    0.83333   0.44896   0.75000   0.00000  Uiso   1.00
C1471  C     0.08724   0.83358   0.75572   0.00000  Uiso   1.00
C1472  C     0.04320   0.83429   0.76385   0.00000  Uiso   1.00
C1473  C     0.18908   0.68985   0.78206   0.00000  Uiso   1.00
C1474  C     0.14516   0.97638   0.71721   0.00000  Uiso   1.00
C1475  C     0.14510   0.69127   0.71727   0.00000  Uiso   1.00
C1476  C     0.19123   0.97531   0.78006   0.00000  Uiso   1.00
C1477  C     0.16640   0.83356   0.66374   0.00000  Uiso   1.00
C1478  C     0.16733   0.83303   0.83629   0.00000  Uiso   1.00
C1479  C     0.20613   0.83513   0.90810   0.00000  Uiso   1.00
C1480  C     0.12940   0.82069   0.59242   0.00000  Uiso   1.00
C1481  C     0.16821   0.83166   0.88399   0.00000  Uiso   1.00
C1482  C     0.24682   0.83301   0.74765   0.00000  Uiso   1.00
C1483  C     0.16524   0.83442   0.61607   0.00000  Uiso   1.00
C1484  C     0.13116   0.82241   0.90461   0.00000  Uiso   1.00
C1485  C     0.20006   0.85037   0.59505   0.00000  Uiso   1.00
C1486  C     0.12991   0.82329   0.95144   0.00000  Uiso   1.00
C1487  C     0.20209   0.84763   0.54837   0.00000  Uiso   1.00
C1488  C     0.16720   0.83239   0.97653   0.00000  Uiso   1.00
C1489  C     0.16636   0.83322   0.52347   0.00000  Uiso   1.00
C1490  C     0.20542   0.83978   0.95476   0.00000  Uiso   1.00
C1491  C     0.12980   0.81943   0.54550   0.00000  Uiso   1.00
C1492  C     0.09267   0.81456   0.97384   0.00000  Uiso   1.00
C1493  C     0.09393   0.80729   0.51979   0.00000  Uiso   1.00
C1494  C     0.23924   0.85774   0.52661   0.00000  Uiso   1.00
C1495  C     0.02219   0.81423   0.54528   0.00000  Uiso   1.00
C1496  C     0.29097   0.90063   0.94227   0.00000  Uiso   1.00
C1497  C     0.19693   0.70841   0.86168   0.00000  Uiso   1.00
C1498  C     0.08418   0.94606   0.67671   0.00000  Uiso   1.00
C1499  C     0.07978   0.72206   0.68552   0.00000  Uiso   1.00
C1500  C     0.22242   0.93966   0.84770   0.00000  Uiso   1.00
C1501  C     0.24159   0.85176   0.98027   0.00000  Uiso   1.00
C1502  C     0.02215   0.79350   0.76900   0.00000  Uiso   1.00
C1503  C     0.31283   0.87372   0.74560   0.00000  Uiso   1.00
C1504  C     0.31382   0.79187   0.75737   0.00000  Uiso   1.00
C1505  C     0.02108   0.87504   0.75910   0.00000  Uiso   1.00
C1506  C     0.29175   0.83235   0.74735   0.00000  Uiso   1.00
H1507  H     0.24029   0.81948   0.85674   0.00000  Uiso   1.00
H1508  H     0.32824   0.79830   0.52851   0.00000  Uiso   1.00
H1509  H     0.29517   0.82909   0.94713   0.00000  Uiso   1.00
H1510  H     0.29505   0.89811   0.90565   0.00000  Uiso   1.00
H1511  H     0.32068   0.91230   0.95786   0.00000  Uiso   1.00
H1512  H     0.26615   0.92590   0.94872   0.00000  Uiso   1.00
H1513  H     0.06414   0.76273   0.80588   0.00000  Uiso   1.00
H1514  H     0.27662   0.90489   0.70281   0.00000  Uiso   1.00
H1515  H     0.28144   0.74734   0.72687   0.00000  Uiso   1.00
H1516  H     0.02035   0.94023   0.76745   0.00000  Uiso   1.00
H1517  H     0.22536   0.74224   0.80894   0.00000  Uiso   1.00
H1518  H     0.09280   0.82680   0.64349   0.00000  Uiso   1.00
H1519  H     0.17101   0.68419   0.86388   0.00000  Uiso   1.00
H1520  H     0.18542   0.74118   0.87346   0.00000  Uiso   1.00
H1521  H     0.22282   0.69818   0.88504   0.00000  Uiso   1.00
H1522  H     0.14141   0.96182   0.64948   0.00000  Uiso   1.00
H1523  H     0.06824   0.96187   0.70503   0.00000  Uiso   1.00
H1524  H     0.07783   0.90953   0.67647   0.00000  Uiso   1.00
H1525  H     0.07094   0.96060   0.64497   0.00000  Uiso   1.00
H1526  H     0.13351   0.70771   0.65034   0.00000  Uiso   1.00
H1527  H     0.06310   0.70484   0.65762   0.00000  Uiso   1.00
H1528  H     0.07174   0.75824   0.68272   0.00000  Uiso   1.00
H1529  H     0.08863   0.77994   0.88951   0.00000  Uiso   1.00
H1530  H     0.06844   0.70899   0.71779   0.00000  Uiso   1.00
H1531  H     0.25414   0.96559   0.79397   0.00000  Uiso   1.00
H1532  H     0.24285   0.96089   0.86907   0.00000  Uiso   1.00
H1533  H     0.23414   0.90496   0.85165   0.00000  Uiso   1.00
H1534  H     0.18986   0.94154   0.85908   0.00000  Uiso   1.00
H1535  H     0.23496   0.89943   0.61157   0.00000  Uiso   1.00
H1536  H     0.05183   0.83886   0.93183   0.00000  Uiso   1.00
H1537  H     0.29263   0.88831   0.53310   0.00000  Uiso   1.00
H1538  H     0.06407   0.76022   0.56109   0.00000  Uiso   1.00
H1539  H     0.02589   0.84855   0.53108   0.00000  Uiso   1.00
H1540  H     0.01618   0.81715   0.58153   0.00000  Uiso   1.00
N1541  N     0.16667   0.95240   0.75000   0.00000  Uiso   1.00
N1542  N     0.16667   0.71427   0.75000   0.00000  Uiso   1.00
N1543  N     0.05879   0.78650   0.53889   0.00000  Uiso   1.00
N1544  N     0.28115   0.85697   0.96064   0.00000  Uiso   1.00
N1545  N     0.21226   0.71201   0.81659   0.00000  Uiso   1.00
N1546  N     0.12868   0.95292   0.67949   0.00000  Uiso   1.00
N1547  N     0.12438   0.71592   0.68205   0.00000  Uiso   1.00
N1548  N     0.22558   0.95234   0.80125   0.00000  Uiso   1.00
O1549  O     0.10559   0.87154   0.75000   0.00000  Uiso   1.00
O1550  O     0.09322   0.81117   0.61440   0.00000  Uiso   1.00
O1551  O     0.09772   0.80942   0.87786   0.00000  Uiso   1.00
O1552  O     0.23191   0.86774   0.62138   0.00000  Uiso   1.00
O1553  O     0.05436   0.81225   0.95194   0.00000  Uiso   1.00
O1554  O     0.27404   0.87027   0.55170   0.00000  Uiso   1.00
O1555  O     0.04141   0.75443   0.78445   0.00000  Uiso   1.00
O1556  O     0.29425   0.91285   0.72934   0.00000  Uiso   1.00
O1557  O     0.29563   0.75018   0.75664   0.00000  Uiso   1.00
O1558  O     0.04107   0.91537   0.76638   0.00000  Uiso   1.00
O1559  O     0.22774   0.79513   0.75001   0.00000  Uiso   1.00
O1560  O     0.22774   0.87154   0.75001   0.00000  Uiso   1.00
O1561  O     0.10559   0.79513   0.75000   0.00000  Uiso   1.00
O1562  O     0.16666   0.87156   0.68393   0.00000  Uiso   1.00
O1563  O     0.16667   0.79511   0.81608   0.00000  Uiso   1.00
O1564  O     0.16667   0.87156   0.81608   0.00000  Uiso   1.00
O1565  O     0.16666   0.79511   0.68393   0.00000  Uiso   1.00
O1566  O     0.24386   0.83223   0.88706   0.00000  Uiso   1.00
Zn1567 Zn    0.16667   0.88437   0.75000   0.00000  Uiso   1.00
Zn1568 Zn    0.16667   0.78229   0.75000   0.00000  Uiso   1.00
C1569  C     0.42058   0.83358   0.75572   0.00000  Uiso   1.00
C1570  C     0.37654   0.83429   0.76385   0.00000  Uiso   1.00
C1571  C     0.52242   0.68985   0.78206   0.00000  Uiso   1.00
C1572  C     0.47849   0.97638   0.71721   0.00000  Uiso   1.00
C1573  C     0.47843   0.69127   0.71727   0.00000  Uiso   1.00
C1574  C     0.52456   0.97531   0.78006   0.00000  Uiso   1.00
C1575  C     0.49973   0.83356   0.66374   0.00000  Uiso   1.00
C1576  C     0.50066   0.83303   0.83629   0.00000  Uiso   1.00
C1577  C     0.53947   0.83513   0.90810   0.00000  Uiso   1.00
C1578  C     0.46274   0.82069   0.59242   0.00000  Uiso   1.00
C1579  C     0.50155   0.83166   0.88399   0.00000  Uiso   1.00
C1580  C     0.58015   0.83301   0.74765   0.00000  Uiso   1.00
C1581  C     0.49857   0.83442   0.61607   0.00000  Uiso   1.00
C1582  C     0.46449   0.82241   0.90461   0.00000  Uiso   1.00
C1583  C     0.53339   0.85037   0.59505   0.00000  Uiso   1.00
C1584  C     0.46324   0.82329   0.95144   0.00000  Uiso   1.00
C1585  C     0.53543   0.84763   0.54837   0.00000  Uiso   1.00
C1586  C     0.50053   0.83239   0.97653   0.00000  Uiso   1.00
C1587  C     0.49970   0.83322   0.52347   0.00000  Uiso   1.00
C1588  C     0.53875   0.83978   0.95476   0.00000  Uiso   1.00
C1589  C     0.46313   0.81943   0.54550   0.00000  Uiso   1.00
C1590  C     0.42601   0.81456   0.97384   0.00000  Uiso   1.00
C1591  C     0.42726   0.80729   0.51979   0.00000  Uiso   1.00
C1592  C     0.57257   0.85774   0.52661   0.00000  Uiso   1.00
C1593  C     0.35553   0.81423   0.54528   0.00000  Uiso   1.00
C1594  C     0.62430   0.90063   0.94227   0.00000  Uiso   1.00
C1595  C     0.53027   0.70841   0.86168   0.00000  Uiso   1.00
C1596  C     0.41751   0.94606   0.67671   0.00000  Uiso   1.00
C1597  C     0.41312   0.72206   0.68552   0.00000  Uiso   1.00
C1598  C     0.55575   0.93966   0.84770   0.00000  Uiso   1.00
C1599  C     0.57492   0.85176   0.98027   0.00000  Uiso   1.00
C1600  C     0.35548   0.79350   0.76900   0.00000  Uiso   1.00
C1601  C     0.64616   0.87372   0.74560   0.00000  Uiso   1.00
C1602  C     0.64715   0.79187   0.75737   0.00000  Uiso   1.00
C1603  C     0.35442   0.87504   0.75910   0.00000  Uiso   1.00
C1604  C     0.62509   0.83235   0.74735   0.00000  Uiso   1.00
H1605  H     0.57362   0.81948   0.85674   0.00000  Uiso   1.00
H1606  H     0.66157   0.79830   0.52851   0.00000  Uiso   1.00
H1607  H     0.62850   0.82909   0.94713   0.00000  Uiso   1.00
H1608  H     0.62838   0.89811   0.90565   0.00000  Uiso   1.00
H1609  H     0.65401   0.91230   0.95786   0.00000  Uiso   1.00
H1610  H     0.59948   0.92590   0.94872   0.00000  Uiso   1.00
H1611  H     0.39747   0.76273   0.80588   0.00000  Uiso   1.00
H1612  H     0.60995   0.90489   0.70281   0.00000  Uiso   1.00
H1613  H     0.61477   0.74734   0.72687   0.00000  Uiso   1.00
H1614  H     0.35368   0.94023   0.76745   0.00000  Uiso   1.00
H1615  H     0.55869   0.74224   0.80894   0.00000  Uiso   1.00
H1616  H     0.42613   0.82680   0.64349   0.00000  Uiso   1.00
H1617  H     0.50434   0.68419   0.86388   0.00000  Uiso   1.00
H1618  H     0.51875   0.74118   0.87346   0.00000  Uiso   1.00
H1619  H     0.55616   0.69818   0.88504   0.00000  Uiso   1.00
H1620  H     0.47474   0.96182   0.64948   0.00000  Uiso   1.00
H1621  H     0.40158   0.96187   0.70503   0.00000  Uiso   1.00
H1622  H     0.41116   0.90953   0.67647   0.00000  Uiso   1.00
H1623  H     0.40427   0.96060   0.64497   0.00000  Uiso   1.00
H1624  H     0.46684   0.70771   0.65034   0.00000  Uiso   1.00
H1625  H     0.39643   0.70484   0.65762   0.00000  Uiso   1.00
H1626  H     0.40507   0.75824   0.68272   0.00000  Uiso   1.00
H1627  H     0.42196   0.77994   0.88951   0.00000  Uiso   1.00
H1628  H     0.40177   0.70899   0.71779   0.00000  Uiso   1.00
H1629  H     0.58748   0.96559   0.79397   0.00000  Uiso   1.00
H1630  H     0.57618   0.96089   0.86907   0.00000  Uiso   1.00
H1631  H     0.56747   0.90496   0.85165   0.00000  Uiso   1.00
H1632  H     0.52319   0.94154   0.85908   0.00000  Uiso   1.00
H1633  H     0.56829   0.89943   0.61157   0.00000  Uiso   1.00
H1634  H     0.38516   0.83886   0.93183   0.00000  Uiso   1.00
H1635  H     0.62596   0.88831   0.53310   0.00000  Uiso   1.00
H1636  H     0.39741   0.76022   0.56109   0.00000  Uiso   1.00
H1637  H     0.35922   0.84855   0.53108   0.00000  Uiso   1.00
H1638  H     0.34952   0.81715   0.58153   0.00000  Uiso   1.00
N1639  N     0.50000   0.95240   0.75000   0.00000  Uiso   1.00
N1640  N     0.50000   0.71427   0.75000   0.00000  Uiso   1.00
N1641  N     0.39212   0.78650   0.53889   0.00000  Uiso   1.00
N1642  N     0.61449   0.85697   0.96064   0.00000  Uiso   1.00
N1643  N     0.54560   0.71201   0.81659   0.00000  Uiso   1.00
N1644  N     0.46202   0.95292   0.67949   0.00000  Uiso   1.00
N1645  N     0.45772   0.71592   0.68205   0.00000  Uiso   1.00
N1646  N     0.55891   0.95234   0.80125   0.00000  Uiso   1.00
O1647  O     0.43892   0.87154   0.75000   0.00000  Uiso   1.00
O1648  O     0.42655   0.81117   0.61440   0.00000  Uiso   1.00
O1649  O     0.43105   0.80942   0.87786   0.00000  Uiso   1.00
O1650  O     0.56524   0.86774   0.62138   0.00000  Uiso   1.00
O1651  O     0.38769   0.81225   0.95194   0.00000  Uiso   1.00
O1652  O     0.60737   0.87027   0.55170   0.00000  Uiso   1.00
O1653  O     0.37475   0.75443   0.78445   0.00000  Uiso   1.00
O1654  O     0.62758   0.91285   0.72934   0.00000  Uiso   1.00
O1655  O     0.62897   0.75018   0.75664   0.00000  Uiso   1.00
O1656  O     0.37440   0.91537   0.76638   0.00000  Uiso   1.00
O1657  O     0.56108   0.79513   0.75001   0.00000  Uiso   1.00
O1658  O     0.56108   0.87154   0.75001   0.00000  Uiso   1.00
O1659  O     0.43892   0.79513   0.75000   0.00000  Uiso   1.00
O1660  O     0.49999   0.87156   0.68393   0.00000  Uiso   1.00
O1661  O     0.50001   0.79511   0.81608   0.00000  Uiso   1.00
O1662  O     0.50001   0.87156   0.81608   0.00000  Uiso   1.00
O1663  O     0.49999   0.79511   0.68393   0.00000  Uiso   1.00
O1664  O     0.57719   0.83223   0.88706   0.00000  Uiso   1.00
Zn1665 Zn    0.50000   0.88437   0.75000   0.00000  Uiso   1.00
Zn1666 Zn    0.50000   0.78229   0.75000   0.00000  Uiso   1.00
C1667  C     0.75391   0.83358   0.75572   0.00000  Uiso   1.00
C1668  C     0.70987   0.83429   0.76385   0.00000  Uiso   1.00
C1669  C     0.85575   0.68985   0.78206   0.00000  Uiso   1.00
C1670  C     0.81182   0.97638   0.71721   0.00000  Uiso   1.00
C1671  C     0.81176   0.69127   0.71727   0.00000  Uiso   1.00
C1672  C     0.85789   0.97531   0.78006   0.00000  Uiso   1.00
C1673  C     0.83307   0.83356   0.66374   0.00000  Uiso   1.00
C1674  C     0.83399   0.83303   0.83629   0.00000  Uiso   1.00
C1675  C     0.87280   0.83513   0.90810   0.00000  Uiso   1.00
C1676  C     0.79607   0.82069   0.59242   0.00000  Uiso   1.00
C1677  C     0.83488   0.83166   0.88399   0.00000  Uiso   1.00
C1678  C     0.91348   0.83301   0.74765   0.00000  Uiso   1.00
C1679  C     0.83190   0.83442   0.61607   0.00000  Uiso   1.00
C1680  C     0.79783   0.82241   0.90461   0.00000  Uiso   1.00
C1681  C     0.86673   0.85037   0.59505   0.00000  Uiso   1.00
C1682  C     0.79657   0.82329   0.95144   0.00000  Uiso   1.00
C1683  C     0.86876   0.84763   0.54837   0.00000  Uiso   1.00
C1684  C     0.83387   0.83239   0.97653   0.00000  Uiso   1.00
C1685  C     0.83303   0.83322   0.52347   0.00000  Uiso   1.00
C1686  C     0.87208   0.83978   0.95476   0.00000  Uiso   1.00
C1687  C     0.79646   0.81943   0.54550   0.00000  Uiso   1.00
C1688  C     0.75934   0.81456   0.97384   0.00000  Uiso   1.00
C1689  C     0.76059   0.80729   0.51979   0.00000  Uiso   1.00
C1690  C     0.90591   0.85774   0.52661   0.00000  Uiso   1.00
C1691  C     0.68886   0.81423   0.54528   0.00000  Uiso   1.00
C1692  C     0.95764   0.90063   0.94227   0.00000  Uiso   1.00
C1693  C     0.86360   0.70841   0.86168   0.00000  Uiso   1.00
C1694  C     0.75084   0.94606   0.67671   0.00000  Uiso   1.00
C1695  C     0.74645   0.72206   0.68552   0.00000  Uiso   1.00
C1696  C     0.88908   0.93966   0.84770   0.00000  Uiso   1.00
C1697  C     0.90825   0.85176   0.98027   0.00000  Uiso   1.00
C1698  C     0.68881   0.79350   0.76900   0.00000  Uiso   1.00
C1699  C     0.97950   0.87372   0.74560   0.00000  Uiso   1.00
C1700  C     0.98048   0.79187   0.75737   0.00000  Uiso   1.00
C1701  C     0.68775   0.87504   0.75910   0.00000  Uiso   1.00
C1702  C     0.95842   0.83235   0.74735   0.00000  Uiso   1.00
H1703  H     0.90696   0.81948   0.85674   0.00000  Uiso   1.00
H1704  H     0.99490   0.79830   0.52851   0.00000  Uiso   1.00
H1705  H     0.96183   0.82909   0.94713   0.00000  Uiso   1.00
H1706  H     0.96171   0.89811   0.90565   0.00000  Uiso   1.00
H1707  H     0.98734   0.91230   0.95786   0.00000  Uiso   1.00
H1708  H     0.93282   0.92590   0.94872   0.00000  Uiso   1.00
H1709  H     0.73081   0.76273   0.80588   0.00000  Uiso   1.00
H1710  H     0.94328   0.90489   0.70281   0.00000  Uiso   1.00
H1711  H     0.94811   0.74734   0.72687   0.00000  Uiso   1.00
H1712  H     0.68701   0.94023   0.76745   0.00000  Uiso   1.00
H1713  H     0.89202   0.74224   0.80894   0.00000  Uiso   1.00
H1714  H     0.75947   0.82680   0.64349   0.00000  Uiso   1.00
H1715  H     0.83767   0.68419   0.86388   0.00000  Uiso   1.00
H1716  H     0.85208   0.74118   0.87346   0.00000  Uiso   1.00
H1717  H     0.88949   0.69818   0.88504   0.00000  Uiso   1.00
H1718  H     0.80807   0.96182   0.64948   0.00000  Uiso   1.00
H1719  H     0.73491   0.96187   0.70503   0.00000  Uiso   1.00
H1720  H     0.74449   0.90953   0.67647   0.00000  Uiso   1.00
H1721  H     0.73760   0.96060   0.64497   0.00000  Uiso   1.00
H1722  H     0.80017   0.70771   0.65034   0.00000  Uiso   1.00
H1723  H     0.72977   0.70484   0.65762   0.00000  Uiso   1.00
H1724  H     0.73841   0.75824   0.68272   0.00000  Uiso   1.00
H1725  H     0.75529   0.77994   0.88951   0.00000  Uiso   1.00
H1726  H     0.73511   0.70899   0.71779   0.00000  Uiso   1.00
H1727  H     0.92081   0.96559   0.79397   0.00000  Uiso   1.00
H1728  H     0.90951   0.96089   0.86907   0.00000  Uiso   1.00
H1729  H     0.90080   0.90496   0.85165   0.00000  Uiso   1.00
H1730  H     0.85652   0.94154   0.85908   0.00000  Uiso   1.00
H1731  H     0.90162   0.89943   0.61157   0.00000  Uiso   1.00
H1732  H     0.71850   0.83886   0.93183   0.00000  Uiso   1.00
H1733  H     0.95929   0.88831   0.53310   0.00000  Uiso   1.00
H1734  H     0.73074   0.76022   0.56109   0.00000  Uiso   1.00
H1735  H     0.69256   0.84855   0.53108   0.00000  Uiso   1.00
H1736  H     0.68285   0.81715   0.58153   0.00000  Uiso   1.00
N1737  N     0.83333   0.95240   0.75000   0.00000  Uiso   1.00
N1738  N     0.83333   0.71427   0.75000   0.00000  Uiso   1.00
N1739  N     0.72546   0.78650   0.53889   0.00000  Uiso   1.00
N1740  N     0.94782   0.85697   0.96064   0.00000  Uiso   1.00
N1741  N     0.87893   0.71201   0.81659   0.00000  Uiso   1.00
N1742  N     0.79535   0.95292   0.67949   0.00000  Uiso   1.00
N1743  N     0.79105   0.71592   0.68205   0.00000  Uiso   1.00
N1744  N     0.89224   0.95234   0.80125   0.00000  Uiso   1.00
O1745  O     0.77226   0.87154   0.75000   0.00000  Uiso   1.00
O1746  O     0.75989   0.81117   0.61440   0.00000  Uiso   1.00
O1747  O     0.76438   0.80942   0.87786   0.00000  Uiso   1.00
O1748  O     0.89858   0.86774   0.62138   0.00000  Uiso   1.00
O1749  O     0.72103   0.81225   0.95194   0.00000  Uiso   1.00
O1750  O     0.94070   0.87027   0.55170   0.00000  Uiso   1.00
O1751  O     0.70808   0.75443   0.78445   0.00000  Uiso   1.00
O1752  O     0.96091   0.91285   0.72934   0.00000  Uiso   1.00
O1753  O     0.96230   0.75018   0.75664   0.00000  Uiso   1.00
O1754  O     0.70773   0.91537   0.76638   0.00000  Uiso   1.00
O1755  O     0.89441   0.79513   0.75001   0.00000  Uiso   1.00
O1756  O     0.89441   0.87154   0.75001   0.00000  Uiso   1.00
O1757  O     0.77226   0.79513   0.75000   0.00000  Uiso   1.00
O1758  O     0.83333   0.87156   0.68393   0.00000  Uiso   1.00
O1759  O     0.83334   0.79511   0.81608   0.00000  Uiso   1.00
O1760  O     0.83334   0.87156   0.81608   0.00000  Uiso   1.00
O1761  O     0.83333   0.79511   0.68393   0.00000  Uiso   1.00
O1762  O     0.91053   0.83223   0.88706   0.00000  Uiso   1.00
Zn1763 Zn    0.83333   0.88437   0.75000   0.00000  Uiso   1.00
Zn1764 Zn    0.83333   0.78229   0.75000   0.00000  Uiso   1.00
loop_
_geom_bond_atom_site_label_1
_geom_bond_atom_site_label_2
_geom_bond_distance
_geom_bond_site_symmetry_2
_ccdc_geom_bond_type
C1     C2      1.443   .     S
C1     O91     1.296   .     A
C1     O79     1.293   .     A
C2     C35     1.402   .     A
C2     C32     1.406   .     A
C3     N75     1.424   .     S
C3     N72     1.378   .     A
C3     C594    1.428   1_545 S
C4     N76     1.422   .     S
C4     N71     1.373   .     A
C4     C299    1.435   .     S
C5     N72     1.373   .     A
C5     N77     1.422   .     S
C5     C592    1.435   1_545 S
C6     N78     1.421   .     S
C6     N71     1.368   .     A
C6     C297    1.428   .     S
C7     O95     1.289   .     A
C7     O92     1.286   .     A
C7     C13     1.424   .     S
C8     O94     1.292   .     A
C8     O93     1.284   .     A
C8     C11     1.425   .     S
C9     C20     1.403   .     A
C9     C11     1.401   .     A
C9     O96     1.385   .     S
C10    C21     1.404   .     A
C10    O80     1.384   .     S
C10    C13     1.399   .     A
C11    C14     1.387   .     A
C12    O90     1.297   .     A
C12    C36     1.444   .     S
C12    O89     1.292   .     A
C13    C15     1.386   .     A
C14    C16     1.402   .     A
C14    O81     1.380   .     S
C15    O82     1.379   .     S
C15    C17     1.402   .     A
C16    C22     1.414   .     A
C16    C18     1.423   .     A
C17    C24     1.411   .     A
C17    C19     1.421   .     A
C18    C20     1.426   .     A
C18    C901    1.404   .     S
C19    C21     1.427   .     A
C19    C900    1.404   1_554 S
C20    C31     1.421   .     A
C21    C23     1.417   .     A
C22    O83     1.379   .     S
C22    C905    1.388   .     S
C23    N73     1.426   .     S
C23    C904    1.388   1_554 S
C24    O84     1.383   .     S
C24    C913    1.402   1_554 S
C25    N73     1.447   .     S
C25    H69     1.112   .     S
C25    H70     1.110   .     S
C25    H234    1.109   1_455 S
C26    N74     1.448   .     S
C26    H42     1.112   .     S
C26    H40     1.109   .     S
C26    H41     1.110   .     S
C27    N75     1.453   .     S
C27    H50     1.103   .     S
C27    H51     1.108   .     S
C27    H49     1.111   .     S
C28    H54     1.109   .     S
C28    H55     1.110   .     S
C28    N76     1.447   .     S
C28    H53     1.108   .     S
C29    H60     1.111   .     S
C29    H57     1.109   .     S
C29    N77     1.450   .     S
C29    H58     1.106   .     S
C30    H64     1.111   .     S
C30    H63     1.100   .     S
C30    H62     1.108   .     S
C30    N78     1.443   .     S
C31    N74     1.426   .     S
C31    C906    1.402   .     S
C32    O85     1.380   .     S
C32    C230    1.374   1_455 S
C33    C36     1.413   .     A
C33    O86     1.381   .     S
C33    C133    1.385   .     S
C34    C36     1.416   .     A
C34    O87     1.377   .     S
C34    C130    1.374   .     S
C35    O88     1.383   .     S
C35    C229    1.385   1_455 S
H37    O96     0.989   .     S
H38    C123    1.109   .     S
H39    N74     1.031   .     S
H43    O85     0.991   .     S
H44    O86     0.992   .     S
H45    O87     0.992   .     S
H46    O88     0.991   .     S
H47    N75     1.024   .     S
H48    O80     0.990   .     S
H52    N76     1.031   .     S
H56    N77     1.031   .     S
H59    O81     0.992   .     S
H61    N78     1.032   .     S
H65    O82     0.992   .     S
H66    O83     0.992   .     S
H67    O84     0.989   .     S
H68    N73     1.031   .     S
N71    Zn97    2.024   .     S
N72    Zn98    2.024   .     S
O79    Zn97    2.003   .     S
O89    Zn98    2.003   .     S
O90    Zn97    1.995   .     S
O91    Zn98    1.995   .     S
O92    Zn97    2.014   .     S
O93    Zn98    2.014   .     S
O94    Zn97    2.009   .     S
O95    Zn98    2.009   .     S
C99    C100    1.443   .     S
C99    O189    1.296   .     A
C99    O177    1.293   .     A
C100   C133    1.402   .     A
C100   C130    1.406   .     A
C101   N173    1.424   .     S
C101   N170    1.378   .     A
C101   C692    1.428   1_545 S
C102   N174    1.422   .     S
C102   N169    1.373   .     A
C102   C397    1.435   .     S
C103   N170    1.373   .     A
C103   N175    1.422   .     S
C103   C690    1.435   1_545 S
C104   N176    1.421   .     S
C104   N169    1.368   .     A
C104   C395    1.428   .     S
C105   O193    1.289   .     A
C105   O190    1.286   .     A
C105   C111    1.424   .     S
C106   O192    1.292   .     A
C106   O191    1.284   .     A
C106   C109    1.425   .     S
C107   C118    1.403   .     A
C107   C109    1.401   .     A
C107   O194    1.385   .     S
C108   C119    1.404   .     A
C108   O178    1.384   .     S
C108   C111    1.399   .     A
C109   C112    1.387   .     A
C110   O188    1.297   .     A
C110   C134    1.444   .     S
C110   O187    1.292   .     A
C111   C113    1.386   .     A
C112   C114    1.402   .     A
C112   O179    1.380   .     S
C113   O180    1.379   .     S
C113   C115    1.402   .     A
C114   C120    1.414   .     A
C114   C116    1.423   .     A
C115   C122    1.411   .     A
C115   C117    1.421   .     A
C116   C118    1.426   .     A
C116   C999    1.404   .     S
C117   C119    1.427   .     A
C117   C998    1.404   1_554 S
C118   C129    1.421   .     A
C119   C121    1.417   .     A
C120   O181    1.379   .     S
C120   C1003   1.388   .     S
C121   N171    1.426   .     S
C121   C1002   1.388   1_554 S
C122   O182    1.383   .     S
C122   C1011   1.402   1_554 S
C123   N171    1.447   .     S
C123   H167    1.112   .     S
C123   H168    1.110   .     S
C124   N172    1.448   .     S
C124   H140    1.112   .     S
C124   H138    1.109   .     S
C124   H139    1.110   .     S
C125   N173    1.453   .     S
C125   H148    1.103   .     S
C125   H149    1.108   .     S
C125   H147    1.111   .     S
C126   H152    1.109   .     S
C126   H153    1.110   .     S
C126   N174    1.447   .     S
C126   H151    1.108   .     S
C127   H158    1.111   .     S
C127   H155    1.109   .     S
C127   N175    1.450   .     S
C127   H156    1.106   .     S
C128   H162    1.111   .     S
C128   H161    1.100   .     S
C128   H160    1.108   .     S
C128   N176    1.443   .     S
C129   N172    1.426   .     S
C129   C1004   1.402   .     S
C130   O183    1.380   .     S
C131   C134    1.413   .     A
C131   O184    1.381   .     S
C131   C231    1.385   .     S
C132   C134    1.416   .     A
C132   O185    1.377   .     S
C132   C228    1.374   .     S
C133   O186    1.383   .     S
H135   O194    0.989   .     S
H136   C221    1.109   .     S
H137   N172    1.031   .     S
H141   O183    0.991   .     S
H142   O184    0.992   .     S
H143   O185    0.992   .     S
H144   O186    0.991   .     S
H145   N173    1.024   .     S
H146   O178    0.990   .     S
H150   N174    1.031   .     S
H154   N175    1.031   .     S
H157   O179    0.992   .     S
H159   N176    1.032   .     S
H163   O180    0.992   .     S
H164   O181    0.992   .     S
H165   O182    0.989   .     S
H166   N171    1.031   .     S
N169   Zn195   2.024   .     S
N170   Zn196   2.024   .     S
O177   Zn195   2.003   .     S
O187   Zn196   2.003   .     S
O188   Zn195   1.995   .     S
O189   Zn196   1.995   .     S
O190   Zn195   2.014   .     S
O191   Zn196   2.014   .     S
O192   Zn195   2.009   .     S
O193   Zn196   2.009   .     S
C197   C198    1.443   .     S
C197   O287    1.296   .     A
C197   O275    1.293   .     A
C198   C231    1.402   .     A
C198   C228    1.406   .     A
C199   N271    1.424   .     S
C199   N268    1.378   .     A
C199   C790    1.428   1_545 S
C200   N272    1.422   .     S
C200   N267    1.373   .     A
C200   C495    1.435   .     S
C201   N268    1.373   .     A
C201   N273    1.422   .     S
C201   C788    1.435   1_545 S
C202   N274    1.421   .     S
C202   N267    1.368   .     A
C202   C493    1.428   .     S
C203   O291    1.289   .     A
C203   O288    1.286   .     A
C203   C209    1.424   .     S
C204   O290    1.292   .     A
C204   O289    1.284   .     A
C204   C207    1.425   .     S
C205   C216    1.403   .     A
C205   C207    1.401   .     A
C205   O292    1.385   .     S
C206   C217    1.404   .     A
C206   O276    1.384   .     S
C206   C209    1.399   .     A
C207   C210    1.387   .     A
C208   O286    1.297   .     A
C208   C232    1.444   .     S
C208   O285    1.292   .     A
C209   C211    1.386   .     A
C210   C212    1.402   .     A
C210   O277    1.380   .     S
C211   O278    1.379   .     S
C211   C213    1.402   .     A
C212   C218    1.414   .     A
C212   C214    1.423   .     A
C213   C220    1.411   .     A
C213   C215    1.421   .     A
C214   C216    1.426   .     A
C214   C1097   1.404   .     S
C215   C217    1.427   .     A
C215   C1096   1.404   1_554 S
C216   C227    1.421   .     A
C217   C219    1.417   .     A
C218   O279    1.379   .     S
C218   C1101   1.388   .     S
C219   N269    1.426   .     S
C219   C1100   1.388   1_554 S
C220   O280    1.383   .     S
C220   C1109   1.402   1_554 S
C221   N269    1.447   .     S
C221   H265    1.112   .     S
C221   H266    1.110   .     S
C222   N270    1.448   .     S
C222   H238    1.112   .     S
C222   H236    1.109   .     S
C222   H237    1.110   .     S
C223   N271    1.453   .     S
C223   H246    1.103   .     S
C223   H247    1.108   .     S
C223   H245    1.111   .     S
C224   H250    1.109   .     S
C224   H251    1.110   .     S
C224   N272    1.447   .     S
C224   H249    1.108   .     S
C225   H256    1.111   .     S
C225   H253    1.109   .     S
C225   N273    1.450   .     S
C225   H254    1.106   .     S
C226   H260    1.111   .     S
C226   H259    1.100   .     S
C226   H258    1.108   .     S
C226   N274    1.443   .     S
C227   N270    1.426   .     S
C227   C1102   1.402   .     S
C228   O281    1.380   .     S
C229   C232    1.413   .     A
C229   O282    1.381   .     S
C229   C35     1.385   1_655 S
C230   C232    1.416   .     A
C230   O283    1.377   .     S
C230   C32     1.374   1_655 S
C231   O284    1.383   .     S
H233   O292    0.989   .     S
H234   C25     1.109   1_655 S
H235   N270    1.031   .     S
H239   O281    0.991   .     S
H240   O282    0.992   .     S
H241   O283    0.992   .     S
H242   O284    0.991   .     S
H243   N271    1.024   .     S
H244   O276    0.990   .     S
H248   N272    1.031   .     S
H252   N273    1.031   .     S
H255   O277    0.992   .     S
H257   N274    1.032   .     S
H261   O278    0.992   .     S
H262   O279    0.992   .     S
H263   O280    0.989   .     S
H264   N269    1.031   .     S
N267   Zn293   2.024   .     S
N268   Zn294   2.024   .     S
O275   Zn293   2.003   .     S
O285   Zn294   2.003   .     S
O286   Zn293   1.995   .     S
O287   Zn294   1.995   .     S
O288   Zn293   2.014   .     S
O289   Zn294   2.014   .     S
O290   Zn293   2.009   .     S
O291   Zn294   2.009   .     S
C295   C296    1.443   .     S
C295   O385    1.296   .     A
C295   O373    1.293   .     A
C296   C329    1.402   .     A
C296   C326    1.406   .     A
C297   N369    1.424   .     S
C297   N366    1.378   .     A
C298   N370    1.422   .     S
C298   N365    1.373   .     A
C298   C593    1.435   .     S
C299   N366    1.373   .     A
C299   N371    1.422   .     S
C300   N372    1.421   .     S
C300   N365    1.368   .     A
C300   C591    1.428   .     S
C301   O389    1.289   .     A
C301   O386    1.286   .     A
C301   C307    1.424   .     S
C302   O388    1.292   .     A
C302   O387    1.284   .     A
C302   C305    1.425   .     S
C303   C314    1.403   .     A
C303   C305    1.401   .     A
C303   O390    1.385   .     S
C304   C315    1.404   .     A
C304   O374    1.384   .     S
C304   C307    1.399   .     A
C305   C308    1.387   .     A
C306   O384    1.297   .     A
C306   C330    1.444   .     S
C306   O383    1.292   .     A
C307   C309    1.386   .     A
C308   C310    1.402   .     A
C308   O375    1.380   .     S
C309   O376    1.379   .     S
C309   C311    1.402   .     A
C310   C316    1.414   .     A
C310   C312    1.423   .     A
C311   C318    1.411   .     A
C311   C313    1.421   .     A
C312   C314    1.426   .     A
C312   C1195   1.404   .     S
C313   C315    1.427   .     A
C313   C1194   1.404   1_554 S
C314   C325    1.421   .     A
C315   C317    1.417   .     A
C316   O377    1.379   .     S
C316   C1199   1.388   .     S
C317   N367    1.426   .     S
C317   C1198   1.388   1_554 S
C318   O378    1.383   .     S
C318   C1207   1.402   1_554 S
C319   N367    1.447   .     S
C319   H363    1.112   .     S
C319   H364    1.110   .     S
C319   H528    1.109   1_455 S
C320   N368    1.448   .     S
C320   H336    1.112   .     S
C320   H334    1.109   .     S
C320   H335    1.110   .     S
C321   N369    1.453   .     S
C321   H344    1.103   .     S
C321   H345    1.108   .     S
C321   H343    1.111   .     S
C322   H348    1.109   .     S
C322   H349    1.110   .     S
C322   N370    1.447   .     S
C322   H347    1.108   .     S
C323   H354    1.111   .     S
C323   H351    1.109   .     S
C323   N371    1.450   .     S
C323   H352    1.106   .     S
C324   H358    1.111   .     S
C324   H357    1.100   .     S
C324   H356    1.108   .     S
C324   N372    1.443   .     S
C325   N368    1.426   .     S
C325   C1200   1.402   .     S
C326   O379    1.380   .     S
C326   C524    1.374   1_455 S
C327   C330    1.413   .     A
C327   O380    1.381   .     S
C327   C427    1.385   .     S
C328   C330    1.416   .     A
C328   O381    1.377   .     S
C328   C424    1.374   .     S
C329   O382    1.383   .     S
C329   C523    1.385   1_455 S
H331   O390    0.989   .     S
H332   C417    1.109   .     S
H333   N368    1.031   .     S
H337   O379    0.991   .     S
H338   O380    0.992   .     S
H339   O381    0.992   .     S
H340   O382    0.991   .     S
H341   N369    1.024   .     S
H342   O374    0.990   .     S
H346   N370    1.031   .     S
H350   N371    1.031   .     S
H353   O375    0.992   .     S
H355   N372    1.032   .     S
H359   O376    0.992   .     S
H360   O377    0.992   .     S
H361   O378    0.989   .     S
H362   N367    1.031   .     S
N365   Zn391   2.024   .     S
N366   Zn392   2.024   .     S
O373   Zn391   2.003   .     S
O383   Zn392   2.003   .     S
O384   Zn391   1.995   .     S
O385   Zn392   1.995   .     S
O386   Zn391   2.014   .     S
O387   Zn392   2.014   .     S
O388   Zn391   2.009   .     S
O389   Zn392   2.009   .     S
C393   C394    1.443   .     S
C393   O483    1.296   .     A
C393   O471    1.293   .     A
C394   C427    1.402   .     A
C394   C424    1.406   .     A
C395   N467    1.424   .     S
C395   N464    1.378   .     A
C396   N468    1.422   .     S
C396   N463    1.373   .     A
C396   C691    1.435   .     S
C397   N464    1.373   .     A
C397   N469    1.422   .     S
C398   N470    1.421   .     S
C398   N463    1.368   .     A
C398   C689    1.428   .     S
C399   O487    1.289   .     A
C399   O484    1.286   .     A
C399   C405    1.424   .     S
C400   O486    1.292   .     A
C400   O485    1.284   .     A
C400   C403    1.425   .     S
C401   C412    1.403   .     A
C401   C403    1.401   .     A
C401   O488    1.385   .     S
C402   C413    1.404   .     A
C402   O472    1.384   .     S
C402   C405    1.399   .     A
C403   C406    1.387   .     A
C404   O482    1.297   .     A
C404   C428    1.444   .     S
C404   O481    1.292   .     A
C405   C407    1.386   .     A
C406   C408    1.402   .     A
C406   O473    1.380   .     S
C407   O474    1.379   .     S
C407   C409    1.402   .     A
C408   C414    1.414   .     A
C408   C410    1.423   .     A
C409   C416    1.411   .     A
C409   C411    1.421   .     A
C410   C412    1.426   .     A
C410   C1293   1.404   .     S
C411   C413    1.427   .     A
C411   C1292   1.404   1_554 S
C412   C423    1.421   .     A
C413   C415    1.417   .     A
C414   O475    1.379   .     S
C414   C1297   1.388   .     S
C415   N465    1.426   .     S
C415   C1296   1.388   1_554 S
C416   O476    1.383   .     S
C416   C1305   1.402   1_554 S
C417   N465    1.447   .     S
C417   H461    1.112   .     S
C417   H462    1.110   .     S
C418   N466    1.448   .     S
C418   H434    1.112   .     S
C418   H432    1.109   .     S
C418   H433    1.110   .     S
C419   N467    1.453   .     S
C419   H442    1.103   .     S
C419   H443    1.108   .     S
C419   H441    1.111   .     S
C420   H446    1.109   .     S
C420   H447    1.110   .     S
C420   N468    1.447   .     S
C420   H445    1.108   .     S
C421   H452    1.111   .     S
C421   H449    1.109   .     S
C421   N469    1.450   .     S
C421   H450    1.106   .     S
C422   H456    1.111   .     S
C422   H455    1.100   .     S
C422   H454    1.108   .     S
C422   N470    1.443   .     S
C423   N466    1.426   .     S
C423   C1298   1.402   .     S
C424   O477    1.380   .     S
C425   C428    1.413   .     A
C425   O478    1.381   .     S
C425   C525    1.385   .     S
C426   C428    1.416   .     A
C426   O479    1.377   .     S
C426   C522    1.374   .     S
C427   O480    1.383   .     S
H429   O488    0.989   .     S
H430   C515    1.109   .     S
H431   N466    1.031   .     S
H435   O477    0.991   .     S
H436   O478    0.992   .     S
H437   O479    0.992   .     S
H438   O480    0.991   .     S
H439   N467    1.024   .     S
H440   O472    0.990   .     S
H444   N468    1.031   .     S
H448   N469    1.031   .     S
H451   O473    0.992   .     S
H453   N470    1.032   .     S
H457   O474    0.992   .     S
H458   O475    0.992   .     S
H459   O476    0.989   .     S
H460   N465    1.031   .     S
N463   Zn489   2.024   .     S
N464   Zn490   2.024   .     S
O471   Zn489   2.003   .     S
O481   Zn490   2.003   .     S
O482   Zn489   1.995   .     S
O483   Zn490   1.995   .     S
O484   Zn489   2.014   .     S
O485   Zn490   2.014   .     S
O486   Zn489   2.009   .     S
O487   Zn490   2.009   .     S
C491   C492    1.443   .     S
C491   O581    1.296   .     A
C491   O569    1.293   .     A
C492   C525    1.402   .     A
C492   C522    1.406   .     A
C493   N565    1.424   .     S
C493   N562    1.378   .     A
C494   N566    1.422   .     S
C494   N561    1.373   .     A
C494   C789    1.435   .     S
C495   N562    1.373   .     A
C495   N567    1.422   .     S
C496   N568    1.421   .     S
C496   N561    1.368   .     A
C496   C787    1.428   .     S
C497   O585    1.289   .     A
C497   O582    1.286   .     A
C497   C503    1.424   .     S
C498   O584    1.292   .     A
C498   O583    1.284   .     A
C498   C501    1.425   .     S
C499   C510    1.403   .     A
C499   C501    1.401   .     A
C499   O586    1.385   .     S
C500   C511    1.404   .     A
C500   O570    1.384   .     S
C500   C503    1.399   .     A
C501   C504    1.387   .     A
C502   O580    1.297   .     A
C502   C526    1.444   .     S
C502   O579    1.292   .     A
C503   C505    1.386   .     A
C504   C506    1.402   .     A
C504   O571    1.380   .     S
C505   O572    1.379   .     S
C505   C507    1.402   .     A
C506   C512    1.414   .     A
C506   C508    1.423   .     A
C507   C514    1.411   .     A
C507   C509    1.421   .     A
C508   C510    1.426   .     A
C508   C1391   1.404   .     S
C509   C511    1.427   .     A
C509   C1390   1.404   1_554 S
C510   C521    1.421   .     A
C511   C513    1.417   .     A
C512   O573    1.379   .     S
C512   C1395   1.388   .     S
C513   N563    1.426   .     S
C513   C1394   1.388   1_554 S
C514   O574    1.383   .     S
C514   C1403   1.402   1_554 S
C515   N563    1.447   .     S
C515   H559    1.112   .     S
C515   H560    1.110   .     S
C516   N564    1.448   .     S
C516   H532    1.112   .     S
C516   H530    1.109   .     S
C516   H531    1.110   .     S
C517   N565    1.453   .     S
C517   H540    1.103   .     S
C517   H541    1.108   .     S
C517   H539    1.111   .     S
C518   H544    1.109   .     S
C518   H545    1.110   .     S
C518   N566    1.447   .     S
C518   H543    1.108   .     S
C519   H550    1.111   .     S
C519   H547    1.109   .     S
C519   N567    1.450   .     S
C519   H548    1.106   .     S
C520   H554    1.111   .     S
C520   H553    1.100   .     S
C520   H552    1.108   .     S
C520   N568    1.443   .     S
C521   N564    1.426   .     S
C521   C1396   1.402   .     S
C522   O575    1.380   .     S
C523   C526    1.413   .     A
C523   O576    1.381   .     S
C523   C329    1.385   1_655 S
C524   C526    1.416   .     A
C524   O577    1.377   .     S
C524   C326    1.374   1_655 S
C525   O578    1.383   .     S
H527   O586    0.989   .     S
H528   C319    1.109   1_655 S
H529   N564    1.031   .     S
H533   O575    0.991   .     S
H534   O576    0.992   .     S
H535   O577    0.992   .     S
H536   O578    0.991   .     S
H537   N565    1.024   .     S
H538   O570    0.990   .     S
H542   N566    1.031   .     S
H546   N567    1.031   .     S
H549   O571    0.992   .     S
H551   N568    1.032   .     S
H555   O572    0.992   .     S
H556   O573    0.992   .     S
H557   O574    0.989   .     S
H558   N563    1.031   .     S
N561   Zn587   2.024   .     S
N562   Zn588   2.024   .     S
O569   Zn587   2.003   .     S
O579   Zn588   2.003   .     S
O580   Zn587   1.995   .     S
O581   Zn588   1.995   .     S
O582   Zn587   2.014   .     S
O583   Zn588   2.014   .     S
O584   Zn587   2.009   .     S
O585   Zn588   2.009   .     S
C589   C590    1.443   .     S
C589   O679    1.296   .     A
C589   O667    1.293   .     A
C590   C623    1.402   .     A
C590   C620    1.406   .     A
C591   N663    1.424   .     S
C591   N660    1.378   .     A
C592   N664    1.422   .     S
C592   N659    1.373   .     A
C592   C5      1.435   1_565 S
C593   N660    1.373   .     A
C593   N665    1.422   .     S
C594   N666    1.421   .     S
C594   N659    1.368   .     A
C594   C3      1.428   1_565 S
C595   O683    1.289   .     A
C595   O680    1.286   .     A
C595   C601    1.424   .     S
C596   O682    1.292   .     A
C596   O681    1.284   .     A
C596   C599    1.425   .     S
C597   C608    1.403   .     A
C597   C599    1.401   .     A
C597   O684    1.385   .     S
C598   C609    1.404   .     A
C598   O668    1.384   .     S
C598   C601    1.399   .     A
C599   C602    1.387   .     A
C600   O678    1.297   .     A
C600   C624    1.444   .     S
C600   O677    1.292   .     A
C601   C603    1.386   .     A
C602   C604    1.402   .     A
C602   O669    1.380   .     S
C603   O670    1.379   .     S
C603   C605    1.402   .     A
C604   C610    1.414   .     A
C604   C606    1.423   .     A
C605   C612    1.411   .     A
C605   C607    1.421   .     A
C606   C608    1.426   .     A
C606   C1489   1.404   .     S
C607   C609    1.427   .     A
C607   C1488   1.404   1_554 S
C608   C619    1.421   .     A
C609   C611    1.417   .     A
C610   O671    1.379   .     S
C610   C1493   1.388   .     S
C611   N661    1.426   .     S
C611   C1492   1.388   1_554 S
C612   O672    1.383   .     S
C612   C1501   1.402   1_554 S
C613   N661    1.447   .     S
C613   H657    1.112   .     S
C613   H658    1.110   .     S
C613   H822    1.109   1_455 S
C614   N662    1.448   .     S
C614   H630    1.112   .     S
C614   H628    1.109   .     S
C614   H629    1.110   .     S
C615   N663    1.453   .     S
C615   H638    1.103   .     S
C615   H639    1.108   .     S
C615   H637    1.111   .     S
C616   H642    1.109   .     S
C616   H643    1.110   .     S
C616   N664    1.447   .     S
C616   H641    1.108   .     S
C617   H648    1.111   .     S
C617   H645    1.109   .     S
C617   N665    1.450   .     S
C617   H646    1.106   .     S
C618   H652    1.111   .     S
C618   H651    1.100   .     S
C618   H650    1.108   .     S
C618   N666    1.443   .     S
C619   N662    1.426   .     S
C619   C1494   1.402   .     S
C620   O673    1.380   .     S
C620   C818    1.374   1_455 S
C621   C624    1.413   .     A
C621   O674    1.381   .     S
C621   C721    1.385   .     S
C622   C624    1.416   .     A
C622   O675    1.377   .     S
C622   C718    1.374   .     S
C623   O676    1.383   .     S
C623   C817    1.385   1_455 S
H625   O684    0.989   .     S
H626   C711    1.109   .     S
H627   N662    1.031   .     S
H631   O673    0.991   .     S
H632   O674    0.992   .     S
H633   O675    0.992   .     S
H634   O676    0.991   .     S
H635   N663    1.024   .     S
H636   O668    0.990   .     S
H640   N664    1.031   .     S
H644   N665    1.031   .     S
H647   O669    0.992   .     S
H649   N666    1.032   .     S
H653   O670    0.992   .     S
H654   O671    0.992   .     S
H655   O672    0.989   .     S
H656   N661    1.031   .     S
N659   Zn685   2.024   .     S
N660   Zn686   2.024   .     S
O667   Zn685   2.003   .     S
O677   Zn686   2.003   .     S
O678   Zn685   1.995   .     S
O679   Zn686   1.995   .     S
O680   Zn685   2.014   .     S
O681   Zn686   2.014   .     S
O682   Zn685   2.009   .     S
O683   Zn686   2.009   .     S
C687   C688    1.443   .     S
C687   O777    1.296   .     A
C687   O765    1.293   .     A
C688   C721    1.402   .     A
C688   C718    1.406   .     A
C689   N761    1.424   .     S
C689   N758    1.378   .     A
C690   N762    1.422   .     S
C690   N757    1.373   .     A
C690   C103    1.435   1_565 S
C691   N758    1.373   .     A
C691   N763    1.422   .     S
C692   N764    1.421   .     S
C692   N757    1.368   .     A
C692   C101    1.428   1_565 S
C693   O781    1.289   .     A
C693   O778    1.286   .     A
C693   C699    1.424   .     S
C694   O780    1.292   .     A
C694   O779    1.284   .     A
C694   C697    1.425   .     S
C695   C706    1.403   .     A
C695   C697    1.401   .     A
C695   O782    1.385   .     S
C696   C707    1.404   .     A
C696   O766    1.384   .     S
C696   C699    1.399   .     A
C697   C700    1.387   .     A
C698   O776    1.297   .     A
C698   C722    1.444   .     S
C698   O775    1.292   .     A
C699   C701    1.386   .     A
C700   C702    1.402   .     A
C700   O767    1.380   .     S
C701   O768    1.379   .     S
C701   C703    1.402   .     A
C702   C708    1.414   .     A
C702   C704    1.423   .     A
C703   C710    1.411   .     A
C703   C705    1.421   .     A
C704   C706    1.426   .     A
C704   C1587   1.404   .     S
C705   C707    1.427   .     A
C705   C1586   1.404   1_554 S
C706   C717    1.421   .     A
C707   C709    1.417   .     A
C708   O769    1.379   .     S
C708   C1591   1.388   .     S
C709   N759    1.426   .     S
C709   C1590   1.388   1_554 S
C710   O770    1.383   .     S
C710   C1599   1.402   1_554 S
C711   N759    1.447   .     S
C711   H755    1.112   .     S
C711   H756    1.110   .     S
C712   N760    1.448   .     S
C712   H728    1.112   .     S
C712   H726    1.109   .     S
C712   H727    1.110   .     S
C713   N761    1.453   .     S
C713   H736    1.103   .     S
C713   H737    1.108   .     S
C713   H735    1.111   .     S
C714   H740    1.109   .     S
C714   H741    1.110   .     S
C714   N762    1.447   .     S
C714   H739    1.108   .     S
C715   H746    1.111   .     S
C715   H743    1.109   .     S
C715   N763    1.450   .     S
C715   H744    1.106   .     S
C716   H750    1.111   .     S
C716   H749    1.100   .     S
C716   H748    1.108   .     S
C716   N764    1.443   .     S
C717   N760    1.426   .     S
C717   C1592   1.402   .     S
C718   O771    1.380   .     S
C719   C722    1.413   .     A
C719   O772    1.381   .     S
C719   C819    1.385   .     S
C720   C722    1.416   .     A
C720   O773    1.377   .     S
C720   C816    1.374   .     S
C721   O774    1.383   .     S
H723   O782    0.989   .     S
H724   C809    1.109   .     S
H725   N760    1.031   .     S
H729   O771    0.991   .     S
H730   O772    0.992   .     S
H731   O773    0.992   .     S
H732   O774    0.991   .     S
H733   N761    1.024   .     S
H734   O766    0.990   .     S
H738   N762    1.031   .     S
H742   N763    1.031   .     S
H745   O767    0.992   .     S
H747   N764    1.032   .     S
H751   O768    0.992   .     S
H752   O769    0.992   .     S
H753   O770    0.989   .     S
H754   N759    1.031   .     S
N757   Zn783   2.024   .     S
N758   Zn784   2.024   .     S
O765   Zn783   2.003   .     S
O775   Zn784   2.003   .     S
O776   Zn783   1.995   .     S
O777   Zn784   1.995   .     S
O778   Zn783   2.014   .     S
O779   Zn784   2.014   .     S
O780   Zn783   2.009   .     S
O781   Zn784   2.009   .     S
C785   C786    1.443   .     S
C785   O875    1.296   .     A
C785   O863    1.293   .     A
C786   C819    1.402   .     A
C786   C816    1.406   .     A
C787   N859    1.424   .     S
C787   N856    1.378   .     A
C788   N860    1.422   .     S
C788   N855    1.373   .     A
C788   C201    1.435   1_565 S
C789   N856    1.373   .     A
C789   N861    1.422   .     S
C790   N862    1.421   .     S
C790   N855    1.368   .     A
C790   C199    1.428   1_565 S
C791   O879    1.289   .     A
C791   O876    1.286   .     A
C791   C797    1.424   .     S
C792   O878    1.292   .     A
C792   O877    1.284   .     A
C792   C795    1.425   .     S
C793   C804    1.403   .     A
C793   C795    1.401   .     A
C793   O880    1.385   .     S
C794   C805    1.404   .     A
C794   O864    1.384   .     S
C794   C797    1.399   .     A
C795   C798    1.387   .     A
C796   O874    1.297   .     A
C796   C820    1.444   .     S
C796   O873    1.292   .     A
C797   C799    1.386   .     A
C798   C800    1.402   .     A
C798   O865    1.380   .     S
C799   O866    1.379   .     S
C799   C801    1.402   .     A
C800   C806    1.414   .     A
C800   C802    1.423   .     A
C801   C808    1.411   .     A
C801   C803    1.421   .     A
C802   C804    1.426   .     A
C802   C1685   1.404   .     S
C803   C805    1.427   .     A
C803   C1684   1.404   1_554 S
C804   C815    1.421   .     A
C805   C807    1.417   .     A
C806   O867    1.379   .     S
C806   C1689   1.388   .     S
C807   N857    1.426   .     S
C807   C1688   1.388   1_554 S
C808   O868    1.383   .     S
C808   C1697   1.402   1_554 S
C809   N857    1.447   .     S
C809   H853    1.112   .     S
C809   H854    1.110   .     S
C810   N858    1.448   .     S
C810   H826    1.112   .     S
C810   H824    1.109   .     S
C810   H825    1.110   .     S
C811   N859    1.453   .     S
C811   H834    1.103   .     S
C811   H835    1.108   .     S
C811   H833    1.111   .     S
C812   H838    1.109   .     S
C812   H839    1.110   .     S
C812   N860    1.447   .     S
C812   H837    1.108   .     S
C813   H844    1.111   .     S
C813   H841    1.109   .     S
C813   N861    1.450   .     S
C813   H842    1.106   .     S
C814   H848    1.111   .     S
C814   H847    1.100   .     S
C814   H846    1.108   .     S
C814   N862    1.443   .     S
C815   N858    1.426   .     S
C815   C1690   1.402   .     S
C816   O869    1.380   .     S
C817   C820    1.413   .     A
C817   O870    1.381   .     S
C817   C623    1.385   1_655 S
C818   C820    1.416   .     A
C818   O871    1.377   .     S
C818   C620    1.374   1_655 S
C819   O872    1.383   .     S
H821   O880    0.989   .     S
H822   C613    1.109   1_655 S
H823   N858    1.031   .     S
H827   O869    0.991   .     S
H828   O870    0.992   .     S
H829   O871    0.992   .     S
H830   O872    0.991   .     S
H831   N859    1.024   .     S
H832   O864    0.990   .     S
H836   N860    1.031   .     S
H840   N861    1.031   .     S
H843   O865    0.992   .     S
H845   N862    1.032   .     S
H849   O866    0.992   .     S
H850   O867    0.992   .     S
H851   O868    0.989   .     S
H852   N857    1.031   .     S
N855   Zn881   2.024   .     S
N856   Zn882   2.024   .     S
O863   Zn881   2.003   .     S
O873   Zn882   2.003   .     S
O874   Zn881   1.995   .     S
O875   Zn882   1.995   .     S
O876   Zn881   2.014   .     S
O877   Zn882   2.014   .     S
O878   Zn881   2.009   .     S
O879   Zn882   2.009   .     S
C883   C884    1.443   .     S
C883   O973    1.296   .     A
C883   O961    1.293   .     A
C884   C917    1.402   .     A
C884   C914    1.406   .     A
C885   N957    1.424   .     S
C885   N954    1.378   .     A
C885   C1476   1.428   1_545 S
C886   N958    1.422   .     S
C886   N953    1.373   .     A
C886   C1181   1.435   .     S
C887   N954    1.373   .     A
C887   N959    1.422   .     S
C887   C1474   1.435   1_545 S
C888   N960    1.421   .     S
C888   N953    1.368   .     A
C888   C1179   1.428   .     S
C889   O977    1.289   .     A
C889   O974    1.286   .     A
C889   C895    1.424   .     S
C890   O976    1.292   .     A
C890   O975    1.284   .     A
C890   C893    1.425   .     S
C891   C902    1.403   .     A
C891   C893    1.401   .     A
C891   O978    1.385   .     S
C892   C903    1.404   .     A
C892   O962    1.384   .     S
C892   C895    1.399   .     A
C893   C896    1.387   .     A
C894   O972    1.297   .     A
C894   C918    1.444   .     S
C894   O971    1.292   .     A
C895   C897    1.386   .     A
C896   C898    1.402   .     A
C896   O963    1.380   .     S
C897   O964    1.379   .     S
C897   C899    1.402   .     A
C898   C904    1.414   .     A
C898   C900    1.423   .     A
C899   C906    1.411   .     A
C899   C901    1.421   .     A
C900   C902    1.426   .     A
C900   C19     1.404   1_556 S
C901   C903    1.427   .     A
C902   C913    1.421   .     A
C903   C905    1.417   .     A
C904   O965    1.379   .     S
C904   C23     1.388   1_556 S
C905   N955    1.426   .     S
C906   O966    1.383   .     S
C907   N955    1.447   .     S
C907   H951    1.112   .     S
C907   H952    1.110   .     S
C907   H1116   1.109   1_455 S
C908   N956    1.448   .     S
C908   H924    1.112   .     S
C908   H922    1.109   .     S
C908   H923    1.110   .     S
C909   N957    1.453   .     S
C909   H932    1.103   .     S
C909   H933    1.108   .     S
C909   H931    1.111   .     S
C910   H936    1.109   .     S
C910   H937    1.110   .     S
C910   N958    1.447   .     S
C910   H935    1.108   .     S
C911   H942    1.111   .     S
C911   H939    1.109   .     S
C911   N959    1.450   .     S
C911   H940    1.106   .     S
C912   H946    1.111   .     S
C912   H945    1.100   .     S
C912   H944    1.108   .     S
C912   N960    1.443   .     S
C913   N956    1.426   .     S
C913   C24     1.402   1_556 S
C914   O967    1.380   .     S
C914   C1112   1.374   1_455 S
C915   C918    1.413   .     A
C915   O968    1.381   .     S
C915   C1015   1.385   .     S
C916   C918    1.416   .     A
C916   O969    1.377   .     S
C916   C1012   1.374   .     S
C917   O970    1.383   .     S
C917   C1111   1.385   1_455 S
H919   O978    0.989   .     S
H920   C1005   1.109   .     S
H921   N956    1.031   .     S
H925   O967    0.991   .     S
H926   O968    0.992   .     S
H927   O969    0.992   .     S
H928   O970    0.991   .     S
H929   N957    1.024   .     S
H930   O962    0.990   .     S
H934   N958    1.031   .     S
H938   N959    1.031   .     S
H941   O963    0.992   .     S
H943   N960    1.032   .     S
H947   O964    0.992   .     S
H948   O965    0.992   .     S
H949   O966    0.989   .     S
H950   N955    1.031   .     S
N953   Zn979   2.024   .     S
N954   Zn980   2.024   .     S
O961   Zn979   2.003   .     S
O971   Zn980   2.003   .     S
O972   Zn979   1.995   .     S
O973   Zn980   1.995   .     S
O974   Zn979   2.014   .     S
O975   Zn980   2.014   .     S
O976   Zn979   2.009   .     S
O977   Zn980   2.009   .     S
C981   C982    1.443   .     S
C981   O1071   1.296   .     A
C981   O1059   1.293   .     A
C982   C1015   1.402   .     A
C982   C1012   1.406   .     A
C983   N1055   1.424   .     S
C983   N1052   1.378   .     A
C983   C1574   1.428   1_545 S
C984   N1056   1.422   .     S
C984   N1051   1.373   .     A
C984   C1279   1.435   .     S
C985   N1052   1.373   .     A
C985   N1057   1.422   .     S
C985   C1572   1.435   1_545 S
C986   N1058   1.421   .     S
C986   N1051   1.368   .     A
C986   C1277   1.428   .     S
C987   O1075   1.289   .     A
C987   O1072   1.286   .     A
C987   C993    1.424   .     S
C988   O1074   1.292   .     A
C988   O1073   1.284   .     A
C988   C991    1.425   .     S
C989   C1000   1.403   .     A
C989   C991    1.401   .     A
C989   O1076   1.385   .     S
C990   C1001   1.404   .     A
C990   O1060   1.384   .     S
C990   C993    1.399   .     A
C991   C994    1.387   .     A
C992   O1070   1.297   .     A
C992   C1016   1.444   .     S
C992   O1069   1.292   .     A
C993   C995    1.386   .     A
C994   C996    1.402   .     A
C994   O1061   1.380   .     S
C995   O1062   1.379   .     S
C995   C997    1.402   .     A
C996   C1002   1.414   .     A
C996   C998    1.423   .     A
C997   C1004   1.411   .     A
C997   C999    1.421   .     A
C998   C1000   1.426   .     A
C998   C117    1.404   1_556 S
C999   C1001   1.427   .     A
C1000  C1011   1.421   .     A
C1001  C1003   1.417   .     A
C1002  O1063   1.379   .     S
C1002  C121    1.388   1_556 S
C1003  N1053   1.426   .     S
C1004  O1064   1.383   .     S
C1005  N1053   1.447   .     S
C1005  H1049   1.112   .     S
C1005  H1050   1.110   .     S
C1006  N1054   1.448   .     S
C1006  H1022   1.112   .     S
C1006  H1020   1.109   .     S
C1006  H1021   1.110   .     S
C1007  N1055   1.453   .     S
C1007  H1030   1.103   .     S
C1007  H1031   1.108   .     S
C1007  H1029   1.111   .     S
C1008  H1034   1.109   .     S
C1008  H1035   1.110   .     S
C1008  N1056   1.447   .     S
C1008  H1033   1.108   .     S
C1009  H1040   1.111   .     S
C1009  H1037   1.109   .     S
C1009  N1057   1.450   .     S
C1009  H1038   1.106   .     S
C1010  H1044   1.111   .     S
C1010  H1043   1.100   .     S
C1010  H1042   1.108   .     S
C1010  N1058   1.443   .     S
C1011  N1054   1.426   .     S
C1011  C122    1.402   1_556 S
C1012  O1065   1.380   .     S
C1013  C1016   1.413   .     A
C1013  O1066   1.381   .     S
C1013  C1113   1.385   .     S
C1014  C1016   1.416   .     A
C1014  O1067   1.377   .     S
C1014  C1110   1.374   .     S
C1015  O1068   1.383   .     S
H1017  O1076   0.989   .     S
H1018  C1103   1.109   .     S
H1019  N1054   1.031   .     S
H1023  O1065   0.991   .     S
H1024  O1066   0.992   .     S
H1025  O1067   0.992   .     S
H1026  O1068   0.991   .     S
H1027  N1055   1.024   .     S
H1028  O1060   0.990   .     S
H1032  N1056   1.031   .     S
H1036  N1057   1.031   .     S
H1039  O1061   0.992   .     S
H1041  N1058   1.032   .     S
H1045  O1062   0.992   .     S
H1046  O1063   0.992   .     S
H1047  O1064   0.989   .     S
H1048  N1053   1.031   .     S
N1051  Zn1077  2.024   .     S
N1052  Zn1078  2.024   .     S
O1059  Zn1077  2.003   .     S
O1069  Zn1078  2.003   .     S
O1070  Zn1077  1.995   .     S
O1071  Zn1078  1.995   .     S
O1072  Zn1077  2.014   .     S
O1073  Zn1078  2.014   .     S
O1074  Zn1077  2.009   .     S
O1075  Zn1078  2.009   .     S
C1079  C1080   1.443   .     S
C1079  O1169   1.296   .     A
C1079  O1157   1.293   .     A
C1080  C1113   1.402   .     A
C1080  C1110   1.406   .     A
C1081  N1153   1.424   .     S
C1081  N1150   1.378   .     A
C1081  C1672   1.428   1_545 S
C1082  N1154   1.422   .     S
C1082  N1149   1.373   .     A
C1082  C1377   1.435   .     S
C1083  N1150   1.373   .     A
C1083  N1155   1.422   .     S
C1083  C1670   1.435   1_545 S
C1084  N1156   1.421   .     S
C1084  N1149   1.368   .     A
C1084  C1375   1.428   .     S
C1085  O1173   1.289   .     A
C1085  O1170   1.286   .     A
C1085  C1091   1.424   .     S
C1086  O1172   1.292   .     A
C1086  O1171   1.284   .     A
C1086  C1089   1.425   .     S
C1087  C1098   1.403   .     A
C1087  C1089   1.401   .     A
C1087  O1174   1.385   .     S
C1088  C1099   1.404   .     A
C1088  O1158   1.384   .     S
C1088  C1091   1.399   .     A
C1089  C1092   1.387   .     A
C1090  O1168   1.297   .     A
C1090  C1114   1.444   .     S
C1090  O1167   1.292   .     A
C1091  C1093   1.386   .     A
C1092  C1094   1.402   .     A
C1092  O1159   1.380   .     S
C1093  O1160   1.379   .     S
C1093  C1095   1.402   .     A
C1094  C1100   1.414   .     A
C1094  C1096   1.423   .     A
C1095  C1102   1.411   .     A
C1095  C1097   1.421   .     A
C1096  C1098   1.426   .     A
C1096  C215    1.404   1_556 S
C1097  C1099   1.427   .     A
C1098  C1109   1.421   .     A
C1099  C1101   1.417   .     A
C1100  O1161   1.379   .     S
C1100  C219    1.388   1_556 S
C1101  N1151   1.426   .     S
C1102  O1162   1.383   .     S
C1103  N1151   1.447   .     S
C1103  H1147   1.112   .     S
C1103  H1148   1.110   .     S
C1104  N1152   1.448   .     S
C1104  H1120   1.112   .     S
C1104  H1118   1.109   .     S
C1104  H1119   1.110   .     S
C1105  N1153   1.453   .     S
C1105  H1128   1.103   .     S
C1105  H1129   1.108   .     S
C1105  H1127   1.111   .     S
C1106  H1132   1.109   .     S
C1106  H1133   1.110   .     S
C1106  N1154   1.447   .     S
C1106  H1131   1.108   .     S
C1107  H1138   1.111   .     S
C1107  H1135   1.109   .     S
C1107  N1155   1.450   .     S
C1107  H1136   1.106   .     S
C1108  H1142   1.111   .     S
C1108  H1141   1.100   .     S
C1108  H1140   1.108   .     S
C1108  N1156   1.443   .     S
C1109  N1152   1.426   .     S
C1109  C220    1.402   1_556 S
C1110  O1163   1.380   .     S
C1111  C1114   1.413   .     A
C1111  O1164   1.381   .     S
C1111  C917    1.385   1_655 S
C1112  C1114   1.416   .     A
C1112  O1165   1.377   .     S
C1112  C914    1.374   1_655 S
C1113  O1166   1.383   .     S
H1115  O1174   0.989   .     S
H1116  C907    1.109   1_655 S
H1117  N1152   1.031   .     S
H1121  O1163   0.991   .     S
H1122  O1164   0.992   .     S
H1123  O1165   0.992   .     S
H1124  O1166   0.991   .     S
H1125  N1153   1.024   .     S
H1126  O1158   0.990   .     S
H1130  N1154   1.031   .     S
H1134  N1155   1.031   .     S
H1137  O1159   0.992   .     S
H1139  N1156   1.032   .     S
H1143  O1160   0.992   .     S
H1144  O1161   0.992   .     S
H1145  O1162   0.989   .     S
H1146  N1151   1.031   .     S
N1149  Zn1175  2.024   .     S
N1150  Zn1176  2.024   .     S
O1157  Zn1175  2.003   .     S
O1167  Zn1176  2.003   .     S
O1168  Zn1175  1.995   .     S
O1169  Zn1176  1.995   .     S
O1170  Zn1175  2.014   .     S
O1171  Zn1176  2.014   .     S
O1172  Zn1175  2.009   .     S
O1173  Zn1176  2.009   .     S
C1177  C1178   1.443   .     S
C1177  O1267   1.296   .     A
C1177  O1255   1.293   .     A
C1178  C1211   1.402   .     A
C1178  C1208   1.406   .     A
C1179  N1251   1.424   .     S
C1179  N1248   1.378   .     A
C1180  N1252   1.422   .     S
C1180  N1247   1.373   .     A
C1180  C1475   1.435   .     S
C1181  N1248   1.373   .     A
C1181  N1253   1.422   .     S
C1182  N1254   1.421   .     S
C1182  N1247   1.368   .     A
C1182  C1473   1.428   .     S
C1183  O1271   1.289   .     A
C1183  O1268   1.286   .     A
C1183  C1189   1.424   .     S
C1184  O1270   1.292   .     A
C1184  O1269   1.284   .     A
C1184  C1187   1.425   .     S
C1185  C1196   1.403   .     A
C1185  C1187   1.401   .     A
C1185  O1272   1.385   .     S
C1186  C1197   1.404   .     A
C1186  O1256   1.384   .     S
C1186  C1189   1.399   .     A
C1187  C1190   1.387   .     A
C1188  O1266   1.297   .     A
C1188  C1212   1.444   .     S
C1188  O1265   1.292   .     A
C1189  C1191   1.386   .     A
C1190  C1192   1.402   .     A
C1190  O1257   1.380   .     S
C1191  O1258   1.379   .     S
C1191  C1193   1.402   .     A
C1192  C1198   1.414   .     A
C1192  C1194   1.423   .     A
C1193  C1200   1.411   .     A
C1193  C1195   1.421   .     A
C1194  C1196   1.426   .     A
C1194  C313    1.404   1_556 S
C1195  C1197   1.427   .     A
C1196  C1207   1.421   .     A
C1197  C1199   1.417   .     A
C1198  O1259   1.379   .     S
C1198  C317    1.388   1_556 S
C1199  N1249   1.426   .     S
C1200  O1260   1.383   .     S
C1201  N1249   1.447   .     S
C1201  H1245   1.112   .     S
C1201  H1246   1.110   .     S
C1201  H1410   1.109   1_455 S
C1202  N1250   1.448   .     S
C1202  H1218   1.112   .     S
C1202  H1216   1.109   .     S
C1202  H1217   1.110   .     S
C1203  N1251   1.453   .     S
C1203  H1226   1.103   .     S
C1203  H1227   1.108   .     S
C1203  H1225   1.111   .     S
C1204  H1230   1.109   .     S
C1204  H1231   1.110   .     S
C1204  N1252   1.447   .     S
C1204  H1229   1.108   .     S
C1205  H1236   1.111   .     S
C1205  H1233   1.109   .     S
C1205  N1253   1.450   .     S
C1205  H1234   1.106   .     S
C1206  H1240   1.111   .     S
C1206  H1239   1.100   .     S
C1206  H1238   1.108   .     S
C1206  N1254   1.443   .     S
C1207  N1250   1.426   .     S
C1207  C318    1.402   1_556 S
C1208  O1261   1.380   .     S
C1208  C1406   1.374   1_455 S
C1209  C1212   1.413   .     A
C1209  O1262   1.381   .     S
C1209  C1309   1.385   .     S
C1210  C1212   1.416   .     A
C1210  O1263   1.377   .     S
C1210  C1306   1.374   .     S
C1211  O1264   1.383   .     S
C1211  C1405   1.385   1_455 S
H1213  O1272   0.989   .     S
H1214  C1299   1.109   .     S
H1215  N1250   1.031   .     S
H1219  O1261   0.991   .     S
H1220  O1262   0.992   .     S
H1221  O1263   0.992   .     S
H1222  O1264   0.991   .     S
H1223  N1251   1.024   .     S
H1224  O1256   0.990   .     S
H1228  N1252   1.031   .     S
H1232  N1253   1.031   .     S
H1235  O1257   0.992   .     S
H1237  N1254   1.032   .     S
H1241  O1258   0.992   .     S
H1242  O1259   0.992   .     S
H1243  O1260   0.989   .     S
H1244  N1249   1.031   .     S
N1247  Zn1273  2.024   .     S
N1248  Zn1274  2.024   .     S
O1255  Zn1273  2.003   .     S
O1265  Zn1274  2.003   .     S
O1266  Zn1273  1.995   .     S
O1267  Zn1274  1.995   .     S
O1268  Zn1273  2.014   .     S
O1269  Zn1274  2.014   .     S
O1270  Zn1273  2.009   .     S
O1271  Zn1274  2.009   .     S
C1275  C1276   1.443   .     S
C1275  O1365   1.296   .     A
C1275  O1353   1.293   .     A
C1276  C1309   1.402   .     A
C1276  C1306   1.406   .     A
C1277  N1349   1.424   .     S
C1277  N1346   1.378   .     A
C1278  N1350   1.422   .     S
C1278  N1345   1.373   .     A
C1278  C1573   1.435   .     S
C1279  N1346   1.373   .     A
C1279  N1351   1.422   .     S
C1280  N1352   1.421   .     S
C1280  N1345   1.368   .     A
C1280  C1571   1.428   .     S
C1281  O1369   1.289   .     A
C1281  O1366   1.286   .     A
C1281  C1287   1.424   .     S
C1282  O1368   1.292   .     A
C1282  O1367   1.284   .     A
C1282  C1285   1.425   .     S
C1283  C1294   1.403   .     A
C1283  C1285   1.401   .     A
C1283  O1370   1.385   .     S
C1284  C1295   1.404   .     A
C1284  O1354   1.384   .     S
C1284  C1287   1.399   .     A
C1285  C1288   1.387   .     A
C1286  O1364   1.297   .     A
C1286  C1310   1.444   .     S
C1286  O1363   1.292   .     A
C1287  C1289   1.386   .     A
C1288  C1290   1.402   .     A
C1288  O1355   1.380   .     S
C1289  O1356   1.379   .     S
C1289  C1291   1.402   .     A
C1290  C1296   1.414   .     A
C1290  C1292   1.423   .     A
C1291  C1298   1.411   .     A
C1291  C1293   1.421   .     A
C1292  C1294   1.426   .     A
C1292  C411    1.404   1_556 S
C1293  C1295   1.427   .     A
C1294  C1305   1.421   .     A
C1295  C1297   1.417   .     A
C1296  O1357   1.379   .     S
C1296  C415    1.388   1_556 S
C1297  N1347   1.426   .     S
C1298  O1358   1.383   .     S
C1299  N1347   1.447   .     S
C1299  H1343   1.112   .     S
C1299  H1344   1.110   .     S
C1300  N1348   1.448   .     S
C1300  H1316   1.112   .     S
C1300  H1314   1.109   .     S
C1300  H1315   1.110   .     S
C1301  N1349   1.453   .     S
C1301  H1324   1.103   .     S
C1301  H1325   1.108   .     S
C1301  H1323   1.111   .     S
C1302  H1328   1.109   .     S
C1302  H1329   1.110   .     S
C1302  N1350   1.447   .     S
C1302  H1327   1.108   .     S
C1303  H1334   1.111   .     S
C1303  H1331   1.109   .     S
C1303  N1351   1.450   .     S
C1303  H1332   1.106   .     S
C1304  H1338   1.111   .     S
C1304  H1337   1.100   .     S
C1304  H1336   1.108   .     S
C1304  N1352   1.443   .     S
C1305  N1348   1.426   .     S
C1305  C416    1.402   1_556 S
C1306  O1359   1.380   .     S
C1307  C1310   1.413   .     A
C1307  O1360   1.381   .     S
C1307  C1407   1.385   .     S
C1308  C1310   1.416   .     A
C1308  O1361   1.377   .     S
C1308  C1404   1.374   .     S
C1309  O1362   1.383   .     S
H1311  O1370   0.989   .     S
H1312  C1397   1.109   .     S
H1313  N1348   1.031   .     S
H1317  O1359   0.991   .     S
H1318  O1360   0.992   .     S
H1319  O1361   0.992   .     S
H1320  O1362   0.991   .     S
H1321  N1349   1.024   .     S
H1322  O1354   0.990   .     S
H1326  N1350   1.031   .     S
H1330  N1351   1.031   .     S
H1333  O1355   0.992   .     S
H1335  N1352   1.032   .     S
H1339  O1356   0.992   .     S
H1340  O1357   0.992   .     S
H1341  O1358   0.989   .     S
H1342  N1347   1.031   .     S
N1345  Zn1371  2.024   .     S
N1346  Zn1372  2.024   .     S
O1353  Zn1371  2.003   .     S
O1363  Zn1372  2.003   .     S
O1364  Zn1371  1.995   .     S
O1365  Zn1372  1.995   .     S
O1366  Zn1371  2.014   .     S
O1367  Zn1372  2.014   .     S
O1368  Zn1371  2.009   .     S
O1369  Zn1372  2.009   .     S
C1373  C1374   1.443   .     S
C1373  O1463   1.296   .     A
C1373  O1451   1.293   .     A
C1374  C1407   1.402   .     A
C1374  C1404   1.406   .     A
C1375  N1447   1.424   .     S
C1375  N1444   1.378   .     A
C1376  N1448   1.422   .     S
C1376  N1443   1.373   .     A
C1376  C1671   1.435   .     S
C1377  N1444   1.373   .     A
C1377  N1449   1.422   .     S
C1378  N1450   1.421   .     S
C1378  N1443   1.368   .     A
C1378  C1669   1.428   .     S
C1379  O1467   1.289   .     A
C1379  O1464   1.286   .     A
C1379  C1385   1.424   .     S
C1380  O1466   1.292   .     A
C1380  O1465   1.284   .     A
C1380  C1383   1.425   .     S
C1381  C1392   1.403   .     A
C1381  C1383   1.401   .     A
C1381  O1468   1.385   .     S
C1382  C1393   1.404   .     A
C1382  O1452   1.384   .     S
C1382  C1385   1.399   .     A
C1383  C1386   1.387   .     A
C1384  O1462   1.297   .     A
C1384  C1408   1.444   .     S
C1384  O1461   1.292   .     A
C1385  C1387   1.386   .     A
C1386  C1388   1.402   .     A
C1386  O1453   1.380   .     S
C1387  O1454   1.379   .     S
C1387  C1389   1.402   .     A
C1388  C1394   1.414   .     A
C1388  C1390   1.423   .     A
C1389  C1396   1.411   .     A
C1389  C1391   1.421   .     A
C1390  C1392   1.426   .     A
C1390  C509    1.404   1_556 S
C1391  C1393   1.427   .     A
C1392  C1403   1.421   .     A
C1393  C1395   1.417   .     A
C1394  O1455   1.379   .     S
C1394  C513    1.388   1_556 S
C1395  N1445   1.426   .     S
C1396  O1456   1.383   .     S
C1397  N1445   1.447   .     S
C1397  H1441   1.112   .     S
C1397  H1442   1.110   .     S
C1398  N1446   1.448   .     S
C1398  H1414   1.112   .     S
C1398  H1412   1.109   .     S
C1398  H1413   1.110   .     S
C1399  N1447   1.453   .     S
C1399  H1422   1.103   .     S
C1399  H1423   1.108   .     S
C1399  H1421   1.111   .     S
C1400  H1426   1.109   .     S
C1400  H1427   1.110   .     S
C1400  N1448   1.447   .     S
C1400  H1425   1.108   .     S
C1401  H1432   1.111   .     S
C1401  H1429   1.109   .     S
C1401  N1449   1.450   .     S
C1401  H1430   1.106   .     S
C1402  H1436   1.111   .     S
C1402  H1435   1.100   .     S
C1402  H1434   1.108   .     S
C1402  N1450   1.443   .     S
C1403  N1446   1.426   .     S
C1403  C514    1.402   1_556 S
C1404  O1457   1.380   .     S
C1405  C1408   1.413   .     A
C1405  O1458   1.381   .     S
C1405  C1211   1.385   1_655 S
C1406  C1408   1.416   .     A
C1406  O1459   1.377   .     S
C1406  C1208   1.374   1_655 S
C1407  O1460   1.383   .     S
H1409  O1468   0.989   .     S
H1410  C1201   1.109   1_655 S
H1411  N1446   1.031   .     S
H1415  O1457   0.991   .     S
H1416  O1458   0.992   .     S
H1417  O1459   0.992   .     S
H1418  O1460   0.991   .     S
H1419  N1447   1.024   .     S
H1420  O1452   0.990   .     S
H1424  N1448   1.031   .     S
H1428  N1449   1.031   .     S
H1431  O1453   0.992   .     S
H1433  N1450   1.032   .     S
H1437  O1454   0.992   .     S
H1438  O1455   0.992   .     S
H1439  O1456   0.989   .     S
H1440  N1445   1.031   .     S
N1443  Zn1469  2.024   .     S
N1444  Zn1470  2.024   .     S
O1451  Zn1469  2.003   .     S
O1461  Zn1470  2.003   .     S
O1462  Zn1469  1.995   .     S
O1463  Zn1470  1.995   .     S
O1464  Zn1469  2.014   .     S
O1465  Zn1470  2.014   .     S
O1466  Zn1469  2.009   .     S
O1467  Zn1470  2.009   .     S
C1471  C1472   1.443   .     S
C1471  O1561   1.296   .     A
C1471  O1549   1.293   .     A
C1472  C1505   1.402   .     A
C1472  C1502   1.406   .     A
C1473  N1545   1.424   .     S
C1473  N1542   1.378   .     A
C1474  N1546   1.422   .     S
C1474  N1541   1.373   .     A
C1474  C887    1.435   1_565 S
C1475  N1542   1.373   .     A
C1475  N1547   1.422   .     S
C1476  N1548   1.421   .     S
C1476  N1541   1.368   .     A
C1476  C885    1.428   1_565 S
C1477  O1565   1.289   .     A
C1477  O1562   1.286   .     A
C1477  C1483   1.424   .     S
C1478  O1564   1.292   .     A
C1478  O1563   1.284   .     A
C1478  C1481   1.425   .     S
C1479  C1490   1.403   .     A
C1479  C1481   1.401   .     A
C1479  O1566   1.385   .     S
C1480  C1491   1.404   .     A
C1480  O1550   1.384   .     S
C1480  C1483   1.399   .     A
C1481  C1484   1.387   .     A
C1482  O1560   1.297   .     A
C1482  C1506   1.444   .     S
C1482  O1559   1.292   .     A
C1483  C1485   1.386   .     A
C1484  C1486   1.402   .     A
C1484  O1551   1.380   .     S
C1485  O1552   1.379   .     S
C1485  C1487   1.402   .     A
C1486  C1492   1.414   .     A
C1486  C1488   1.423   .     A
C1487  C1494   1.411   .     A
C1487  C1489   1.421   .     A
C1488  C1490   1.426   .     A
C1488  C607    1.404   1_556 S
C1489  C1491   1.427   .     A
C1490  C1501   1.421   .     A
C1491  C1493   1.417   .     A
C1492  O1553   1.379   .     S
C1492  C611    1.388   1_556 S
C1493  N1543   1.426   .     S
C1494  O1554   1.383   .     S
C1495  N1543   1.447   .     S
C1495  H1539   1.112   .     S
C1495  H1540   1.110   .     S
C1495  H1704   1.109   1_455 S
C1496  N1544   1.448   .     S
C1496  H1512   1.112   .     S
C1496  H1510   1.109   .     S
C1496  H1511   1.110   .     S
C1497  N1545   1.453   .     S
C1497  H1520   1.103   .     S
C1497  H1521   1.108   .     S
C1497  H1519   1.111   .     S
C1498  H1524   1.109   .     S
C1498  H1525   1.110   .     S
C1498  N1546   1.447   .     S
C1498  H1523   1.108   .     S
C1499  H1530   1.111   .     S
C1499  H1527   1.109   .     S
C1499  N1547   1.450   .     S
C1499  H1528   1.106   .     S
C1500  H1534   1.111   .     S
C1500  H1533   1.100   .     S
C1500  H1532   1.108   .     S
C1500  N1548   1.443   .     S
C1501  N1544   1.426   .     S
C1501  C612    1.402   1_556 S
C1502  O1555   1.380   .     S
C1502  C1700   1.374   1_455 S
C1503  C1506   1.413   .     A
C1503  O1556   1.381   .     S
C1503  C1603   1.385   .     S
C1504  C1506   1.416   .     A
C1504  O1557   1.377   .     S
C1504  C1600   1.374   .     S
C1505  O1558   1.383   .     S
C1505  C1699   1.385   1_455 S
H1507  O1566   0.989   .     S
H1508  C1593   1.109   .     S
H1509  N1544   1.031   .     S
H1513  O1555   0.991   .     S
H1514  O1556   0.992   .     S
H1515  O1557   0.992   .     S
H1516  O1558   0.991   .     S
H1517  N1545   1.024   .     S
H1518  O1550   0.990   .     S
H1522  N1546   1.031   .     S
H1526  N1547   1.031   .     S
H1529  O1551   0.992   .     S
H1531  N1548   1.032   .     S
H1535  O1552   0.992   .     S
H1536  O1553   0.992   .     S
H1537  O1554   0.989   .     S
H1538  N1543   1.031   .     S
N1541  Zn1567  2.024   .     S
N1542  Zn1568  2.024   .     S
O1549  Zn1567  2.003   .     S
O1559  Zn1568  2.003   .     S
O1560  Zn1567  1.995   .     S
O1561  Zn1568  1.995   .     S
O1562  Zn1567  2.014   .     S
O1563  Zn1568  2.014   .     S
O1564  Zn1567  2.009   .     S
O1565  Zn1568  2.009   .     S
C1569  C1570   1.443   .     S
C1569  O1659   1.296   .     A
C1569  O1647   1.293   .     A
C1570  C1603   1.402   .     A
C1570  C1600   1.406   .     A
C1571  N1643   1.424   .     S
C1571  N1640   1.378   .     A
C1572  N1644   1.422   .     S
C1572  N1639   1.373   .     A
C1572  C985    1.435   1_565 S
C1573  N1640   1.373   .     A
C1573  N1645   1.422   .     S
C1574  N1646   1.421   .     S
C1574  N1639   1.368   .     A
C1574  C983    1.428   1_565 S
C1575  O1663   1.289   .     A
C1575  O1660   1.286   .     A
C1575  C1581   1.424   .     S
C1576  O1662   1.292   .     A
C1576  O1661   1.284   .     A
C1576  C1579   1.425   .     S
C1577  C1588   1.403   .     A
C1577  C1579   1.401   .     A
C1577  O1664   1.385   .     S
C1578  C1589   1.404   .     A
C1578  O1648   1.384   .     S
C1578  C1581   1.399   .     A
C1579  C1582   1.387   .     A
C1580  O1658   1.297   .     A
C1580  C1604   1.444   .     S
C1580  O1657   1.292   .     A
C1581  C1583   1.386   .     A
C1582  C1584   1.402   .     A
C1582  O1649   1.380   .     S
C1583  O1650   1.379   .     S
C1583  C1585   1.402   .     A
C1584  C1590   1.414   .     A
C1584  C1586   1.423   .     A
C1585  C1592   1.411   .     A
C1585  C1587   1.421   .     A
C1586  C1588   1.426   .     A
C1586  C705    1.404   1_556 S
C1587  C1589   1.427   .     A
C1588  C1599   1.421   .     A
C1589  C1591   1.417   .     A
C1590  O1651   1.379   .     S
C1590  C709    1.388   1_556 S
C1591  N1641   1.426   .     S
C1592  O1652   1.383   .     S
C1593  N1641   1.447   .     S
C1593  H1637   1.112   .     S
C1593  H1638   1.110   .     S
C1594  N1642   1.448   .     S
C1594  H1610   1.112   .     S
C1594  H1608   1.109   .     S
C1594  H1609   1.110   .     S
C1595  N1643   1.453   .     S
C1595  H1618   1.103   .     S
C1595  H1619   1.108   .     S
C1595  H1617   1.111   .     S
C1596  H1622   1.109   .     S
C1596  H1623   1.110   .     S
C1596  N1644   1.447   .     S
C1596  H1621   1.108   .     S
C1597  H1628   1.111   .     S
C1597  H1625   1.109   .     S
C1597  N1645   1.450   .     S
C1597  H1626   1.106   .     S
C1598  H1632   1.111   .     S
C1598  H1631   1.100   .     S
C1598  H1630   1.108   .     S
C1598  N1646   1.443   .     S
C1599  N1642   1.426   .     S
C1599  C710    1.402   1_556 S
C1600  O1653   1.380   .     S
C1601  C1604   1.413   .     A
C1601  O1654   1.381   .     S
C1601  C1701   1.385   .     S
C1602  C1604   1.416   .     A
C1602  O1655   1.377   .     S
C1602  C1698   1.374   .     S
C1603  O1656   1.383   .     S
H1605  O1664   0.989   .     S
H1606  C1691   1.109   .     S
H1607  N1642   1.031   .     S
H1611  O1653   0.991   .     S
H1612  O1654   0.992   .     S
H1613  O1655   0.992   .     S
H1614  O1656   0.991   .     S
H1615  N1643   1.024   .     S
H1616  O1648   0.990   .     S
H1620  N1644   1.031   .     S
H1624  N1645   1.031   .     S
H1627  O1649   0.992   .     S
H1629  N1646   1.032   .     S
H1633  O1650   0.992   .     S
H1634  O1651   0.992   .     S
H1635  O1652   0.989   .     S
H1636  N1641   1.031   .     S
N1639  Zn1665  2.024   .     S
N1640  Zn1666  2.024   .     S
O1647  Zn1665  2.003   .     S
O1657  Zn1666  2.003   .     S
O1658  Zn1665  1.995   .     S
O1659  Zn1666  1.995   .     S
O1660  Zn1665  2.014   .     S
O1661  Zn1666  2.014   .     S
O1662  Zn1665  2.009   .     S
O1663  Zn1666  2.009   .     S
C1667  C1668   1.443   .     S
C1667  O1757   1.296   .     A
C1667  O1745   1.293   .     A
C1668  C1701   1.402   .     A
C1668  C1698   1.406   .     A
C1669  N1741   1.424   .     S
C1669  N1738   1.378   .     A
C1670  N1742   1.422   .     S
C1670  N1737   1.373   .     A
C1670  C1083   1.435   1_565 S
C1671  N1738   1.373   .     A
C1671  N1743   1.422   .     S
C1672  N1744   1.421   .     S
C1672  N1737   1.368   .     A
C1672  C1081   1.428   1_565 S
C1673  O1761   1.289   .     A
C1673  O1758   1.286   .     A
C1673  C1679   1.424   .     S
C1674  O1760   1.292   .     A
C1674  O1759   1.284   .     A
C1674  C1677   1.425   .     S
C1675  C1686   1.403   .     A
C1675  C1677   1.401   .     A
C1675  O1762   1.385   .     S
C1676  C1687   1.404   .     A
C1676  O1746   1.384   .     S
C1676  C1679   1.399   .     A
C1677  C1680   1.387   .     A
C1678  O1756   1.297   .     A
C1678  C1702   1.444   .     S
C1678  O1755   1.292   .     A
C1679  C1681   1.386   .     A
C1680  C1682   1.402   .     A
C1680  O1747   1.380   .     S
C1681  O1748   1.379   .     S
C1681  C1683   1.402   .     A
C1682  C1688   1.414   .     A
C1682  C1684   1.423   .     A
C1683  C1690   1.411   .     A
C1683  C1685   1.421   .     A
C1684  C1686   1.426   .     A
C1684  C803    1.404   1_556 S
C1685  C1687   1.427   .     A
C1686  C1697   1.421   .     A
C1687  C1689   1.417   .     A
C1688  O1749   1.379   .     S
C1688  C807    1.388   1_556 S
C1689  N1739   1.426   .     S
C1690  O1750   1.383   .     S
C1691  N1739   1.447   .     S
C1691  H1735   1.112   .     S
C1691  H1736   1.110   .     S
C1692  N1740   1.448   .     S
C1692  H1708   1.112   .     S
C1692  H1706   1.109   .     S
C1692  H1707   1.110   .     S
C1693  N1741   1.453   .     S
C1693  H1716   1.103   .     S
C1693  H1717   1.108   .     S
C1693  H1715   1.111   .     S
C1694  H1720   1.109   .     S
C1694  H1721   1.110   .     S
C1694  N1742   1.447   .     S
C1694  H1719   1.108   .     S
C1695  H1726   1.111   .     S
C1695  H1723   1.109   .     S
C1695  N1743   1.450   .     S
C1695  H1724   1.106   .     S
C1696  H1730   1.111   .     S
C1696  H1729   1.100   .     S
C1696  H1728   1.108   .     S
C1696  N1744   1.443   .     S
C1697  N1740   1.426   .     S
C1697  C808    1.402   1_556 S
C1698  O1751   1.380   .     S
C1699  C1702   1.413   .     A
C1699  O1752   1.381   .     S
C1699  C1505   1.385   1_655 S
C1700  C1702   1.416   .     A
C1700  O1753   1.377   .     S
C1700  C1502   1.374   1_655 S
C1701  O1754   1.383   .     S
H1703  O1762   0.989   .     S
H1704  C1495   1.109   1_655 S
H1705  N1740   1.031   .     S
H1709  O1751   0.991   .     S
H1710  O1752   0.992   .     S
H1711  O1753   0.992   .     S
H1712  O1754   0.991   .     S
H1713  N1741   1.024   .     S
H1714  O1746   0.990   .     S
H1718  N1742   1.031   .     S
H1722  N1743   1.031   .     S
H1725  O1747   0.992   .     S
H1727  N1744   1.032   .     S
H1731  O1748   0.992   .     S
H1732  O1749   0.992   .     S
H1733  O1750   0.989   .     S
H1734  N1739   1.031   .     S
N1737  Zn1763  2.024   .     S
N1738  Zn1764  2.024   .     S
O1745  Zn1763  2.003   .     S
O1755  Zn1764  2.003   .     S
O1756  Zn1763  1.995   .     S
O1757  Zn1764  1.995   .     S
O1758  Zn1763  2.014   .     S
O1759  Zn1764  2.014   .     S
O1760  Zn1763  2.009   .     S
O1761  Zn1764  2.009   .     S
