data_str_m2_o1_o16_pcu_sym.85
_audit_creation_date              2020-01-03
_audit_creation_method            'Materials Studio'
_symmetry_space_group_name_H-M    'P1'
_symmetry_Int_Tables_number       1
_symmetry_cell_setting            triclinic
loop_
_symmetry_equiv_pos_as_xyz
  x,y,z
_cell_length_a                    28.5419
_cell_length_b                    32.4047
_cell_length_c                    26.7168
_cell_angle_alpha                 90.4534
_cell_angle_beta                  72.8081
_cell_angle_gamma                 90.0952
loop_
_atom_site_label
_atom_site_type_symbol
_atom_site_fract_x
_atom_site_fract_y
_atom_site_fract_z
_atom_site_U_iso_or_equiv
_atom_site_adp_type
_atom_site_occupancy
O1     O     0.12708   0.22678   0.25001   0.00000  Uiso   1.00
O2     O     0.20627   0.22679   0.25001   0.00000  Uiso   1.00
C3     C     0.16664   0.24590   0.25016   0.00000  Uiso   1.00
O4     O     0.10775   0.16665   0.32549   0.00000  Uiso   1.00
O5     O     0.18694   0.16666   0.32549   0.00000  Uiso   1.00
C6     C     0.14052   0.16539   0.35019   0.00000  Uiso   1.00
Cu7    Cu    0.11978   0.16666   0.25000   0.00000  Uiso   1.00
Cu8    Cu    0.21355   0.16667   0.25000   0.00000  Uiso   1.00
O9     O     0.12706   0.10654   0.25000   0.00000  Uiso   1.00
O10    O     0.20625   0.10655   0.25000   0.00000  Uiso   1.00
O11    O     0.14640   0.16667   0.17451   0.00000  Uiso   1.00
O12    O     0.22559   0.16668   0.17451   0.00000  Uiso   1.00
C13    C     0.16694   0.08747   0.24885   0.00000  Uiso   1.00
C14    C     0.19275   0.16548   0.14986   0.00000  Uiso   1.00
C15    C     0.25635   0.11934   0.01802   0.00000  Uiso   1.00
H16    H     0.27566   0.12722   0.08918   0.00000  Uiso   1.00
H17    H     0.29039   0.10338   0.49978   0.00000  Uiso   1.00
C18    C     0.20687   0.15694   0.09352   0.00000  Uiso   1.00
C19    C     0.08055   0.18493   0.43384   0.00000  Uiso   1.00
C20    C     0.06401   0.18732   0.48836   0.00000  Uiso   1.00
C21    C     0.09304   0.17064   0.01785   0.00000  Uiso   1.00
C22    C     0.14122   0.15574   0.49142   0.00000  Uiso   1.00
C23    C     0.15390   0.14817   0.43694   0.00000  Uiso   1.00
C24    C     0.17743   0.14832   0.01723   0.00000  Uiso   1.00
C25    C     0.22060   0.12541   0.49176   0.00000  Uiso   1.00
C26    C     0.22740   0.11055   0.44021   0.00000  Uiso   1.00
C27    C     0.19475   0.12293   0.41328   0.00000  Uiso   1.00
C28    C     0.17326   0.16587   0.06651   0.00000  Uiso   1.00
C29    C     0.24899   0.13424   0.06884   0.00000  Uiso   1.00
C30    C     0.12450   0.16496   0.40781   0.00000  Uiso   1.00
H31    H     0.14391   0.18701   0.08475   0.00000  Uiso   1.00
H32    H     0.05864   0.19881   0.41151   0.00000  Uiso   1.00
H33    H     0.20048   0.11086   0.37408   0.00000  Uiso   1.00
C34    C     0.18738   0.31290   0.28323   0.00000  Uiso   1.00
C35    C     0.18851   0.02231   0.28075   0.00000  Uiso   1.00
H36    H     0.20392   0.03973   0.30693   0.00000  Uiso   1.00
C37    C     0.16739   0.04294   0.24722   0.00000  Uiso   1.00
C38    C     0.14603   0.02120   0.21375   0.00000  Uiso   1.00
C39    C     0.14622   0.31131   0.21424   0.00000  Uiso   1.00
C40    C     0.16659   0.29063   0.24942   0.00000  Uiso   1.00
C41    C     0.29951   0.19229   0.28282   0.00000  Uiso   1.00
H42    H     0.27359   0.21281   0.30911   0.00000  Uiso   1.00
C43    C     0.01580   0.19226   0.28283   0.00000  Uiso   1.00
H44    H     0.02730   0.21275   0.30911   0.00000  Uiso   1.00
N45    N     0.04931   0.16666   0.24999   0.00000  Uiso   1.00
C46    C     0.03377   0.14094   0.21738   0.00000  Uiso   1.00
H47    H     0.05970   0.12042   0.19127   0.00000  Uiso   1.00
C48    C     0.31750   0.14097   0.21732   0.00000  Uiso   1.00
H49    H     0.30602   0.12044   0.19105   0.00000  Uiso   1.00
N50    N     0.28402   0.16669   0.25000   0.00000  Uiso   1.00
N51    N     0.12775   0.04288   0.17667   0.00000  Uiso   1.00
O52    O     0.15646   0.06729   0.14265   0.00000  Uiso   1.00
O53    O     0.08190   0.03967   0.17828   0.00000  Uiso   1.00
C54    C     0.12893   0.28797   0.17507   0.00000  Uiso   1.00
O55    O     0.15811   0.26757   0.14121   0.00000  Uiso   1.00
O56    O     0.07927   0.28841   0.17784   0.00000  Uiso   1.00
H57    H     0.07201   0.27085   0.14945   0.00000  Uiso   1.00
C58    C     0.26835   0.08282   0.41224   0.00000  Uiso   1.00
O59    O     0.28080   0.05431   0.43522   0.00000  Uiso   1.00
O60    O     0.29122   0.08828   0.35865   0.00000  Uiso   1.00
H61    H     0.31808   0.06727   0.34362   0.00000  Uiso   1.00
N62    N     0.07008   0.16022   0.07179   0.00000  Uiso   1.00
O63    O     0.07278   0.12256   0.08728   0.00000  Uiso   1.00
O64    O     0.04859   0.18817   0.10604   0.00000  Uiso   1.00
N65    N     0.01742   0.20646   0.01298   0.00000  Uiso   1.00
O66    O     0.31504   0.20194   0.49237   0.00000  Uiso   1.00
O67    O     0.01436   0.23596   0.04708   0.00000  Uiso   1.00
N68    N     0.20557   0.29283   0.32162   0.00000  Uiso   1.00
O69    O     0.24321   0.30799   0.33352   0.00000  Uiso   1.00
O70    O     0.18031   0.26356   0.35045   0.00000  Uiso   1.00
O71    O     0.46042   0.22678   0.25001   0.00000  Uiso   1.00
O72    O     0.53961   0.22679   0.25001   0.00000  Uiso   1.00
C73    C     0.49997   0.24590   0.25016   0.00000  Uiso   1.00
O74    O     0.44108   0.16665   0.32549   0.00000  Uiso   1.00
O75    O     0.52027   0.16666   0.32549   0.00000  Uiso   1.00
C76    C     0.47385   0.16539   0.35019   0.00000  Uiso   1.00
Cu77   Cu    0.45311   0.16666   0.25000   0.00000  Uiso   1.00
Cu78   Cu    0.54689   0.16667   0.25000   0.00000  Uiso   1.00
O79    O     0.46039   0.10654   0.25000   0.00000  Uiso   1.00
O80    O     0.53958   0.10655   0.25000   0.00000  Uiso   1.00
O81    O     0.47973   0.16667   0.17451   0.00000  Uiso   1.00
O82    O     0.55892   0.16668   0.17451   0.00000  Uiso   1.00
C83    C     0.50027   0.08747   0.24885   0.00000  Uiso   1.00
C84    C     0.52609   0.16548   0.14986   0.00000  Uiso   1.00
C85    C     0.58969   0.11934   0.01802   0.00000  Uiso   1.00
H86    H     0.60900   0.12722   0.08918   0.00000  Uiso   1.00
H87    H     0.62372   0.10338   0.49978   0.00000  Uiso   1.00
C88    C     0.54020   0.15694   0.09352   0.00000  Uiso   1.00
C89    C     0.41389   0.18493   0.43384   0.00000  Uiso   1.00
C90    C     0.39734   0.18732   0.48836   0.00000  Uiso   1.00
C91    C     0.42638   0.17064   0.01785   0.00000  Uiso   1.00
C92    C     0.47456   0.15574   0.49142   0.00000  Uiso   1.00
C93    C     0.48723   0.14817   0.43694   0.00000  Uiso   1.00
C94    C     0.51076   0.14832   0.01723   0.00000  Uiso   1.00
C95    C     0.55393   0.12541   0.49176   0.00000  Uiso   1.00
C96    C     0.56073   0.11055   0.44021   0.00000  Uiso   1.00
C97    C     0.52809   0.12293   0.41328   0.00000  Uiso   1.00
C98    C     0.50659   0.16587   0.06651   0.00000  Uiso   1.00
C99    C     0.58232   0.13424   0.06884   0.00000  Uiso   1.00
C100   C     0.45784   0.16496   0.40781   0.00000  Uiso   1.00
H101   H     0.47725   0.18701   0.08475   0.00000  Uiso   1.00
H102   H     0.39198   0.19881   0.41151   0.00000  Uiso   1.00
H103   H     0.53381   0.11086   0.37408   0.00000  Uiso   1.00
C104   C     0.52071   0.31290   0.28323   0.00000  Uiso   1.00
C105   C     0.52184   0.02231   0.28075   0.00000  Uiso   1.00
H106   H     0.53725   0.03973   0.30693   0.00000  Uiso   1.00
C107   C     0.50072   0.04294   0.24722   0.00000  Uiso   1.00
C108   C     0.47936   0.02120   0.21375   0.00000  Uiso   1.00
C109   C     0.47955   0.31131   0.21424   0.00000  Uiso   1.00
C110   C     0.49993   0.29063   0.24942   0.00000  Uiso   1.00
C111   C     0.63284   0.19229   0.28282   0.00000  Uiso   1.00
H112   H     0.60693   0.21281   0.30911   0.00000  Uiso   1.00
C113   C     0.34913   0.19226   0.28283   0.00000  Uiso   1.00
H114   H     0.36063   0.21275   0.30911   0.00000  Uiso   1.00
N115   N     0.38265   0.16666   0.24999   0.00000  Uiso   1.00
C116   C     0.36710   0.14094   0.21738   0.00000  Uiso   1.00
H117   H     0.39303   0.12042   0.19127   0.00000  Uiso   1.00
C118   C     0.65083   0.14097   0.21732   0.00000  Uiso   1.00
H119   H     0.63936   0.12044   0.19105   0.00000  Uiso   1.00
N120   N     0.61735   0.16669   0.25000   0.00000  Uiso   1.00
N121   N     0.46108   0.04288   0.17667   0.00000  Uiso   1.00
O122   O     0.48980   0.06729   0.14265   0.00000  Uiso   1.00
O123   O     0.41523   0.03967   0.17828   0.00000  Uiso   1.00
C124   C     0.46227   0.28797   0.17507   0.00000  Uiso   1.00
O125   O     0.49144   0.26757   0.14121   0.00000  Uiso   1.00
O126   O     0.41261   0.28841   0.17784   0.00000  Uiso   1.00
H127   H     0.40535   0.27085   0.14945   0.00000  Uiso   1.00
C128   C     0.60168   0.08282   0.41224   0.00000  Uiso   1.00
O129   O     0.61414   0.05431   0.43522   0.00000  Uiso   1.00
O130   O     0.62456   0.08828   0.35865   0.00000  Uiso   1.00
H131   H     0.65142   0.06727   0.34362   0.00000  Uiso   1.00
N132   N     0.40342   0.16022   0.07179   0.00000  Uiso   1.00
O133   O     0.40611   0.12256   0.08728   0.00000  Uiso   1.00
O134   O     0.38192   0.18817   0.10604   0.00000  Uiso   1.00
N135   N     0.35075   0.20646   0.01298   0.00000  Uiso   1.00
O136   O     0.64838   0.20194   0.49237   0.00000  Uiso   1.00
O137   O     0.34769   0.23596   0.04708   0.00000  Uiso   1.00
N138   N     0.53891   0.29283   0.32162   0.00000  Uiso   1.00
O139   O     0.57654   0.30799   0.33352   0.00000  Uiso   1.00
O140   O     0.51365   0.26356   0.35045   0.00000  Uiso   1.00
O141   O     0.79375   0.22678   0.25001   0.00000  Uiso   1.00
O142   O     0.87294   0.22679   0.25001   0.00000  Uiso   1.00
C143   C     0.83330   0.24590   0.25016   0.00000  Uiso   1.00
O144   O     0.77441   0.16665   0.32549   0.00000  Uiso   1.00
O145   O     0.85360   0.16666   0.32549   0.00000  Uiso   1.00
C146   C     0.80718   0.16539   0.35019   0.00000  Uiso   1.00
Cu147  Cu    0.78645   0.16666   0.25000   0.00000  Uiso   1.00
Cu148  Cu    0.88022   0.16667   0.25000   0.00000  Uiso   1.00
O149   O     0.79373   0.10654   0.25000   0.00000  Uiso   1.00
O150   O     0.87292   0.10655   0.25000   0.00000  Uiso   1.00
O151   O     0.81306   0.16667   0.17451   0.00000  Uiso   1.00
O152   O     0.89225   0.16668   0.17451   0.00000  Uiso   1.00
C153   C     0.83361   0.08747   0.24885   0.00000  Uiso   1.00
C154   C     0.85942   0.16548   0.14986   0.00000  Uiso   1.00
C155   C     0.92302   0.11934   0.01802   0.00000  Uiso   1.00
H156   H     0.94233   0.12722   0.08918   0.00000  Uiso   1.00
H157   H     0.95705   0.10338   0.49978   0.00000  Uiso   1.00
C158   C     0.87353   0.15694   0.09352   0.00000  Uiso   1.00
C159   C     0.74722   0.18493   0.43384   0.00000  Uiso   1.00
C160   C     0.73067   0.18732   0.48836   0.00000  Uiso   1.00
C161   C     0.75971   0.17064   0.01785   0.00000  Uiso   1.00
C162   C     0.80789   0.15574   0.49142   0.00000  Uiso   1.00
C163   C     0.82057   0.14817   0.43694   0.00000  Uiso   1.00
C164   C     0.84410   0.14832   0.01723   0.00000  Uiso   1.00
C165   C     0.88726   0.12541   0.49176   0.00000  Uiso   1.00
C166   C     0.89406   0.11055   0.44021   0.00000  Uiso   1.00
C167   C     0.86142   0.12293   0.41328   0.00000  Uiso   1.00
C168   C     0.83993   0.16587   0.06651   0.00000  Uiso   1.00
C169   C     0.91565   0.13424   0.06884   0.00000  Uiso   1.00
C170   C     0.79117   0.16496   0.40781   0.00000  Uiso   1.00
H171   H     0.81058   0.18701   0.08475   0.00000  Uiso   1.00
H172   H     0.72531   0.19881   0.41151   0.00000  Uiso   1.00
H173   H     0.86714   0.11086   0.37408   0.00000  Uiso   1.00
C174   C     0.85404   0.31290   0.28323   0.00000  Uiso   1.00
C175   C     0.85517   0.02231   0.28075   0.00000  Uiso   1.00
H176   H     0.87059   0.03973   0.30693   0.00000  Uiso   1.00
C177   C     0.83406   0.04294   0.24722   0.00000  Uiso   1.00
C178   C     0.81269   0.02120   0.21375   0.00000  Uiso   1.00
C179   C     0.81289   0.31131   0.21424   0.00000  Uiso   1.00
C180   C     0.83326   0.29063   0.24942   0.00000  Uiso   1.00
C181   C     0.96618   0.19229   0.28282   0.00000  Uiso   1.00
H182   H     0.94026   0.21281   0.30911   0.00000  Uiso   1.00
C183   C     0.68246   0.19226   0.28283   0.00000  Uiso   1.00
H184   H     0.69397   0.21275   0.30911   0.00000  Uiso   1.00
N185   N     0.71598   0.16666   0.24999   0.00000  Uiso   1.00
C186   C     0.70043   0.14094   0.21738   0.00000  Uiso   1.00
H187   H     0.72637   0.12042   0.19127   0.00000  Uiso   1.00
C188   C     0.98417   0.14097   0.21732   0.00000  Uiso   1.00
H189   H     0.97269   0.12044   0.19105   0.00000  Uiso   1.00
N190   N     0.95069   0.16669   0.25000   0.00000  Uiso   1.00
N191   N     0.79441   0.04288   0.17667   0.00000  Uiso   1.00
O192   O     0.82313   0.06729   0.14265   0.00000  Uiso   1.00
O193   O     0.74857   0.03967   0.17828   0.00000  Uiso   1.00
C194   C     0.79560   0.28797   0.17507   0.00000  Uiso   1.00
O195   O     0.82478   0.26757   0.14121   0.00000  Uiso   1.00
O196   O     0.74594   0.28841   0.17784   0.00000  Uiso   1.00
H197   H     0.73868   0.27085   0.14945   0.00000  Uiso   1.00
C198   C     0.93501   0.08282   0.41224   0.00000  Uiso   1.00
O199   O     0.94747   0.05431   0.43522   0.00000  Uiso   1.00
O200   O     0.95789   0.08828   0.35865   0.00000  Uiso   1.00
H201   H     0.98475   0.06727   0.34362   0.00000  Uiso   1.00
N202   N     0.73675   0.16022   0.07179   0.00000  Uiso   1.00
O203   O     0.73944   0.12256   0.08728   0.00000  Uiso   1.00
O204   O     0.71526   0.18817   0.10604   0.00000  Uiso   1.00
N205   N     0.68409   0.20646   0.01298   0.00000  Uiso   1.00
O206   O     0.98171   0.20194   0.49237   0.00000  Uiso   1.00
O207   O     0.68102   0.23596   0.04708   0.00000  Uiso   1.00
N208   N     0.87224   0.29283   0.32162   0.00000  Uiso   1.00
O209   O     0.90987   0.30799   0.33352   0.00000  Uiso   1.00
O210   O     0.84698   0.26356   0.35045   0.00000  Uiso   1.00
O211   O     0.12708   0.56011   0.25001   0.00000  Uiso   1.00
O212   O     0.20627   0.56012   0.25001   0.00000  Uiso   1.00
C213   C     0.16664   0.57924   0.25016   0.00000  Uiso   1.00
O214   O     0.10775   0.49998   0.32549   0.00000  Uiso   1.00
O215   O     0.18694   0.49999   0.32549   0.00000  Uiso   1.00
C216   C     0.14052   0.49872   0.35019   0.00000  Uiso   1.00
Cu217  Cu    0.11978   0.49999   0.25000   0.00000  Uiso   1.00
Cu218  Cu    0.21355   0.50001   0.25000   0.00000  Uiso   1.00
O219   O     0.12706   0.43988   0.25000   0.00000  Uiso   1.00
O220   O     0.20625   0.43989   0.25000   0.00000  Uiso   1.00
O221   O     0.14640   0.50001   0.17451   0.00000  Uiso   1.00
O222   O     0.22559   0.50002   0.17451   0.00000  Uiso   1.00
C223   C     0.16694   0.42080   0.24885   0.00000  Uiso   1.00
C224   C     0.19275   0.49881   0.14986   0.00000  Uiso   1.00
C225   C     0.25635   0.45267   0.01802   0.00000  Uiso   1.00
H226   H     0.27566   0.46055   0.08918   0.00000  Uiso   1.00
H227   H     0.29039   0.43671   0.49978   0.00000  Uiso   1.00
C228   C     0.20687   0.49028   0.09352   0.00000  Uiso   1.00
C229   C     0.08055   0.51826   0.43384   0.00000  Uiso   1.00
C230   C     0.06401   0.52065   0.48836   0.00000  Uiso   1.00
C231   C     0.09304   0.50397   0.01785   0.00000  Uiso   1.00
C232   C     0.14122   0.48908   0.49142   0.00000  Uiso   1.00
C233   C     0.15390   0.48150   0.43694   0.00000  Uiso   1.00
C234   C     0.17743   0.48166   0.01723   0.00000  Uiso   1.00
C235   C     0.22060   0.45874   0.49176   0.00000  Uiso   1.00
C236   C     0.22740   0.44388   0.44021   0.00000  Uiso   1.00
C237   C     0.19475   0.45626   0.41328   0.00000  Uiso   1.00
C238   C     0.17326   0.49920   0.06651   0.00000  Uiso   1.00
C239   C     0.24899   0.46757   0.06884   0.00000  Uiso   1.00
C240   C     0.12450   0.49829   0.40781   0.00000  Uiso   1.00
H241   H     0.14391   0.52034   0.08475   0.00000  Uiso   1.00
H242   H     0.05864   0.53214   0.41151   0.00000  Uiso   1.00
H243   H     0.20048   0.44419   0.37408   0.00000  Uiso   1.00
C244   C     0.18738   0.64624   0.28323   0.00000  Uiso   1.00
C245   C     0.18851   0.35564   0.28075   0.00000  Uiso   1.00
H246   H     0.20392   0.37307   0.30693   0.00000  Uiso   1.00
C247   C     0.16739   0.37627   0.24722   0.00000  Uiso   1.00
C248   C     0.14603   0.35453   0.21375   0.00000  Uiso   1.00
C249   C     0.14622   0.64464   0.21424   0.00000  Uiso   1.00
C250   C     0.16659   0.62396   0.24942   0.00000  Uiso   1.00
C251   C     0.29951   0.52562   0.28282   0.00000  Uiso   1.00
H252   H     0.27359   0.54614   0.30911   0.00000  Uiso   1.00
C253   C     0.01580   0.52559   0.28283   0.00000  Uiso   1.00
H254   H     0.02730   0.54609   0.30911   0.00000  Uiso   1.00
N255   N     0.04931   0.49999   0.24999   0.00000  Uiso   1.00
C256   C     0.03377   0.47427   0.21738   0.00000  Uiso   1.00
H257   H     0.05970   0.45375   0.19127   0.00000  Uiso   1.00
C258   C     0.31750   0.47430   0.21732   0.00000  Uiso   1.00
H259   H     0.30602   0.45378   0.19105   0.00000  Uiso   1.00
N260   N     0.28402   0.50002   0.25000   0.00000  Uiso   1.00
N261   N     0.12775   0.37622   0.17667   0.00000  Uiso   1.00
O262   O     0.15646   0.40063   0.14265   0.00000  Uiso   1.00
O263   O     0.08190   0.37300   0.17828   0.00000  Uiso   1.00
C264   C     0.12893   0.62130   0.17507   0.00000  Uiso   1.00
O265   O     0.15811   0.60091   0.14121   0.00000  Uiso   1.00
O266   O     0.07927   0.62174   0.17784   0.00000  Uiso   1.00
H267   H     0.07201   0.60418   0.14945   0.00000  Uiso   1.00
C268   C     0.26835   0.41615   0.41224   0.00000  Uiso   1.00
O269   O     0.28080   0.38765   0.43522   0.00000  Uiso   1.00
O270   O     0.29122   0.42162   0.35865   0.00000  Uiso   1.00
H271   H     0.31808   0.40060   0.34362   0.00000  Uiso   1.00
N272   N     0.07008   0.49355   0.07179   0.00000  Uiso   1.00
O273   O     0.07278   0.45589   0.08728   0.00000  Uiso   1.00
O274   O     0.04859   0.52150   0.10604   0.00000  Uiso   1.00
N275   N     0.01742   0.53979   0.01298   0.00000  Uiso   1.00
O276   O     0.31504   0.53527   0.49237   0.00000  Uiso   1.00
O277   O     0.01436   0.56930   0.04708   0.00000  Uiso   1.00
N278   N     0.20557   0.62616   0.32162   0.00000  Uiso   1.00
O279   O     0.24321   0.64133   0.33352   0.00000  Uiso   1.00
O280   O     0.18031   0.59690   0.35045   0.00000  Uiso   1.00
O281   O     0.46042   0.56011   0.25001   0.00000  Uiso   1.00
O282   O     0.53961   0.56012   0.25001   0.00000  Uiso   1.00
C283   C     0.49997   0.57924   0.25016   0.00000  Uiso   1.00
O284   O     0.44108   0.49998   0.32549   0.00000  Uiso   1.00
O285   O     0.52027   0.49999   0.32549   0.00000  Uiso   1.00
C286   C     0.47385   0.49872   0.35019   0.00000  Uiso   1.00
Cu287  Cu    0.45311   0.49999   0.25000   0.00000  Uiso   1.00
Cu288  Cu    0.54689   0.50001   0.25000   0.00000  Uiso   1.00
O289   O     0.46039   0.43988   0.25000   0.00000  Uiso   1.00
O290   O     0.53958   0.43989   0.25000   0.00000  Uiso   1.00
O291   O     0.47973   0.50001   0.17451   0.00000  Uiso   1.00
O292   O     0.55892   0.50002   0.17451   0.00000  Uiso   1.00
C293   C     0.50027   0.42080   0.24885   0.00000  Uiso   1.00
C294   C     0.52609   0.49881   0.14986   0.00000  Uiso   1.00
C295   C     0.58969   0.45267   0.01802   0.00000  Uiso   1.00
H296   H     0.60900   0.46055   0.08918   0.00000  Uiso   1.00
H297   H     0.62372   0.43671   0.49978   0.00000  Uiso   1.00
C298   C     0.54020   0.49028   0.09352   0.00000  Uiso   1.00
C299   C     0.41389   0.51826   0.43384   0.00000  Uiso   1.00
C300   C     0.39734   0.52065   0.48836   0.00000  Uiso   1.00
C301   C     0.42638   0.50397   0.01785   0.00000  Uiso   1.00
C302   C     0.47456   0.48908   0.49142   0.00000  Uiso   1.00
C303   C     0.48723   0.48150   0.43694   0.00000  Uiso   1.00
C304   C     0.51076   0.48166   0.01723   0.00000  Uiso   1.00
C305   C     0.55393   0.45874   0.49176   0.00000  Uiso   1.00
C306   C     0.56073   0.44388   0.44021   0.00000  Uiso   1.00
C307   C     0.52809   0.45626   0.41328   0.00000  Uiso   1.00
C308   C     0.50659   0.49920   0.06651   0.00000  Uiso   1.00
C309   C     0.58232   0.46757   0.06884   0.00000  Uiso   1.00
C310   C     0.45784   0.49829   0.40781   0.00000  Uiso   1.00
H311   H     0.47725   0.52034   0.08475   0.00000  Uiso   1.00
H312   H     0.39198   0.53214   0.41151   0.00000  Uiso   1.00
H313   H     0.53381   0.44419   0.37408   0.00000  Uiso   1.00
C314   C     0.52071   0.64624   0.28323   0.00000  Uiso   1.00
C315   C     0.52184   0.35564   0.28075   0.00000  Uiso   1.00
H316   H     0.53725   0.37307   0.30693   0.00000  Uiso   1.00
C317   C     0.50072   0.37627   0.24722   0.00000  Uiso   1.00
C318   C     0.47936   0.35453   0.21375   0.00000  Uiso   1.00
C319   C     0.47955   0.64464   0.21424   0.00000  Uiso   1.00
C320   C     0.49993   0.62396   0.24942   0.00000  Uiso   1.00
C321   C     0.63284   0.52562   0.28282   0.00000  Uiso   1.00
H322   H     0.60693   0.54614   0.30911   0.00000  Uiso   1.00
C323   C     0.34913   0.52559   0.28283   0.00000  Uiso   1.00
H324   H     0.36063   0.54609   0.30911   0.00000  Uiso   1.00
N325   N     0.38265   0.49999   0.24999   0.00000  Uiso   1.00
C326   C     0.36710   0.47427   0.21738   0.00000  Uiso   1.00
H327   H     0.39303   0.45375   0.19127   0.00000  Uiso   1.00
C328   C     0.65083   0.47430   0.21732   0.00000  Uiso   1.00
H329   H     0.63936   0.45378   0.19105   0.00000  Uiso   1.00
N330   N     0.61735   0.50002   0.25000   0.00000  Uiso   1.00
N331   N     0.46108   0.37622   0.17667   0.00000  Uiso   1.00
O332   O     0.48980   0.40063   0.14265   0.00000  Uiso   1.00
O333   O     0.41523   0.37300   0.17828   0.00000  Uiso   1.00
C334   C     0.46227   0.62130   0.17507   0.00000  Uiso   1.00
O335   O     0.49144   0.60091   0.14121   0.00000  Uiso   1.00
O336   O     0.41261   0.62174   0.17784   0.00000  Uiso   1.00
H337   H     0.40535   0.60418   0.14945   0.00000  Uiso   1.00
C338   C     0.60168   0.41615   0.41224   0.00000  Uiso   1.00
O339   O     0.61414   0.38765   0.43522   0.00000  Uiso   1.00
O340   O     0.62456   0.42162   0.35865   0.00000  Uiso   1.00
H341   H     0.65142   0.40060   0.34362   0.00000  Uiso   1.00
N342   N     0.40342   0.49355   0.07179   0.00000  Uiso   1.00
O343   O     0.40611   0.45589   0.08728   0.00000  Uiso   1.00
O344   O     0.38192   0.52150   0.10604   0.00000  Uiso   1.00
N345   N     0.35075   0.53979   0.01298   0.00000  Uiso   1.00
O346   O     0.64838   0.53527   0.49237   0.00000  Uiso   1.00
O347   O     0.34769   0.56930   0.04708   0.00000  Uiso   1.00
N348   N     0.53891   0.62616   0.32162   0.00000  Uiso   1.00
O349   O     0.57654   0.64133   0.33352   0.00000  Uiso   1.00
O350   O     0.51365   0.59690   0.35045   0.00000  Uiso   1.00
O351   O     0.79375   0.56011   0.25001   0.00000  Uiso   1.00
O352   O     0.87294   0.56012   0.25001   0.00000  Uiso   1.00
C353   C     0.83330   0.57924   0.25016   0.00000  Uiso   1.00
O354   O     0.77441   0.49998   0.32549   0.00000  Uiso   1.00
O355   O     0.85360   0.49999   0.32549   0.00000  Uiso   1.00
C356   C     0.80718   0.49872   0.35019   0.00000  Uiso   1.00
Cu357  Cu    0.78645   0.49999   0.25000   0.00000  Uiso   1.00
Cu358  Cu    0.88022   0.50001   0.25000   0.00000  Uiso   1.00
O359   O     0.79373   0.43988   0.25000   0.00000  Uiso   1.00
O360   O     0.87292   0.43989   0.25000   0.00000  Uiso   1.00
O361   O     0.81306   0.50001   0.17451   0.00000  Uiso   1.00
O362   O     0.89225   0.50002   0.17451   0.00000  Uiso   1.00
C363   C     0.83361   0.42080   0.24885   0.00000  Uiso   1.00
C364   C     0.85942   0.49881   0.14986   0.00000  Uiso   1.00
C365   C     0.92302   0.45267   0.01802   0.00000  Uiso   1.00
H366   H     0.94233   0.46055   0.08918   0.00000  Uiso   1.00
H367   H     0.95705   0.43671   0.49978   0.00000  Uiso   1.00
C368   C     0.87353   0.49028   0.09352   0.00000  Uiso   1.00
C369   C     0.74722   0.51826   0.43384   0.00000  Uiso   1.00
C370   C     0.73067   0.52065   0.48836   0.00000  Uiso   1.00
C371   C     0.75971   0.50397   0.01785   0.00000  Uiso   1.00
C372   C     0.80789   0.48908   0.49142   0.00000  Uiso   1.00
C373   C     0.82057   0.48150   0.43694   0.00000  Uiso   1.00
C374   C     0.84410   0.48166   0.01723   0.00000  Uiso   1.00
C375   C     0.88726   0.45874   0.49176   0.00000  Uiso   1.00
C376   C     0.89406   0.44388   0.44021   0.00000  Uiso   1.00
C377   C     0.86142   0.45626   0.41328   0.00000  Uiso   1.00
C378   C     0.83993   0.49920   0.06651   0.00000  Uiso   1.00
C379   C     0.91565   0.46757   0.06884   0.00000  Uiso   1.00
C380   C     0.79117   0.49829   0.40781   0.00000  Uiso   1.00
H381   H     0.81058   0.52034   0.08475   0.00000  Uiso   1.00
H382   H     0.72531   0.53214   0.41151   0.00000  Uiso   1.00
H383   H     0.86714   0.44419   0.37408   0.00000  Uiso   1.00
C384   C     0.85404   0.64624   0.28323   0.00000  Uiso   1.00
C385   C     0.85517   0.35564   0.28075   0.00000  Uiso   1.00
H386   H     0.87059   0.37307   0.30693   0.00000  Uiso   1.00
C387   C     0.83406   0.37627   0.24722   0.00000  Uiso   1.00
C388   C     0.81269   0.35453   0.21375   0.00000  Uiso   1.00
C389   C     0.81289   0.64464   0.21424   0.00000  Uiso   1.00
C390   C     0.83326   0.62396   0.24942   0.00000  Uiso   1.00
C391   C     0.96618   0.52562   0.28282   0.00000  Uiso   1.00
H392   H     0.94026   0.54614   0.30911   0.00000  Uiso   1.00
C393   C     0.68246   0.52559   0.28283   0.00000  Uiso   1.00
H394   H     0.69397   0.54609   0.30911   0.00000  Uiso   1.00
N395   N     0.71598   0.49999   0.24999   0.00000  Uiso   1.00
C396   C     0.70043   0.47427   0.21738   0.00000  Uiso   1.00
H397   H     0.72637   0.45375   0.19127   0.00000  Uiso   1.00
C398   C     0.98417   0.47430   0.21732   0.00000  Uiso   1.00
H399   H     0.97269   0.45378   0.19105   0.00000  Uiso   1.00
N400   N     0.95069   0.50002   0.25000   0.00000  Uiso   1.00
N401   N     0.79441   0.37622   0.17667   0.00000  Uiso   1.00
O402   O     0.82313   0.40063   0.14265   0.00000  Uiso   1.00
O403   O     0.74857   0.37300   0.17828   0.00000  Uiso   1.00
C404   C     0.79560   0.62130   0.17507   0.00000  Uiso   1.00
O405   O     0.82478   0.60091   0.14121   0.00000  Uiso   1.00
O406   O     0.74594   0.62174   0.17784   0.00000  Uiso   1.00
H407   H     0.73868   0.60418   0.14945   0.00000  Uiso   1.00
C408   C     0.93501   0.41615   0.41224   0.00000  Uiso   1.00
O409   O     0.94747   0.38765   0.43522   0.00000  Uiso   1.00
O410   O     0.95789   0.42162   0.35865   0.00000  Uiso   1.00
H411   H     0.98475   0.40060   0.34362   0.00000  Uiso   1.00
N412   N     0.73675   0.49355   0.07179   0.00000  Uiso   1.00
O413   O     0.73944   0.45589   0.08728   0.00000  Uiso   1.00
O414   O     0.71526   0.52150   0.10604   0.00000  Uiso   1.00
N415   N     0.68409   0.53979   0.01298   0.00000  Uiso   1.00
O416   O     0.98171   0.53527   0.49237   0.00000  Uiso   1.00
O417   O     0.68102   0.56930   0.04708   0.00000  Uiso   1.00
N418   N     0.87224   0.62616   0.32162   0.00000  Uiso   1.00
O419   O     0.90987   0.64133   0.33352   0.00000  Uiso   1.00
O420   O     0.84698   0.59690   0.35045   0.00000  Uiso   1.00
O421   O     0.12708   0.89345   0.25001   0.00000  Uiso   1.00
O422   O     0.20627   0.89346   0.25001   0.00000  Uiso   1.00
C423   C     0.16664   0.91257   0.25016   0.00000  Uiso   1.00
O424   O     0.10775   0.83332   0.32549   0.00000  Uiso   1.00
O425   O     0.18694   0.83333   0.32549   0.00000  Uiso   1.00
C426   C     0.14052   0.83206   0.35019   0.00000  Uiso   1.00
Cu427  Cu    0.11978   0.83333   0.25000   0.00000  Uiso   1.00
Cu428  Cu    0.21355   0.83334   0.25000   0.00000  Uiso   1.00
O429   O     0.12706   0.77321   0.25000   0.00000  Uiso   1.00
O430   O     0.20625   0.77322   0.25000   0.00000  Uiso   1.00
O431   O     0.14640   0.83334   0.17451   0.00000  Uiso   1.00
O432   O     0.22559   0.83335   0.17451   0.00000  Uiso   1.00
C433   C     0.16694   0.75414   0.24885   0.00000  Uiso   1.00
C434   C     0.19275   0.83215   0.14986   0.00000  Uiso   1.00
C435   C     0.25635   0.78601   0.01802   0.00000  Uiso   1.00
H436   H     0.27566   0.79388   0.08918   0.00000  Uiso   1.00
H437   H     0.29039   0.77005   0.49978   0.00000  Uiso   1.00
C438   C     0.20687   0.82361   0.09352   0.00000  Uiso   1.00
C439   C     0.08055   0.85160   0.43384   0.00000  Uiso   1.00
C440   C     0.06401   0.85398   0.48836   0.00000  Uiso   1.00
C441   C     0.09304   0.83730   0.01785   0.00000  Uiso   1.00
C442   C     0.14122   0.82241   0.49142   0.00000  Uiso   1.00
C443   C     0.15390   0.81483   0.43694   0.00000  Uiso   1.00
C444   C     0.17743   0.81499   0.01723   0.00000  Uiso   1.00
C445   C     0.22060   0.79207   0.49176   0.00000  Uiso   1.00
C446   C     0.22740   0.77721   0.44021   0.00000  Uiso   1.00
C447   C     0.19475   0.78959   0.41328   0.00000  Uiso   1.00
C448   C     0.17326   0.83253   0.06651   0.00000  Uiso   1.00
C449   C     0.24899   0.80090   0.06884   0.00000  Uiso   1.00
C450   C     0.12450   0.83163   0.40781   0.00000  Uiso   1.00
H451   H     0.14391   0.85368   0.08475   0.00000  Uiso   1.00
H452   H     0.05864   0.86548   0.41151   0.00000  Uiso   1.00
H453   H     0.20048   0.77753   0.37408   0.00000  Uiso   1.00
C454   C     0.18738   0.97957   0.28323   0.00000  Uiso   1.00
C455   C     0.18851   0.68897   0.28075   0.00000  Uiso   1.00
H456   H     0.20392   0.70640   0.30693   0.00000  Uiso   1.00
C457   C     0.16739   0.70961   0.24722   0.00000  Uiso   1.00
C458   C     0.14603   0.68787   0.21375   0.00000  Uiso   1.00
C459   C     0.14622   0.97798   0.21424   0.00000  Uiso   1.00
C460   C     0.16659   0.95729   0.24942   0.00000  Uiso   1.00
C461   C     0.29951   0.85895   0.28282   0.00000  Uiso   1.00
H462   H     0.27359   0.87947   0.30911   0.00000  Uiso   1.00
C463   C     0.01580   0.85892   0.28283   0.00000  Uiso   1.00
H464   H     0.02730   0.87942   0.30911   0.00000  Uiso   1.00
N465   N     0.04931   0.83332   0.24999   0.00000  Uiso   1.00
C466   C     0.03377   0.80761   0.21738   0.00000  Uiso   1.00
H467   H     0.05970   0.78708   0.19127   0.00000  Uiso   1.00
C468   C     0.31750   0.80764   0.21732   0.00000  Uiso   1.00
H469   H     0.30602   0.78711   0.19105   0.00000  Uiso   1.00
N470   N     0.28402   0.83335   0.25000   0.00000  Uiso   1.00
N471   N     0.12775   0.70955   0.17667   0.00000  Uiso   1.00
O472   O     0.15646   0.73396   0.14265   0.00000  Uiso   1.00
O473   O     0.08190   0.70633   0.17828   0.00000  Uiso   1.00
C474   C     0.12893   0.95464   0.17507   0.00000  Uiso   1.00
O475   O     0.15811   0.93424   0.14121   0.00000  Uiso   1.00
O476   O     0.07927   0.95508   0.17784   0.00000  Uiso   1.00
H477   H     0.07201   0.93751   0.14945   0.00000  Uiso   1.00
C478   C     0.26835   0.74948   0.41224   0.00000  Uiso   1.00
O479   O     0.28080   0.72098   0.43522   0.00000  Uiso   1.00
O480   O     0.29122   0.75495   0.35865   0.00000  Uiso   1.00
H481   H     0.31808   0.73394   0.34362   0.00000  Uiso   1.00
N482   N     0.07008   0.82688   0.07179   0.00000  Uiso   1.00
O483   O     0.07278   0.78922   0.08728   0.00000  Uiso   1.00
O484   O     0.04859   0.85484   0.10604   0.00000  Uiso   1.00
N485   N     0.01742   0.87313   0.01298   0.00000  Uiso   1.00
O486   O     0.31504   0.86861   0.49237   0.00000  Uiso   1.00
O487   O     0.01436   0.90263   0.04708   0.00000  Uiso   1.00
N488   N     0.20557   0.95950   0.32162   0.00000  Uiso   1.00
O489   O     0.24321   0.97466   0.33352   0.00000  Uiso   1.00
O490   O     0.18031   0.93023   0.35045   0.00000  Uiso   1.00
O491   O     0.46042   0.89345   0.25001   0.00000  Uiso   1.00
O492   O     0.53961   0.89346   0.25001   0.00000  Uiso   1.00
C493   C     0.49997   0.91257   0.25016   0.00000  Uiso   1.00
O494   O     0.44108   0.83332   0.32549   0.00000  Uiso   1.00
O495   O     0.52027   0.83333   0.32549   0.00000  Uiso   1.00
C496   C     0.47385   0.83206   0.35019   0.00000  Uiso   1.00
Cu497  Cu    0.45311   0.83333   0.25000   0.00000  Uiso   1.00
Cu498  Cu    0.54689   0.83334   0.25000   0.00000  Uiso   1.00
O499   O     0.46039   0.77321   0.25000   0.00000  Uiso   1.00
O500   O     0.53958   0.77322   0.25000   0.00000  Uiso   1.00
O501   O     0.47973   0.83334   0.17451   0.00000  Uiso   1.00
O502   O     0.55892   0.83335   0.17451   0.00000  Uiso   1.00
C503   C     0.50027   0.75414   0.24885   0.00000  Uiso   1.00
C504   C     0.52609   0.83215   0.14986   0.00000  Uiso   1.00
C505   C     0.58969   0.78601   0.01802   0.00000  Uiso   1.00
H506   H     0.60900   0.79388   0.08918   0.00000  Uiso   1.00
H507   H     0.62372   0.77005   0.49978   0.00000  Uiso   1.00
C508   C     0.54020   0.82361   0.09352   0.00000  Uiso   1.00
C509   C     0.41389   0.85160   0.43384   0.00000  Uiso   1.00
C510   C     0.39734   0.85398   0.48836   0.00000  Uiso   1.00
C511   C     0.42638   0.83730   0.01785   0.00000  Uiso   1.00
C512   C     0.47456   0.82241   0.49142   0.00000  Uiso   1.00
C513   C     0.48723   0.81483   0.43694   0.00000  Uiso   1.00
C514   C     0.51076   0.81499   0.01723   0.00000  Uiso   1.00
C515   C     0.55393   0.79207   0.49176   0.00000  Uiso   1.00
C516   C     0.56073   0.77721   0.44021   0.00000  Uiso   1.00
C517   C     0.52809   0.78959   0.41328   0.00000  Uiso   1.00
C518   C     0.50659   0.83253   0.06651   0.00000  Uiso   1.00
C519   C     0.58232   0.80090   0.06884   0.00000  Uiso   1.00
C520   C     0.45784   0.83163   0.40781   0.00000  Uiso   1.00
H521   H     0.47725   0.85368   0.08475   0.00000  Uiso   1.00
H522   H     0.39198   0.86548   0.41151   0.00000  Uiso   1.00
H523   H     0.53381   0.77753   0.37408   0.00000  Uiso   1.00
C524   C     0.52071   0.97957   0.28323   0.00000  Uiso   1.00
C525   C     0.52184   0.68897   0.28075   0.00000  Uiso   1.00
H526   H     0.53725   0.70640   0.30693   0.00000  Uiso   1.00
C527   C     0.50072   0.70961   0.24722   0.00000  Uiso   1.00
C528   C     0.47936   0.68787   0.21375   0.00000  Uiso   1.00
C529   C     0.47955   0.97798   0.21424   0.00000  Uiso   1.00
C530   C     0.49993   0.95729   0.24942   0.00000  Uiso   1.00
C531   C     0.63284   0.85895   0.28282   0.00000  Uiso   1.00
H532   H     0.60693   0.87947   0.30911   0.00000  Uiso   1.00
C533   C     0.34913   0.85892   0.28283   0.00000  Uiso   1.00
H534   H     0.36063   0.87942   0.30911   0.00000  Uiso   1.00
N535   N     0.38265   0.83332   0.24999   0.00000  Uiso   1.00
C536   C     0.36710   0.80761   0.21738   0.00000  Uiso   1.00
H537   H     0.39303   0.78708   0.19127   0.00000  Uiso   1.00
C538   C     0.65083   0.80764   0.21732   0.00000  Uiso   1.00
H539   H     0.63936   0.78711   0.19105   0.00000  Uiso   1.00
N540   N     0.61735   0.83335   0.25000   0.00000  Uiso   1.00
N541   N     0.46108   0.70955   0.17667   0.00000  Uiso   1.00
O542   O     0.48980   0.73396   0.14265   0.00000  Uiso   1.00
O543   O     0.41523   0.70633   0.17828   0.00000  Uiso   1.00
C544   C     0.46227   0.95464   0.17507   0.00000  Uiso   1.00
O545   O     0.49144   0.93424   0.14121   0.00000  Uiso   1.00
O546   O     0.41261   0.95508   0.17784   0.00000  Uiso   1.00
H547   H     0.40535   0.93751   0.14945   0.00000  Uiso   1.00
C548   C     0.60168   0.74948   0.41224   0.00000  Uiso   1.00
O549   O     0.61414   0.72098   0.43522   0.00000  Uiso   1.00
O550   O     0.62456   0.75495   0.35865   0.00000  Uiso   1.00
H551   H     0.65142   0.73394   0.34362   0.00000  Uiso   1.00
N552   N     0.40342   0.82688   0.07179   0.00000  Uiso   1.00
O553   O     0.40611   0.78922   0.08728   0.00000  Uiso   1.00
O554   O     0.38192   0.85484   0.10604   0.00000  Uiso   1.00
N555   N     0.35075   0.87313   0.01298   0.00000  Uiso   1.00
O556   O     0.64838   0.86861   0.49237   0.00000  Uiso   1.00
O557   O     0.34769   0.90263   0.04708   0.00000  Uiso   1.00
N558   N     0.53891   0.95950   0.32162   0.00000  Uiso   1.00
O559   O     0.57654   0.97466   0.33352   0.00000  Uiso   1.00
O560   O     0.51365   0.93023   0.35045   0.00000  Uiso   1.00
O561   O     0.79375   0.89345   0.25001   0.00000  Uiso   1.00
O562   O     0.87294   0.89346   0.25001   0.00000  Uiso   1.00
C563   C     0.83330   0.91257   0.25016   0.00000  Uiso   1.00
O564   O     0.77441   0.83332   0.32549   0.00000  Uiso   1.00
O565   O     0.85360   0.83333   0.32549   0.00000  Uiso   1.00
C566   C     0.80718   0.83206   0.35019   0.00000  Uiso   1.00
Cu567  Cu    0.78645   0.83333   0.25000   0.00000  Uiso   1.00
Cu568  Cu    0.88022   0.83334   0.25000   0.00000  Uiso   1.00
O569   O     0.79373   0.77321   0.25000   0.00000  Uiso   1.00
O570   O     0.87292   0.77322   0.25000   0.00000  Uiso   1.00
O571   O     0.81306   0.83334   0.17451   0.00000  Uiso   1.00
O572   O     0.89225   0.83335   0.17451   0.00000  Uiso   1.00
C573   C     0.83361   0.75414   0.24885   0.00000  Uiso   1.00
C574   C     0.85942   0.83215   0.14986   0.00000  Uiso   1.00
C575   C     0.92302   0.78601   0.01802   0.00000  Uiso   1.00
H576   H     0.94233   0.79388   0.08918   0.00000  Uiso   1.00
H577   H     0.95705   0.77005   0.49978   0.00000  Uiso   1.00
C578   C     0.87353   0.82361   0.09352   0.00000  Uiso   1.00
C579   C     0.74722   0.85160   0.43384   0.00000  Uiso   1.00
C580   C     0.73067   0.85398   0.48836   0.00000  Uiso   1.00
C581   C     0.75971   0.83730   0.01785   0.00000  Uiso   1.00
C582   C     0.80789   0.82241   0.49142   0.00000  Uiso   1.00
C583   C     0.82057   0.81483   0.43694   0.00000  Uiso   1.00
C584   C     0.84410   0.81499   0.01723   0.00000  Uiso   1.00
C585   C     0.88726   0.79207   0.49176   0.00000  Uiso   1.00
C586   C     0.89406   0.77721   0.44021   0.00000  Uiso   1.00
C587   C     0.86142   0.78959   0.41328   0.00000  Uiso   1.00
C588   C     0.83993   0.83253   0.06651   0.00000  Uiso   1.00
C589   C     0.91565   0.80090   0.06884   0.00000  Uiso   1.00
C590   C     0.79117   0.83163   0.40781   0.00000  Uiso   1.00
H591   H     0.81058   0.85368   0.08475   0.00000  Uiso   1.00
H592   H     0.72531   0.86548   0.41151   0.00000  Uiso   1.00
H593   H     0.86714   0.77753   0.37408   0.00000  Uiso   1.00
C594   C     0.85404   0.97957   0.28323   0.00000  Uiso   1.00
C595   C     0.85517   0.68897   0.28075   0.00000  Uiso   1.00
H596   H     0.87059   0.70640   0.30693   0.00000  Uiso   1.00
C597   C     0.83406   0.70961   0.24722   0.00000  Uiso   1.00
C598   C     0.81269   0.68787   0.21375   0.00000  Uiso   1.00
C599   C     0.81289   0.97798   0.21424   0.00000  Uiso   1.00
C600   C     0.83326   0.95729   0.24942   0.00000  Uiso   1.00
C601   C     0.96618   0.85895   0.28282   0.00000  Uiso   1.00
H602   H     0.94026   0.87947   0.30911   0.00000  Uiso   1.00
C603   C     0.68246   0.85892   0.28283   0.00000  Uiso   1.00
H604   H     0.69397   0.87942   0.30911   0.00000  Uiso   1.00
N605   N     0.71598   0.83332   0.24999   0.00000  Uiso   1.00
C606   C     0.70043   0.80761   0.21738   0.00000  Uiso   1.00
H607   H     0.72637   0.78708   0.19127   0.00000  Uiso   1.00
C608   C     0.98417   0.80764   0.21732   0.00000  Uiso   1.00
H609   H     0.97269   0.78711   0.19105   0.00000  Uiso   1.00
N610   N     0.95069   0.83335   0.25000   0.00000  Uiso   1.00
N611   N     0.79441   0.70955   0.17667   0.00000  Uiso   1.00
O612   O     0.82313   0.73396   0.14265   0.00000  Uiso   1.00
O613   O     0.74857   0.70633   0.17828   0.00000  Uiso   1.00
C614   C     0.79560   0.95464   0.17507   0.00000  Uiso   1.00
O615   O     0.82478   0.93424   0.14121   0.00000  Uiso   1.00
O616   O     0.74594   0.95508   0.17784   0.00000  Uiso   1.00
H617   H     0.73868   0.93751   0.14945   0.00000  Uiso   1.00
C618   C     0.93501   0.74948   0.41224   0.00000  Uiso   1.00
O619   O     0.94747   0.72098   0.43522   0.00000  Uiso   1.00
O620   O     0.95789   0.75495   0.35865   0.00000  Uiso   1.00
H621   H     0.98475   0.73394   0.34362   0.00000  Uiso   1.00
N622   N     0.73675   0.82688   0.07179   0.00000  Uiso   1.00
O623   O     0.73944   0.78922   0.08728   0.00000  Uiso   1.00
O624   O     0.71526   0.85484   0.10604   0.00000  Uiso   1.00
N625   N     0.68409   0.87313   0.01298   0.00000  Uiso   1.00
O626   O     0.98171   0.86861   0.49237   0.00000  Uiso   1.00
O627   O     0.68102   0.90263   0.04708   0.00000  Uiso   1.00
N628   N     0.87224   0.95950   0.32162   0.00000  Uiso   1.00
O629   O     0.90987   0.97466   0.33352   0.00000  Uiso   1.00
O630   O     0.84698   0.93023   0.35045   0.00000  Uiso   1.00
O631   O     0.12708   0.22678   0.75001   0.00000  Uiso   1.00
O632   O     0.20627   0.22679   0.75001   0.00000  Uiso   1.00
C633   C     0.16664   0.24590   0.75016   0.00000  Uiso   1.00
O634   O     0.10775   0.16665   0.82549   0.00000  Uiso   1.00
O635   O     0.18694   0.16666   0.82549   0.00000  Uiso   1.00
C636   C     0.14052   0.16539   0.85019   0.00000  Uiso   1.00
Cu637  Cu    0.11978   0.16666   0.75000   0.00000  Uiso   1.00
Cu638  Cu    0.21355   0.16667   0.75000   0.00000  Uiso   1.00
O639   O     0.12706   0.10654   0.75000   0.00000  Uiso   1.00
O640   O     0.20625   0.10655   0.75000   0.00000  Uiso   1.00
O641   O     0.14640   0.16667   0.67451   0.00000  Uiso   1.00
O642   O     0.22559   0.16668   0.67451   0.00000  Uiso   1.00
C643   C     0.16694   0.08747   0.74885   0.00000  Uiso   1.00
C644   C     0.19275   0.16548   0.64986   0.00000  Uiso   1.00
C645   C     0.25635   0.11934   0.51802   0.00000  Uiso   1.00
H646   H     0.27566   0.12722   0.58918   0.00000  Uiso   1.00
H647   H     0.29039   0.10338   0.99978   0.00000  Uiso   1.00
C648   C     0.20687   0.15694   0.59352   0.00000  Uiso   1.00
C649   C     0.08055   0.18493   0.93384   0.00000  Uiso   1.00
C650   C     0.06401   0.18732   0.98836   0.00000  Uiso   1.00
C651   C     0.09304   0.17064   0.51785   0.00000  Uiso   1.00
C652   C     0.14122   0.15574   0.99142   0.00000  Uiso   1.00
C653   C     0.15390   0.14817   0.93694   0.00000  Uiso   1.00
C654   C     0.17743   0.14832   0.51723   0.00000  Uiso   1.00
C655   C     0.22060   0.12541   0.99176   0.00000  Uiso   1.00
C656   C     0.22740   0.11055   0.94021   0.00000  Uiso   1.00
C657   C     0.19475   0.12293   0.91328   0.00000  Uiso   1.00
C658   C     0.17326   0.16587   0.56651   0.00000  Uiso   1.00
C659   C     0.24899   0.13424   0.56884   0.00000  Uiso   1.00
C660   C     0.12450   0.16496   0.90781   0.00000  Uiso   1.00
H661   H     0.14391   0.18701   0.58475   0.00000  Uiso   1.00
H662   H     0.05864   0.19881   0.91151   0.00000  Uiso   1.00
H663   H     0.20048   0.11086   0.87408   0.00000  Uiso   1.00
C664   C     0.18738   0.31290   0.78323   0.00000  Uiso   1.00
C665   C     0.18851   0.02231   0.78075   0.00000  Uiso   1.00
H666   H     0.20392   0.03973   0.80693   0.00000  Uiso   1.00
C667   C     0.16739   0.04294   0.74722   0.00000  Uiso   1.00
C668   C     0.14603   0.02120   0.71375   0.00000  Uiso   1.00
C669   C     0.14622   0.31131   0.71424   0.00000  Uiso   1.00
C670   C     0.16659   0.29063   0.74942   0.00000  Uiso   1.00
C671   C     0.29951   0.19229   0.78282   0.00000  Uiso   1.00
H672   H     0.27359   0.21281   0.80911   0.00000  Uiso   1.00
C673   C     0.01580   0.19226   0.78283   0.00000  Uiso   1.00
H674   H     0.02730   0.21275   0.80911   0.00000  Uiso   1.00
N675   N     0.04931   0.16666   0.74999   0.00000  Uiso   1.00
C676   C     0.03377   0.14094   0.71738   0.00000  Uiso   1.00
H677   H     0.05970   0.12042   0.69127   0.00000  Uiso   1.00
C678   C     0.31750   0.14097   0.71732   0.00000  Uiso   1.00
H679   H     0.30602   0.12044   0.69105   0.00000  Uiso   1.00
N680   N     0.28402   0.16669   0.75000   0.00000  Uiso   1.00
N681   N     0.12775   0.04288   0.67667   0.00000  Uiso   1.00
O682   O     0.15646   0.06729   0.64265   0.00000  Uiso   1.00
O683   O     0.08190   0.03967   0.67828   0.00000  Uiso   1.00
C684   C     0.12893   0.28797   0.67507   0.00000  Uiso   1.00
O685   O     0.15811   0.26757   0.64121   0.00000  Uiso   1.00
O686   O     0.07927   0.28841   0.67784   0.00000  Uiso   1.00
H687   H     0.07201   0.27085   0.64945   0.00000  Uiso   1.00
C688   C     0.26835   0.08282   0.91224   0.00000  Uiso   1.00
O689   O     0.28080   0.05431   0.93522   0.00000  Uiso   1.00
O690   O     0.29122   0.08828   0.85865   0.00000  Uiso   1.00
H691   H     0.31808   0.06727   0.84362   0.00000  Uiso   1.00
N692   N     0.07008   0.16022   0.57179   0.00000  Uiso   1.00
O693   O     0.07278   0.12256   0.58728   0.00000  Uiso   1.00
O694   O     0.04859   0.18817   0.60604   0.00000  Uiso   1.00
N695   N     0.01742   0.20646   0.51298   0.00000  Uiso   1.00
O696   O     0.31504   0.20194   0.99237   0.00000  Uiso   1.00
O697   O     0.01436   0.23596   0.54708   0.00000  Uiso   1.00
N698   N     0.20557   0.29283   0.82162   0.00000  Uiso   1.00
O699   O     0.24321   0.30799   0.83352   0.00000  Uiso   1.00
O700   O     0.18031   0.26356   0.85045   0.00000  Uiso   1.00
O701   O     0.46042   0.22678   0.75001   0.00000  Uiso   1.00
O702   O     0.53961   0.22679   0.75001   0.00000  Uiso   1.00
C703   C     0.49997   0.24590   0.75016   0.00000  Uiso   1.00
O704   O     0.44108   0.16665   0.82549   0.00000  Uiso   1.00
O705   O     0.52027   0.16666   0.82549   0.00000  Uiso   1.00
C706   C     0.47385   0.16539   0.85019   0.00000  Uiso   1.00
Cu707  Cu    0.45311   0.16666   0.75000   0.00000  Uiso   1.00
Cu708  Cu    0.54689   0.16667   0.75000   0.00000  Uiso   1.00
O709   O     0.46039   0.10654   0.75000   0.00000  Uiso   1.00
O710   O     0.53958   0.10655   0.75000   0.00000  Uiso   1.00
O711   O     0.47973   0.16667   0.67451   0.00000  Uiso   1.00
O712   O     0.55892   0.16668   0.67451   0.00000  Uiso   1.00
C713   C     0.50027   0.08747   0.74885   0.00000  Uiso   1.00
C714   C     0.52609   0.16548   0.64986   0.00000  Uiso   1.00
C715   C     0.58969   0.11934   0.51802   0.00000  Uiso   1.00
H716   H     0.60900   0.12722   0.58918   0.00000  Uiso   1.00
H717   H     0.62372   0.10338   0.99978   0.00000  Uiso   1.00
C718   C     0.54020   0.15694   0.59352   0.00000  Uiso   1.00
C719   C     0.41389   0.18493   0.93384   0.00000  Uiso   1.00
C720   C     0.39734   0.18732   0.98836   0.00000  Uiso   1.00
C721   C     0.42638   0.17064   0.51785   0.00000  Uiso   1.00
C722   C     0.47456   0.15574   0.99142   0.00000  Uiso   1.00
C723   C     0.48723   0.14817   0.93694   0.00000  Uiso   1.00
C724   C     0.51076   0.14832   0.51723   0.00000  Uiso   1.00
C725   C     0.55393   0.12541   0.99176   0.00000  Uiso   1.00
C726   C     0.56073   0.11055   0.94021   0.00000  Uiso   1.00
C727   C     0.52809   0.12293   0.91328   0.00000  Uiso   1.00
C728   C     0.50659   0.16587   0.56651   0.00000  Uiso   1.00
C729   C     0.58232   0.13424   0.56884   0.00000  Uiso   1.00
C730   C     0.45784   0.16496   0.90781   0.00000  Uiso   1.00
H731   H     0.47725   0.18701   0.58475   0.00000  Uiso   1.00
H732   H     0.39198   0.19881   0.91151   0.00000  Uiso   1.00
H733   H     0.53381   0.11086   0.87408   0.00000  Uiso   1.00
C734   C     0.52071   0.31290   0.78323   0.00000  Uiso   1.00
C735   C     0.52184   0.02231   0.78075   0.00000  Uiso   1.00
H736   H     0.53725   0.03973   0.80693   0.00000  Uiso   1.00
C737   C     0.50072   0.04294   0.74722   0.00000  Uiso   1.00
C738   C     0.47936   0.02120   0.71375   0.00000  Uiso   1.00
C739   C     0.47955   0.31131   0.71424   0.00000  Uiso   1.00
C740   C     0.49993   0.29063   0.74942   0.00000  Uiso   1.00
C741   C     0.63284   0.19229   0.78282   0.00000  Uiso   1.00
H742   H     0.60693   0.21281   0.80911   0.00000  Uiso   1.00
C743   C     0.34913   0.19226   0.78283   0.00000  Uiso   1.00
H744   H     0.36063   0.21275   0.80911   0.00000  Uiso   1.00
N745   N     0.38265   0.16666   0.74999   0.00000  Uiso   1.00
C746   C     0.36710   0.14094   0.71738   0.00000  Uiso   1.00
H747   H     0.39303   0.12042   0.69127   0.00000  Uiso   1.00
C748   C     0.65083   0.14097   0.71732   0.00000  Uiso   1.00
H749   H     0.63936   0.12044   0.69105   0.00000  Uiso   1.00
N750   N     0.61735   0.16669   0.75000   0.00000  Uiso   1.00
N751   N     0.46108   0.04288   0.67667   0.00000  Uiso   1.00
O752   O     0.48980   0.06729   0.64265   0.00000  Uiso   1.00
O753   O     0.41523   0.03967   0.67828   0.00000  Uiso   1.00
C754   C     0.46227   0.28797   0.67507   0.00000  Uiso   1.00
O755   O     0.49144   0.26757   0.64121   0.00000  Uiso   1.00
O756   O     0.41261   0.28841   0.67784   0.00000  Uiso   1.00
H757   H     0.40535   0.27085   0.64945   0.00000  Uiso   1.00
C758   C     0.60168   0.08282   0.91224   0.00000  Uiso   1.00
O759   O     0.61414   0.05431   0.93522   0.00000  Uiso   1.00
O760   O     0.62456   0.08828   0.85865   0.00000  Uiso   1.00
H761   H     0.65142   0.06727   0.84362   0.00000  Uiso   1.00
N762   N     0.40342   0.16022   0.57179   0.00000  Uiso   1.00
O763   O     0.40611   0.12256   0.58728   0.00000  Uiso   1.00
O764   O     0.38192   0.18817   0.60604   0.00000  Uiso   1.00
N765   N     0.35075   0.20646   0.51298   0.00000  Uiso   1.00
O766   O     0.64838   0.20194   0.99237   0.00000  Uiso   1.00
O767   O     0.34769   0.23596   0.54708   0.00000  Uiso   1.00
N768   N     0.53891   0.29283   0.82162   0.00000  Uiso   1.00
O769   O     0.57654   0.30799   0.83352   0.00000  Uiso   1.00
O770   O     0.51365   0.26356   0.85045   0.00000  Uiso   1.00
O771   O     0.79375   0.22678   0.75001   0.00000  Uiso   1.00
O772   O     0.87294   0.22679   0.75001   0.00000  Uiso   1.00
C773   C     0.83330   0.24590   0.75016   0.00000  Uiso   1.00
O774   O     0.77441   0.16665   0.82549   0.00000  Uiso   1.00
O775   O     0.85360   0.16666   0.82549   0.00000  Uiso   1.00
C776   C     0.80718   0.16539   0.85019   0.00000  Uiso   1.00
Cu777  Cu    0.78645   0.16666   0.75000   0.00000  Uiso   1.00
Cu778  Cu    0.88022   0.16667   0.75000   0.00000  Uiso   1.00
O779   O     0.79373   0.10654   0.75000   0.00000  Uiso   1.00
O780   O     0.87292   0.10655   0.75000   0.00000  Uiso   1.00
O781   O     0.81306   0.16667   0.67451   0.00000  Uiso   1.00
O782   O     0.89225   0.16668   0.67451   0.00000  Uiso   1.00
C783   C     0.83361   0.08747   0.74885   0.00000  Uiso   1.00
C784   C     0.85942   0.16548   0.64986   0.00000  Uiso   1.00
C785   C     0.92302   0.11934   0.51802   0.00000  Uiso   1.00
H786   H     0.94233   0.12722   0.58918   0.00000  Uiso   1.00
H787   H     0.95705   0.10338   0.99978   0.00000  Uiso   1.00
C788   C     0.87353   0.15694   0.59352   0.00000  Uiso   1.00
C789   C     0.74722   0.18493   0.93384   0.00000  Uiso   1.00
C790   C     0.73067   0.18732   0.98836   0.00000  Uiso   1.00
C791   C     0.75971   0.17064   0.51785   0.00000  Uiso   1.00
C792   C     0.80789   0.15574   0.99142   0.00000  Uiso   1.00
C793   C     0.82057   0.14817   0.93694   0.00000  Uiso   1.00
C794   C     0.84410   0.14832   0.51723   0.00000  Uiso   1.00
C795   C     0.88726   0.12541   0.99176   0.00000  Uiso   1.00
C796   C     0.89406   0.11055   0.94021   0.00000  Uiso   1.00
C797   C     0.86142   0.12293   0.91328   0.00000  Uiso   1.00
C798   C     0.83993   0.16587   0.56651   0.00000  Uiso   1.00
C799   C     0.91565   0.13424   0.56884   0.00000  Uiso   1.00
C800   C     0.79117   0.16496   0.90781   0.00000  Uiso   1.00
H801   H     0.81058   0.18701   0.58475   0.00000  Uiso   1.00
H802   H     0.72531   0.19881   0.91151   0.00000  Uiso   1.00
H803   H     0.86714   0.11086   0.87408   0.00000  Uiso   1.00
C804   C     0.85404   0.31290   0.78323   0.00000  Uiso   1.00
C805   C     0.85517   0.02231   0.78075   0.00000  Uiso   1.00
H806   H     0.87059   0.03973   0.80693   0.00000  Uiso   1.00
C807   C     0.83406   0.04294   0.74722   0.00000  Uiso   1.00
C808   C     0.81269   0.02120   0.71375   0.00000  Uiso   1.00
C809   C     0.81289   0.31131   0.71424   0.00000  Uiso   1.00
C810   C     0.83326   0.29063   0.74942   0.00000  Uiso   1.00
C811   C     0.96618   0.19229   0.78282   0.00000  Uiso   1.00
H812   H     0.94026   0.21281   0.80911   0.00000  Uiso   1.00
C813   C     0.68246   0.19226   0.78283   0.00000  Uiso   1.00
H814   H     0.69397   0.21275   0.80911   0.00000  Uiso   1.00
N815   N     0.71598   0.16666   0.74999   0.00000  Uiso   1.00
C816   C     0.70043   0.14094   0.71738   0.00000  Uiso   1.00
H817   H     0.72637   0.12042   0.69127   0.00000  Uiso   1.00
C818   C     0.98417   0.14097   0.71732   0.00000  Uiso   1.00
H819   H     0.97269   0.12044   0.69105   0.00000  Uiso   1.00
N820   N     0.95069   0.16669   0.75000   0.00000  Uiso   1.00
N821   N     0.79441   0.04288   0.67667   0.00000  Uiso   1.00
O822   O     0.82313   0.06729   0.64265   0.00000  Uiso   1.00
O823   O     0.74857   0.03967   0.67828   0.00000  Uiso   1.00
C824   C     0.79560   0.28797   0.67507   0.00000  Uiso   1.00
O825   O     0.82478   0.26757   0.64121   0.00000  Uiso   1.00
O826   O     0.74594   0.28841   0.67784   0.00000  Uiso   1.00
H827   H     0.73868   0.27085   0.64945   0.00000  Uiso   1.00
C828   C     0.93501   0.08282   0.91224   0.00000  Uiso   1.00
O829   O     0.94747   0.05431   0.93522   0.00000  Uiso   1.00
O830   O     0.95789   0.08828   0.85865   0.00000  Uiso   1.00
H831   H     0.98475   0.06727   0.84362   0.00000  Uiso   1.00
N832   N     0.73675   0.16022   0.57179   0.00000  Uiso   1.00
O833   O     0.73944   0.12256   0.58728   0.00000  Uiso   1.00
O834   O     0.71526   0.18817   0.60604   0.00000  Uiso   1.00
N835   N     0.68409   0.20646   0.51298   0.00000  Uiso   1.00
O836   O     0.98171   0.20194   0.99237   0.00000  Uiso   1.00
O837   O     0.68102   0.23596   0.54708   0.00000  Uiso   1.00
N838   N     0.87224   0.29283   0.82162   0.00000  Uiso   1.00
O839   O     0.90987   0.30799   0.83352   0.00000  Uiso   1.00
O840   O     0.84698   0.26356   0.85045   0.00000  Uiso   1.00
O841   O     0.12708   0.56011   0.75001   0.00000  Uiso   1.00
O842   O     0.20627   0.56012   0.75001   0.00000  Uiso   1.00
C843   C     0.16664   0.57924   0.75016   0.00000  Uiso   1.00
O844   O     0.10775   0.49998   0.82549   0.00000  Uiso   1.00
O845   O     0.18694   0.49999   0.82549   0.00000  Uiso   1.00
C846   C     0.14052   0.49872   0.85019   0.00000  Uiso   1.00
Cu847  Cu    0.11978   0.49999   0.75000   0.00000  Uiso   1.00
Cu848  Cu    0.21355   0.50001   0.75000   0.00000  Uiso   1.00
O849   O     0.12706   0.43988   0.75000   0.00000  Uiso   1.00
O850   O     0.20625   0.43989   0.75000   0.00000  Uiso   1.00
O851   O     0.14640   0.50001   0.67451   0.00000  Uiso   1.00
O852   O     0.22559   0.50002   0.67451   0.00000  Uiso   1.00
C853   C     0.16694   0.42080   0.74885   0.00000  Uiso   1.00
C854   C     0.19275   0.49881   0.64986   0.00000  Uiso   1.00
C855   C     0.25635   0.45267   0.51802   0.00000  Uiso   1.00
H856   H     0.27566   0.46055   0.58918   0.00000  Uiso   1.00
H857   H     0.29039   0.43671   0.99978   0.00000  Uiso   1.00
C858   C     0.20687   0.49028   0.59352   0.00000  Uiso   1.00
C859   C     0.08055   0.51826   0.93384   0.00000  Uiso   1.00
C860   C     0.06401   0.52065   0.98836   0.00000  Uiso   1.00
C861   C     0.09304   0.50397   0.51785   0.00000  Uiso   1.00
C862   C     0.14122   0.48908   0.99142   0.00000  Uiso   1.00
C863   C     0.15390   0.48150   0.93694   0.00000  Uiso   1.00
C864   C     0.17743   0.48166   0.51723   0.00000  Uiso   1.00
C865   C     0.22060   0.45874   0.99176   0.00000  Uiso   1.00
C866   C     0.22740   0.44388   0.94021   0.00000  Uiso   1.00
C867   C     0.19475   0.45626   0.91328   0.00000  Uiso   1.00
C868   C     0.17326   0.49920   0.56651   0.00000  Uiso   1.00
C869   C     0.24899   0.46757   0.56884   0.00000  Uiso   1.00
C870   C     0.12450   0.49829   0.90781   0.00000  Uiso   1.00
H871   H     0.14391   0.52034   0.58475   0.00000  Uiso   1.00
H872   H     0.05864   0.53214   0.91151   0.00000  Uiso   1.00
H873   H     0.20048   0.44419   0.87408   0.00000  Uiso   1.00
C874   C     0.18738   0.64624   0.78323   0.00000  Uiso   1.00
C875   C     0.18851   0.35564   0.78075   0.00000  Uiso   1.00
H876   H     0.20392   0.37307   0.80693   0.00000  Uiso   1.00
C877   C     0.16739   0.37627   0.74722   0.00000  Uiso   1.00
C878   C     0.14603   0.35453   0.71375   0.00000  Uiso   1.00
C879   C     0.14622   0.64464   0.71424   0.00000  Uiso   1.00
C880   C     0.16659   0.62396   0.74942   0.00000  Uiso   1.00
C881   C     0.29951   0.52562   0.78282   0.00000  Uiso   1.00
H882   H     0.27359   0.54614   0.80911   0.00000  Uiso   1.00
C883   C     0.01580   0.52559   0.78283   0.00000  Uiso   1.00
H884   H     0.02730   0.54609   0.80911   0.00000  Uiso   1.00
N885   N     0.04931   0.49999   0.74999   0.00000  Uiso   1.00
C886   C     0.03377   0.47427   0.71738   0.00000  Uiso   1.00
H887   H     0.05970   0.45375   0.69127   0.00000  Uiso   1.00
C888   C     0.31750   0.47430   0.71732   0.00000  Uiso   1.00
H889   H     0.30602   0.45378   0.69105   0.00000  Uiso   1.00
N890   N     0.28402   0.50002   0.75000   0.00000  Uiso   1.00
N891   N     0.12775   0.37622   0.67667   0.00000  Uiso   1.00
O892   O     0.15646   0.40063   0.64265   0.00000  Uiso   1.00
O893   O     0.08190   0.37300   0.67828   0.00000  Uiso   1.00
C894   C     0.12893   0.62130   0.67507   0.00000  Uiso   1.00
O895   O     0.15811   0.60091   0.64121   0.00000  Uiso   1.00
O896   O     0.07927   0.62174   0.67784   0.00000  Uiso   1.00
H897   H     0.07201   0.60418   0.64945   0.00000  Uiso   1.00
C898   C     0.26835   0.41615   0.91224   0.00000  Uiso   1.00
O899   O     0.28080   0.38765   0.93522   0.00000  Uiso   1.00
O900   O     0.29122   0.42162   0.85865   0.00000  Uiso   1.00
H901   H     0.31808   0.40060   0.84362   0.00000  Uiso   1.00
N902   N     0.07008   0.49355   0.57179   0.00000  Uiso   1.00
O903   O     0.07278   0.45589   0.58728   0.00000  Uiso   1.00
O904   O     0.04859   0.52150   0.60604   0.00000  Uiso   1.00
N905   N     0.01742   0.53979   0.51298   0.00000  Uiso   1.00
O906   O     0.31504   0.53527   0.99237   0.00000  Uiso   1.00
O907   O     0.01436   0.56930   0.54708   0.00000  Uiso   1.00
N908   N     0.20557   0.62616   0.82162   0.00000  Uiso   1.00
O909   O     0.24321   0.64133   0.83352   0.00000  Uiso   1.00
O910   O     0.18031   0.59690   0.85045   0.00000  Uiso   1.00
O911   O     0.46042   0.56011   0.75001   0.00000  Uiso   1.00
O912   O     0.53961   0.56012   0.75001   0.00000  Uiso   1.00
C913   C     0.49997   0.57924   0.75016   0.00000  Uiso   1.00
O914   O     0.44108   0.49998   0.82549   0.00000  Uiso   1.00
O915   O     0.52027   0.49999   0.82549   0.00000  Uiso   1.00
C916   C     0.47385   0.49872   0.85019   0.00000  Uiso   1.00
Cu917  Cu    0.45311   0.49999   0.75000   0.00000  Uiso   1.00
Cu918  Cu    0.54689   0.50001   0.75000   0.00000  Uiso   1.00
O919   O     0.46039   0.43988   0.75000   0.00000  Uiso   1.00
O920   O     0.53958   0.43989   0.75000   0.00000  Uiso   1.00
O921   O     0.47973   0.50001   0.67451   0.00000  Uiso   1.00
O922   O     0.55892   0.50002   0.67451   0.00000  Uiso   1.00
C923   C     0.50027   0.42080   0.74885   0.00000  Uiso   1.00
C924   C     0.52609   0.49881   0.64986   0.00000  Uiso   1.00
C925   C     0.58969   0.45267   0.51802   0.00000  Uiso   1.00
H926   H     0.60900   0.46055   0.58918   0.00000  Uiso   1.00
H927   H     0.62372   0.43671   0.99978   0.00000  Uiso   1.00
C928   C     0.54020   0.49028   0.59352   0.00000  Uiso   1.00
C929   C     0.41389   0.51826   0.93384   0.00000  Uiso   1.00
C930   C     0.39734   0.52065   0.98836   0.00000  Uiso   1.00
C931   C     0.42638   0.50397   0.51785   0.00000  Uiso   1.00
C932   C     0.47456   0.48908   0.99142   0.00000  Uiso   1.00
C933   C     0.48723   0.48150   0.93694   0.00000  Uiso   1.00
C934   C     0.51076   0.48166   0.51723   0.00000  Uiso   1.00
C935   C     0.55393   0.45874   0.99176   0.00000  Uiso   1.00
C936   C     0.56073   0.44388   0.94021   0.00000  Uiso   1.00
C937   C     0.52809   0.45626   0.91328   0.00000  Uiso   1.00
C938   C     0.50659   0.49920   0.56651   0.00000  Uiso   1.00
C939   C     0.58232   0.46757   0.56884   0.00000  Uiso   1.00
C940   C     0.45784   0.49829   0.90781   0.00000  Uiso   1.00
H941   H     0.47725   0.52034   0.58475   0.00000  Uiso   1.00
H942   H     0.39198   0.53214   0.91151   0.00000  Uiso   1.00
H943   H     0.53381   0.44419   0.87408   0.00000  Uiso   1.00
C944   C     0.52071   0.64624   0.78323   0.00000  Uiso   1.00
C945   C     0.52184   0.35564   0.78075   0.00000  Uiso   1.00
H946   H     0.53725   0.37307   0.80693   0.00000  Uiso   1.00
C947   C     0.50072   0.37627   0.74722   0.00000  Uiso   1.00
C948   C     0.47936   0.35453   0.71375   0.00000  Uiso   1.00
C949   C     0.47955   0.64464   0.71424   0.00000  Uiso   1.00
C950   C     0.49993   0.62396   0.74942   0.00000  Uiso   1.00
C951   C     0.63284   0.52562   0.78282   0.00000  Uiso   1.00
H952   H     0.60693   0.54614   0.80911   0.00000  Uiso   1.00
C953   C     0.34913   0.52559   0.78283   0.00000  Uiso   1.00
H954   H     0.36063   0.54609   0.80911   0.00000  Uiso   1.00
N955   N     0.38265   0.49999   0.74999   0.00000  Uiso   1.00
C956   C     0.36710   0.47427   0.71738   0.00000  Uiso   1.00
H957   H     0.39303   0.45375   0.69127   0.00000  Uiso   1.00
C958   C     0.65083   0.47430   0.71732   0.00000  Uiso   1.00
H959   H     0.63936   0.45378   0.69105   0.00000  Uiso   1.00
N960   N     0.61735   0.50002   0.75000   0.00000  Uiso   1.00
N961   N     0.46108   0.37622   0.67667   0.00000  Uiso   1.00
O962   O     0.48980   0.40063   0.64265   0.00000  Uiso   1.00
O963   O     0.41523   0.37300   0.67828   0.00000  Uiso   1.00
C964   C     0.46227   0.62130   0.67507   0.00000  Uiso   1.00
O965   O     0.49144   0.60091   0.64121   0.00000  Uiso   1.00
O966   O     0.41261   0.62174   0.67784   0.00000  Uiso   1.00
H967   H     0.40535   0.60418   0.64945   0.00000  Uiso   1.00
C968   C     0.60168   0.41615   0.91224   0.00000  Uiso   1.00
O969   O     0.61414   0.38765   0.93522   0.00000  Uiso   1.00
O970   O     0.62456   0.42162   0.85865   0.00000  Uiso   1.00
H971   H     0.65142   0.40060   0.84362   0.00000  Uiso   1.00
N972   N     0.40342   0.49355   0.57179   0.00000  Uiso   1.00
O973   O     0.40611   0.45589   0.58728   0.00000  Uiso   1.00
O974   O     0.38192   0.52150   0.60604   0.00000  Uiso   1.00
N975   N     0.35075   0.53979   0.51298   0.00000  Uiso   1.00
O976   O     0.64838   0.53527   0.99237   0.00000  Uiso   1.00
O977   O     0.34769   0.56930   0.54708   0.00000  Uiso   1.00
N978   N     0.53891   0.62616   0.82162   0.00000  Uiso   1.00
O979   O     0.57654   0.64133   0.83352   0.00000  Uiso   1.00
O980   O     0.51365   0.59690   0.85045   0.00000  Uiso   1.00
O981   O     0.79375   0.56011   0.75001   0.00000  Uiso   1.00
O982   O     0.87294   0.56012   0.75001   0.00000  Uiso   1.00
C983   C     0.83330   0.57924   0.75016   0.00000  Uiso   1.00
O984   O     0.77441   0.49998   0.82549   0.00000  Uiso   1.00
O985   O     0.85360   0.49999   0.82549   0.00000  Uiso   1.00
C986   C     0.80718   0.49872   0.85019   0.00000  Uiso   1.00
Cu987  Cu    0.78645   0.49999   0.75000   0.00000  Uiso   1.00
Cu988  Cu    0.88022   0.50001   0.75000   0.00000  Uiso   1.00
O989   O     0.79373   0.43988   0.75000   0.00000  Uiso   1.00
O990   O     0.87292   0.43989   0.75000   0.00000  Uiso   1.00
O991   O     0.81306   0.50001   0.67451   0.00000  Uiso   1.00
O992   O     0.89225   0.50002   0.67451   0.00000  Uiso   1.00
C993   C     0.83361   0.42080   0.74885   0.00000  Uiso   1.00
C994   C     0.85942   0.49881   0.64986   0.00000  Uiso   1.00
C995   C     0.92302   0.45267   0.51802   0.00000  Uiso   1.00
H996   H     0.94233   0.46055   0.58918   0.00000  Uiso   1.00
H997   H     0.95705   0.43671   0.99978   0.00000  Uiso   1.00
C998   C     0.87353   0.49028   0.59352   0.00000  Uiso   1.00
C999   C     0.74722   0.51826   0.93384   0.00000  Uiso   1.00
C1000  C     0.73067   0.52065   0.98836   0.00000  Uiso   1.00
C1001  C     0.75971   0.50397   0.51785   0.00000  Uiso   1.00
C1002  C     0.80789   0.48908   0.99142   0.00000  Uiso   1.00
C1003  C     0.82057   0.48150   0.93694   0.00000  Uiso   1.00
C1004  C     0.84410   0.48166   0.51723   0.00000  Uiso   1.00
C1005  C     0.88726   0.45874   0.99176   0.00000  Uiso   1.00
C1006  C     0.89406   0.44388   0.94021   0.00000  Uiso   1.00
C1007  C     0.86142   0.45626   0.91328   0.00000  Uiso   1.00
C1008  C     0.83993   0.49920   0.56651   0.00000  Uiso   1.00
C1009  C     0.91565   0.46757   0.56884   0.00000  Uiso   1.00
C1010  C     0.79117   0.49829   0.90781   0.00000  Uiso   1.00
H1011  H     0.81058   0.52034   0.58475   0.00000  Uiso   1.00
H1012  H     0.72531   0.53214   0.91151   0.00000  Uiso   1.00
H1013  H     0.86714   0.44419   0.87408   0.00000  Uiso   1.00
C1014  C     0.85404   0.64624   0.78323   0.00000  Uiso   1.00
C1015  C     0.85517   0.35564   0.78075   0.00000  Uiso   1.00
H1016  H     0.87059   0.37307   0.80693   0.00000  Uiso   1.00
C1017  C     0.83406   0.37627   0.74722   0.00000  Uiso   1.00
C1018  C     0.81269   0.35453   0.71375   0.00000  Uiso   1.00
C1019  C     0.81289   0.64464   0.71424   0.00000  Uiso   1.00
C1020  C     0.83326   0.62396   0.74942   0.00000  Uiso   1.00
C1021  C     0.96618   0.52562   0.78282   0.00000  Uiso   1.00
H1022  H     0.94026   0.54614   0.80911   0.00000  Uiso   1.00
C1023  C     0.68246   0.52559   0.78283   0.00000  Uiso   1.00
H1024  H     0.69397   0.54609   0.80911   0.00000  Uiso   1.00
N1025  N     0.71598   0.49999   0.74999   0.00000  Uiso   1.00
C1026  C     0.70043   0.47427   0.71738   0.00000  Uiso   1.00
H1027  H     0.72637   0.45375   0.69127   0.00000  Uiso   1.00
C1028  C     0.98417   0.47430   0.71732   0.00000  Uiso   1.00
H1029  H     0.97269   0.45378   0.69105   0.00000  Uiso   1.00
N1030  N     0.95069   0.50002   0.75000   0.00000  Uiso   1.00
N1031  N     0.79441   0.37622   0.67667   0.00000  Uiso   1.00
O1032  O     0.82313   0.40063   0.64265   0.00000  Uiso   1.00
O1033  O     0.74857   0.37300   0.67828   0.00000  Uiso   1.00
C1034  C     0.79560   0.62130   0.67507   0.00000  Uiso   1.00
O1035  O     0.82478   0.60091   0.64121   0.00000  Uiso   1.00
O1036  O     0.74594   0.62174   0.67784   0.00000  Uiso   1.00
H1037  H     0.73868   0.60418   0.64945   0.00000  Uiso   1.00
C1038  C     0.93501   0.41615   0.91224   0.00000  Uiso   1.00
O1039  O     0.94747   0.38765   0.93522   0.00000  Uiso   1.00
O1040  O     0.95789   0.42162   0.85865   0.00000  Uiso   1.00
H1041  H     0.98475   0.40060   0.84362   0.00000  Uiso   1.00
N1042  N     0.73675   0.49355   0.57179   0.00000  Uiso   1.00
O1043  O     0.73944   0.45589   0.58728   0.00000  Uiso   1.00
O1044  O     0.71526   0.52150   0.60604   0.00000  Uiso   1.00
N1045  N     0.68409   0.53979   0.51298   0.00000  Uiso   1.00
O1046  O     0.98171   0.53527   0.99237   0.00000  Uiso   1.00
O1047  O     0.68102   0.56930   0.54708   0.00000  Uiso   1.00
N1048  N     0.87224   0.62616   0.82162   0.00000  Uiso   1.00
O1049  O     0.90987   0.64133   0.83352   0.00000  Uiso   1.00
O1050  O     0.84698   0.59690   0.85045   0.00000  Uiso   1.00
O1051  O     0.12708   0.89345   0.75001   0.00000  Uiso   1.00
O1052  O     0.20627   0.89346   0.75001   0.00000  Uiso   1.00
C1053  C     0.16664   0.91257   0.75016   0.00000  Uiso   1.00
O1054  O     0.10775   0.83332   0.82549   0.00000  Uiso   1.00
O1055  O     0.18694   0.83333   0.82549   0.00000  Uiso   1.00
C1056  C     0.14052   0.83206   0.85019   0.00000  Uiso   1.00
Cu1057 Cu    0.11978   0.83333   0.75000   0.00000  Uiso   1.00
Cu1058 Cu    0.21355   0.83334   0.75000   0.00000  Uiso   1.00
O1059  O     0.12706   0.77321   0.75000   0.00000  Uiso   1.00
O1060  O     0.20625   0.77322   0.75000   0.00000  Uiso   1.00
O1061  O     0.14640   0.83334   0.67451   0.00000  Uiso   1.00
O1062  O     0.22559   0.83335   0.67451   0.00000  Uiso   1.00
C1063  C     0.16694   0.75414   0.74885   0.00000  Uiso   1.00
C1064  C     0.19275   0.83215   0.64986   0.00000  Uiso   1.00
C1065  C     0.25635   0.78601   0.51802   0.00000  Uiso   1.00
H1066  H     0.27566   0.79388   0.58918   0.00000  Uiso   1.00
H1067  H     0.29039   0.77005   0.99978   0.00000  Uiso   1.00
C1068  C     0.20687   0.82361   0.59352   0.00000  Uiso   1.00
C1069  C     0.08055   0.85160   0.93384   0.00000  Uiso   1.00
C1070  C     0.06401   0.85398   0.98836   0.00000  Uiso   1.00
C1071  C     0.09304   0.83730   0.51785   0.00000  Uiso   1.00
C1072  C     0.14122   0.82241   0.99142   0.00000  Uiso   1.00
C1073  C     0.15390   0.81483   0.93694   0.00000  Uiso   1.00
C1074  C     0.17743   0.81499   0.51723   0.00000  Uiso   1.00
C1075  C     0.22060   0.79207   0.99176   0.00000  Uiso   1.00
C1076  C     0.22740   0.77721   0.94021   0.00000  Uiso   1.00
C1077  C     0.19475   0.78959   0.91328   0.00000  Uiso   1.00
C1078  C     0.17326   0.83253   0.56651   0.00000  Uiso   1.00
C1079  C     0.24899   0.80090   0.56884   0.00000  Uiso   1.00
C1080  C     0.12450   0.83163   0.90781   0.00000  Uiso   1.00
H1081  H     0.14391   0.85368   0.58475   0.00000  Uiso   1.00
H1082  H     0.05864   0.86548   0.91151   0.00000  Uiso   1.00
H1083  H     0.20048   0.77753   0.87408   0.00000  Uiso   1.00
C1084  C     0.18738   0.97957   0.78323   0.00000  Uiso   1.00
C1085  C     0.18851   0.68897   0.78075   0.00000  Uiso   1.00
H1086  H     0.20392   0.70640   0.80693   0.00000  Uiso   1.00
C1087  C     0.16739   0.70961   0.74722   0.00000  Uiso   1.00
C1088  C     0.14603   0.68787   0.71375   0.00000  Uiso   1.00
C1089  C     0.14622   0.97798   0.71424   0.00000  Uiso   1.00
C1090  C     0.16659   0.95729   0.74942   0.00000  Uiso   1.00
C1091  C     0.29951   0.85895   0.78282   0.00000  Uiso   1.00
H1092  H     0.27359   0.87947   0.80911   0.00000  Uiso   1.00
C1093  C     0.01580   0.85892   0.78283   0.00000  Uiso   1.00
H1094  H     0.02730   0.87942   0.80911   0.00000  Uiso   1.00
N1095  N     0.04931   0.83332   0.74999   0.00000  Uiso   1.00
C1096  C     0.03377   0.80761   0.71738   0.00000  Uiso   1.00
H1097  H     0.05970   0.78708   0.69127   0.00000  Uiso   1.00
C1098  C     0.31750   0.80764   0.71732   0.00000  Uiso   1.00
H1099  H     0.30602   0.78711   0.69105   0.00000  Uiso   1.00
N1100  N     0.28402   0.83335   0.75000   0.00000  Uiso   1.00
N1101  N     0.12775   0.70955   0.67667   0.00000  Uiso   1.00
O1102  O     0.15646   0.73396   0.64265   0.00000  Uiso   1.00
O1103  O     0.08190   0.70633   0.67828   0.00000  Uiso   1.00
C1104  C     0.12893   0.95464   0.67507   0.00000  Uiso   1.00
O1105  O     0.15811   0.93424   0.64121   0.00000  Uiso   1.00
O1106  O     0.07927   0.95508   0.67784   0.00000  Uiso   1.00
H1107  H     0.07201   0.93751   0.64945   0.00000  Uiso   1.00
C1108  C     0.26835   0.74948   0.91224   0.00000  Uiso   1.00
O1109  O     0.28080   0.72098   0.93522   0.00000  Uiso   1.00
O1110  O     0.29122   0.75495   0.85865   0.00000  Uiso   1.00
H1111  H     0.31808   0.73394   0.84362   0.00000  Uiso   1.00
N1112  N     0.07008   0.82688   0.57179   0.00000  Uiso   1.00
O1113  O     0.07278   0.78922   0.58728   0.00000  Uiso   1.00
O1114  O     0.04859   0.85484   0.60604   0.00000  Uiso   1.00
N1115  N     0.01742   0.87313   0.51298   0.00000  Uiso   1.00
O1116  O     0.31504   0.86861   0.99237   0.00000  Uiso   1.00
O1117  O     0.01436   0.90263   0.54708   0.00000  Uiso   1.00
N1118  N     0.20557   0.95950   0.82162   0.00000  Uiso   1.00
O1119  O     0.24321   0.97466   0.83352   0.00000  Uiso   1.00
O1120  O     0.18031   0.93023   0.85045   0.00000  Uiso   1.00
O1121  O     0.46042   0.89345   0.75001   0.00000  Uiso   1.00
O1122  O     0.53961   0.89346   0.75001   0.00000  Uiso   1.00
C1123  C     0.49997   0.91257   0.75016   0.00000  Uiso   1.00
O1124  O     0.44108   0.83332   0.82549   0.00000  Uiso   1.00
O1125  O     0.52027   0.83333   0.82549   0.00000  Uiso   1.00
C1126  C     0.47385   0.83206   0.85019   0.00000  Uiso   1.00
Cu1127 Cu    0.45311   0.83333   0.75000   0.00000  Uiso   1.00
Cu1128 Cu    0.54689   0.83334   0.75000   0.00000  Uiso   1.00
O1129  O     0.46039   0.77321   0.75000   0.00000  Uiso   1.00
O1130  O     0.53958   0.77322   0.75000   0.00000  Uiso   1.00
O1131  O     0.47973   0.83334   0.67451   0.00000  Uiso   1.00
O1132  O     0.55892   0.83335   0.67451   0.00000  Uiso   1.00
C1133  C     0.50027   0.75414   0.74885   0.00000  Uiso   1.00
C1134  C     0.52609   0.83215   0.64986   0.00000  Uiso   1.00
C1135  C     0.58969   0.78601   0.51802   0.00000  Uiso   1.00
H1136  H     0.60900   0.79388   0.58918   0.00000  Uiso   1.00
H1137  H     0.62372   0.77005   0.99978   0.00000  Uiso   1.00
C1138  C     0.54020   0.82361   0.59352   0.00000  Uiso   1.00
C1139  C     0.41389   0.85160   0.93384   0.00000  Uiso   1.00
C1140  C     0.39734   0.85398   0.98836   0.00000  Uiso   1.00
C1141  C     0.42638   0.83730   0.51785   0.00000  Uiso   1.00
C1142  C     0.47456   0.82241   0.99142   0.00000  Uiso   1.00
C1143  C     0.48723   0.81483   0.93694   0.00000  Uiso   1.00
C1144  C     0.51076   0.81499   0.51723   0.00000  Uiso   1.00
C1145  C     0.55393   0.79207   0.99176   0.00000  Uiso   1.00
C1146  C     0.56073   0.77721   0.94021   0.00000  Uiso   1.00
C1147  C     0.52809   0.78959   0.91328   0.00000  Uiso   1.00
C1148  C     0.50659   0.83253   0.56651   0.00000  Uiso   1.00
C1149  C     0.58232   0.80090   0.56884   0.00000  Uiso   1.00
C1150  C     0.45784   0.83163   0.90781   0.00000  Uiso   1.00
H1151  H     0.47725   0.85368   0.58475   0.00000  Uiso   1.00
H1152  H     0.39198   0.86548   0.91151   0.00000  Uiso   1.00
H1153  H     0.53381   0.77753   0.87408   0.00000  Uiso   1.00
C1154  C     0.52071   0.97957   0.78323   0.00000  Uiso   1.00
C1155  C     0.52184   0.68897   0.78075   0.00000  Uiso   1.00
H1156  H     0.53725   0.70640   0.80693   0.00000  Uiso   1.00
C1157  C     0.50072   0.70961   0.74722   0.00000  Uiso   1.00
C1158  C     0.47936   0.68787   0.71375   0.00000  Uiso   1.00
C1159  C     0.47955   0.97798   0.71424   0.00000  Uiso   1.00
C1160  C     0.49993   0.95729   0.74942   0.00000  Uiso   1.00
C1161  C     0.63284   0.85895   0.78282   0.00000  Uiso   1.00
H1162  H     0.60693   0.87947   0.80911   0.00000  Uiso   1.00
C1163  C     0.34913   0.85892   0.78283   0.00000  Uiso   1.00
H1164  H     0.36063   0.87942   0.80911   0.00000  Uiso   1.00
N1165  N     0.38265   0.83332   0.74999   0.00000  Uiso   1.00
C1166  C     0.36710   0.80761   0.71738   0.00000  Uiso   1.00
H1167  H     0.39303   0.78708   0.69127   0.00000  Uiso   1.00
C1168  C     0.65083   0.80764   0.71732   0.00000  Uiso   1.00
H1169  H     0.63936   0.78711   0.69105   0.00000  Uiso   1.00
N1170  N     0.61735   0.83335   0.75000   0.00000  Uiso   1.00
N1171  N     0.46108   0.70955   0.67667   0.00000  Uiso   1.00
O1172  O     0.48980   0.73396   0.64265   0.00000  Uiso   1.00
O1173  O     0.41523   0.70633   0.67828   0.00000  Uiso   1.00
C1174  C     0.46227   0.95464   0.67507   0.00000  Uiso   1.00
O1175  O     0.49144   0.93424   0.64121   0.00000  Uiso   1.00
O1176  O     0.41261   0.95508   0.67784   0.00000  Uiso   1.00
H1177  H     0.40535   0.93751   0.64945   0.00000  Uiso   1.00
C1178  C     0.60168   0.74948   0.91224   0.00000  Uiso   1.00
O1179  O     0.61414   0.72098   0.93522   0.00000  Uiso   1.00
O1180  O     0.62456   0.75495   0.85865   0.00000  Uiso   1.00
H1181  H     0.65142   0.73394   0.84362   0.00000  Uiso   1.00
N1182  N     0.40342   0.82688   0.57179   0.00000  Uiso   1.00
O1183  O     0.40611   0.78922   0.58728   0.00000  Uiso   1.00
O1184  O     0.38192   0.85484   0.60604   0.00000  Uiso   1.00
N1185  N     0.35075   0.87313   0.51298   0.00000  Uiso   1.00
O1186  O     0.64838   0.86861   0.99237   0.00000  Uiso   1.00
O1187  O     0.34769   0.90263   0.54708   0.00000  Uiso   1.00
N1188  N     0.53891   0.95950   0.82162   0.00000  Uiso   1.00
O1189  O     0.57654   0.97466   0.83352   0.00000  Uiso   1.00
O1190  O     0.51365   0.93023   0.85045   0.00000  Uiso   1.00
O1191  O     0.79375   0.89345   0.75001   0.00000  Uiso   1.00
O1192  O     0.87294   0.89346   0.75001   0.00000  Uiso   1.00
C1193  C     0.83330   0.91257   0.75016   0.00000  Uiso   1.00
O1194  O     0.77441   0.83332   0.82549   0.00000  Uiso   1.00
O1195  O     0.85360   0.83333   0.82549   0.00000  Uiso   1.00
C1196  C     0.80718   0.83206   0.85019   0.00000  Uiso   1.00
Cu1197 Cu    0.78645   0.83333   0.75000   0.00000  Uiso   1.00
Cu1198 Cu    0.88022   0.83334   0.75000   0.00000  Uiso   1.00
O1199  O     0.79373   0.77321   0.75000   0.00000  Uiso   1.00
O1200  O     0.87292   0.77322   0.75000   0.00000  Uiso   1.00
O1201  O     0.81306   0.83334   0.67451   0.00000  Uiso   1.00
O1202  O     0.89225   0.83335   0.67451   0.00000  Uiso   1.00
C1203  C     0.83361   0.75414   0.74885   0.00000  Uiso   1.00
C1204  C     0.85942   0.83215   0.64986   0.00000  Uiso   1.00
C1205  C     0.92302   0.78601   0.51802   0.00000  Uiso   1.00
H1206  H     0.94233   0.79388   0.58918   0.00000  Uiso   1.00
H1207  H     0.95705   0.77005   0.99978   0.00000  Uiso   1.00
C1208  C     0.87353   0.82361   0.59352   0.00000  Uiso   1.00
C1209  C     0.74722   0.85160   0.93384   0.00000  Uiso   1.00
C1210  C     0.73067   0.85398   0.98836   0.00000  Uiso   1.00
C1211  C     0.75971   0.83730   0.51785   0.00000  Uiso   1.00
C1212  C     0.80789   0.82241   0.99142   0.00000  Uiso   1.00
C1213  C     0.82057   0.81483   0.93694   0.00000  Uiso   1.00
C1214  C     0.84410   0.81499   0.51723   0.00000  Uiso   1.00
C1215  C     0.88726   0.79207   0.99176   0.00000  Uiso   1.00
C1216  C     0.89406   0.77721   0.94021   0.00000  Uiso   1.00
C1217  C     0.86142   0.78959   0.91328   0.00000  Uiso   1.00
C1218  C     0.83993   0.83253   0.56651   0.00000  Uiso   1.00
C1219  C     0.91565   0.80090   0.56884   0.00000  Uiso   1.00
C1220  C     0.79117   0.83163   0.90781   0.00000  Uiso   1.00
H1221  H     0.81058   0.85368   0.58475   0.00000  Uiso   1.00
H1222  H     0.72531   0.86548   0.91151   0.00000  Uiso   1.00
H1223  H     0.86714   0.77753   0.87408   0.00000  Uiso   1.00
C1224  C     0.85404   0.97957   0.78323   0.00000  Uiso   1.00
C1225  C     0.85517   0.68897   0.78075   0.00000  Uiso   1.00
H1226  H     0.87059   0.70640   0.80693   0.00000  Uiso   1.00
C1227  C     0.83406   0.70961   0.74722   0.00000  Uiso   1.00
C1228  C     0.81269   0.68787   0.71375   0.00000  Uiso   1.00
C1229  C     0.81289   0.97798   0.71424   0.00000  Uiso   1.00
C1230  C     0.83326   0.95729   0.74942   0.00000  Uiso   1.00
C1231  C     0.96618   0.85895   0.78282   0.00000  Uiso   1.00
H1232  H     0.94026   0.87947   0.80911   0.00000  Uiso   1.00
C1233  C     0.68246   0.85892   0.78283   0.00000  Uiso   1.00
H1234  H     0.69397   0.87942   0.80911   0.00000  Uiso   1.00
N1235  N     0.71598   0.83332   0.74999   0.00000  Uiso   1.00
C1236  C     0.70043   0.80761   0.71738   0.00000  Uiso   1.00
H1237  H     0.72637   0.78708   0.69127   0.00000  Uiso   1.00
C1238  C     0.98417   0.80764   0.71732   0.00000  Uiso   1.00
H1239  H     0.97269   0.78711   0.69105   0.00000  Uiso   1.00
N1240  N     0.95069   0.83335   0.75000   0.00000  Uiso   1.00
N1241  N     0.79441   0.70955   0.67667   0.00000  Uiso   1.00
O1242  O     0.82313   0.73396   0.64265   0.00000  Uiso   1.00
O1243  O     0.74857   0.70633   0.67828   0.00000  Uiso   1.00
C1244  C     0.79560   0.95464   0.67507   0.00000  Uiso   1.00
O1245  O     0.82478   0.93424   0.64121   0.00000  Uiso   1.00
O1246  O     0.74594   0.95508   0.67784   0.00000  Uiso   1.00
H1247  H     0.73868   0.93751   0.64945   0.00000  Uiso   1.00
C1248  C     0.93501   0.74948   0.91224   0.00000  Uiso   1.00
O1249  O     0.94747   0.72098   0.93522   0.00000  Uiso   1.00
O1250  O     0.95789   0.75495   0.85865   0.00000  Uiso   1.00
H1251  H     0.98475   0.73394   0.84362   0.00000  Uiso   1.00
N1252  N     0.73675   0.82688   0.57179   0.00000  Uiso   1.00
O1253  O     0.73944   0.78922   0.58728   0.00000  Uiso   1.00
O1254  O     0.71526   0.85484   0.60604   0.00000  Uiso   1.00
N1255  N     0.68409   0.87313   0.51298   0.00000  Uiso   1.00
O1256  O     0.98171   0.86861   0.99237   0.00000  Uiso   1.00
O1257  O     0.68102   0.90263   0.54708   0.00000  Uiso   1.00
N1258  N     0.87224   0.95950   0.82162   0.00000  Uiso   1.00
O1259  O     0.90987   0.97466   0.83352   0.00000  Uiso   1.00
O1260  O     0.84698   0.93023   0.85045   0.00000  Uiso   1.00
loop_
_geom_bond_atom_site_label_1
_geom_bond_atom_site_label_2
_geom_bond_distance
_geom_bond_site_symmetry_2
_ccdc_geom_bond_type
O1     Cu7     1.959   .     S
O1     C3      1.288   .     A
O2     C3      1.290   .     A
O2     Cu8     1.959   .     S
C3     C40     1.450   .     S
O4     Cu7     1.943   .     S
O4     C6      1.295   .     A
O5     Cu8     1.934   .     S
O5     C6      1.295   .     A
C6     C30     1.471   .     S
Cu7    O9      1.959   .     S
Cu7    Cu8     2.676   .     S
Cu7    O11     1.934   .     S
Cu7    N45     2.011   .     S
Cu8    O12     1.943   .     S
Cu8    N50     2.011   .     S
Cu8    O10     1.959   .     S
O9     C13     1.288   .     A
O10    C13     1.288   .     A
O11    C14     1.292   .     A
O12    C14     1.295   .     A
C13    C37     1.443   .     S
C14    C18     1.463   .     S
C15    C29     1.394   .     A
C15    H647    1.080   1_554 S
C15    C655    1.414   1_554 S
H16    C29     1.083   .     S
H17    C645    1.080   .     S
C18    C29     1.396   .     A
C18    C28     1.392   .     A
C19    C20     1.394   .     A
C19    H32     1.084   .     S
C19    C30     1.399   .     A
C20    C651    1.412   .     S
C20    N695    1.437   .     S
C21    N62     1.439   .     S
C21    C650    1.412   1_554 S
C21    C652    1.430   1_554 S
C22    C23     1.412   .     A
C22    C651    1.430   .     S
C22    C654    1.423   .     S
C23    C27     1.410   .     A
C23    C30     1.414   .     A
C24    C28     1.402   .     A
C24    C652    1.423   1_554 S
C24    C655    1.425   1_554 S
C25    C26     1.413   .     A
C25    C645    1.414   .     S
C25    C654    1.425   .     S
C26    C58     1.486   .     S
C26    C27     1.396   .     A
C27    H33     1.081   .     S
C28    H31     1.079   .     S
C34    N68     1.439   .     S
C34    C40     1.412   .     A
C34    C245    1.387   .     S
C35    C37     1.394   .     A
C35    H36     1.085   .     S
C35    C454    1.387   1_545 S
C37    C38     1.407   .     A
C38    N51     1.437   .     S
C38    C459    1.401   1_545 S
C39    C54     1.484   .     S
C39    C40     1.416   .     A
C39    C248    1.401   .     S
C41    H42     1.082   .     S
C41    N50     1.367   .     A
C41    C113    1.416   .     S
C43    H44     1.082   .     S
C43    N45     1.367   .     A
C43    C181    1.416   1_455 S
N45    C46     1.366   .     A
C46    H47     1.080   .     S
C46    C188    1.416   1_455 S
C48    N50     1.367   .     A
C48    H49     1.082   .     S
C48    C116    1.416   .     S
N51    O52     1.301   .     A
N51    O53     1.301   .     A
C54    O56     1.397   .     S
C54    O55     1.223   .     D
O56    H57     1.014   .     S
C58    O59     1.223   .     D
C58    O60     1.400   .     S
O60    H61     1.014   .     S
N62    O63     1.301   .     A
N62    O64     1.300   .     A
N65    O67     1.301   .     A
N65    C650    1.437   1_554 S
N65    O836    1.301   1_454 S
O66    N765    1.301   .     S
N68    O70     1.301   .     A
N68    O69     1.302   .     A
O71    Cu77    1.959   .     S
O71    C73     1.288   .     A
O72    C73     1.290   .     A
O72    Cu78    1.959   .     S
C73    C110    1.450   .     S
O74    Cu77    1.943   .     S
O74    C76     1.295   .     A
O75    Cu78    1.934   .     S
O75    C76     1.295   .     A
C76    C100    1.471   .     S
Cu77   O79     1.959   .     S
Cu77   Cu78    2.676   .     S
Cu77   O81     1.934   .     S
Cu77   N115    2.011   .     S
Cu78   O82     1.943   .     S
Cu78   N120    2.011   .     S
Cu78   O80     1.959   .     S
O79    C83     1.288   .     A
O80    C83     1.288   .     A
O81    C84     1.292   .     A
O82    C84     1.295   .     A
C83    C107    1.443   .     S
C84    C88     1.463   .     S
C85    C99     1.394   .     A
C85    H717    1.080   1_554 S
C85    C725    1.414   1_554 S
H86    C99     1.083   .     S
H87    C715    1.080   .     S
C88    C99     1.396   .     A
C88    C98     1.392   .     A
C89    C90     1.394   .     A
C89    H102    1.084   .     S
C89    C100    1.399   .     A
C90    C721    1.412   .     S
C90    N765    1.437   .     S
C91    N132    1.439   .     S
C91    C720    1.412   1_554 S
C91    C722    1.430   1_554 S
C92    C93     1.412   .     A
C92    C721    1.430   .     S
C92    C724    1.423   .     S
C93    C97     1.410   .     A
C93    C100    1.414   .     A
C94    C98     1.402   .     A
C94    C722    1.423   1_554 S
C94    C725    1.425   1_554 S
C95    C96     1.413   .     A
C95    C715    1.414   .     S
C95    C724    1.425   .     S
C96    C128    1.486   .     S
C96    C97     1.396   .     A
C97    H103    1.081   .     S
C98    H101    1.079   .     S
C104   N138    1.439   .     S
C104   C110    1.412   .     A
C104   C315    1.387   .     S
C105   C107    1.394   .     A
C105   H106    1.085   .     S
C105   C524    1.387   1_545 S
C107   C108    1.407   .     A
C108   N121    1.437   .     S
C108   C529    1.401   1_545 S
C109   C124    1.484   .     S
C109   C110    1.416   .     A
C109   C318    1.401   .     S
C111   H112    1.082   .     S
C111   N120    1.367   .     A
C111   C183    1.416   .     S
C113   H114    1.082   .     S
C113   N115    1.367   .     A
N115   C116    1.366   .     A
C116   H117    1.080   .     S
C118   N120    1.367   .     A
C118   H119    1.082   .     S
C118   C186    1.416   .     S
N121   O122    1.301   .     A
N121   O123    1.301   .     A
C124   O126    1.397   .     S
C124   O125    1.223   .     D
O126   H127    1.014   .     S
C128   O129    1.223   .     D
C128   O130    1.400   .     S
O130   H131    1.014   .     S
N132   O133    1.301   .     A
N132   O134    1.300   .     A
N135   O137    1.301   .     A
N135   C720    1.437   1_554 S
N135   O696    1.301   1_554 S
O136   N835    1.301   .     S
N138   O140    1.301   .     A
N138   O139    1.302   .     A
O141   Cu147   1.959   .     S
O141   C143    1.288   .     A
O142   C143    1.290   .     A
O142   Cu148   1.959   .     S
C143   C180    1.450   .     S
O144   Cu147   1.943   .     S
O144   C146    1.295   .     A
O145   Cu148   1.934   .     S
O145   C146    1.295   .     A
C146   C170    1.471   .     S
Cu147  O149    1.959   .     S
Cu147  Cu148   2.676   .     S
Cu147  O151    1.934   .     S
Cu147  N185    2.011   .     S
Cu148  O152    1.943   .     S
Cu148  N190    2.011   .     S
Cu148  O150    1.959   .     S
O149   C153    1.288   .     A
O150   C153    1.288   .     A
O151   C154    1.292   .     A
O152   C154    1.295   .     A
C153   C177    1.443   .     S
C154   C158    1.463   .     S
C155   C169    1.394   .     A
C155   H787    1.080   1_554 S
C155   C795    1.414   1_554 S
H156   C169    1.083   .     S
H157   C785    1.080   .     S
C158   C169    1.396   .     A
C158   C168    1.392   .     A
C159   C160    1.394   .     A
C159   H172    1.084   .     S
C159   C170    1.399   .     A
C160   C791    1.412   .     S
C160   N835    1.437   .     S
C161   N202    1.439   .     S
C161   C790    1.412   1_554 S
C161   C792    1.430   1_554 S
C162   C163    1.412   .     A
C162   C791    1.430   .     S
C162   C794    1.423   .     S
C163   C167    1.410   .     A
C163   C170    1.414   .     A
C164   C168    1.402   .     A
C164   C792    1.423   1_554 S
C164   C795    1.425   1_554 S
C165   C166    1.413   .     A
C165   C785    1.414   .     S
C165   C794    1.425   .     S
C166   C198    1.486   .     S
C166   C167    1.396   .     A
C167   H173    1.081   .     S
C168   H171    1.079   .     S
C174   N208    1.439   .     S
C174   C180    1.412   .     A
C174   C385    1.387   .     S
C175   C177    1.394   .     A
C175   H176    1.085   .     S
C175   C594    1.387   1_545 S
C177   C178    1.407   .     A
C178   N191    1.437   .     S
C178   C599    1.401   1_545 S
C179   C194    1.484   .     S
C179   C180    1.416   .     A
C179   C388    1.401   .     S
C181   H182    1.082   .     S
C181   N190    1.367   .     A
C181   C43     1.416   1_655 S
C183   H184    1.082   .     S
C183   N185    1.367   .     A
N185   C186    1.366   .     A
C186   H187    1.080   .     S
C188   N190    1.367   .     A
C188   H189    1.082   .     S
C188   C46     1.416   1_655 S
N191   O192    1.301   .     A
N191   O193    1.301   .     A
C194   O196    1.397   .     S
C194   O195    1.223   .     D
O196   H197    1.014   .     S
C198   O199    1.223   .     D
C198   O200    1.400   .     S
O200   H201    1.014   .     S
N202   O203    1.301   .     A
N202   O204    1.300   .     A
N205   O207    1.301   .     A
N205   C790    1.437   1_554 S
N205   O766    1.301   1_554 S
O206   N695    1.301   1_655 S
N208   O210    1.301   .     A
N208   O209    1.302   .     A
O211   Cu217   1.959   .     S
O211   C213    1.288   .     A
O212   C213    1.290   .     A
O212   Cu218   1.959   .     S
C213   C250    1.450   .     S
O214   Cu217   1.943   .     S
O214   C216    1.295   .     A
O215   Cu218   1.934   .     S
O215   C216    1.295   .     A
C216   C240    1.471   .     S
Cu217  O219    1.959   .     S
Cu217  Cu218   2.676   .     S
Cu217  O221    1.934   .     S
Cu217  N255    2.011   .     S
Cu218  O222    1.943   .     S
Cu218  N260    2.011   .     S
Cu218  O220    1.959   .     S
O219   C223    1.288   .     A
O220   C223    1.288   .     A
O221   C224    1.292   .     A
O222   C224    1.295   .     A
C223   C247    1.443   .     S
C224   C228    1.463   .     S
C225   C239    1.394   .     A
C225   H857    1.080   1_554 S
C225   C865    1.414   1_554 S
H226   C239    1.083   .     S
H227   C855    1.080   .     S
C228   C239    1.396   .     A
C228   C238    1.392   .     A
C229   C230    1.394   .     A
C229   H242    1.084   .     S
C229   C240    1.399   .     A
C230   C861    1.412   .     S
C230   N905    1.437   .     S
C231   N272    1.439   .     S
C231   C860    1.412   1_554 S
C231   C862    1.430   1_554 S
C232   C233    1.412   .     A
C232   C861    1.430   .     S
C232   C864    1.423   .     S
C233   C237    1.410   .     A
C233   C240    1.414   .     A
C234   C238    1.402   .     A
C234   C862    1.423   1_554 S
C234   C865    1.425   1_554 S
C235   C236    1.413   .     A
C235   C855    1.414   .     S
C235   C864    1.425   .     S
C236   C268    1.486   .     S
C236   C237    1.396   .     A
C237   H243    1.081   .     S
C238   H241    1.079   .     S
C244   N278    1.439   .     S
C244   C250    1.412   .     A
C244   C455    1.387   .     S
C245   C247    1.394   .     A
C245   H246    1.085   .     S
C247   C248    1.407   .     A
C248   N261    1.437   .     S
C249   C264    1.484   .     S
C249   C250    1.416   .     A
C249   C458    1.401   .     S
C251   H252    1.082   .     S
C251   N260    1.367   .     A
C251   C323    1.416   .     S
C253   H254    1.082   .     S
C253   N255    1.367   .     A
C253   C391    1.416   1_455 S
N255   C256    1.366   .     A
C256   H257    1.080   .     S
C256   C398    1.416   1_455 S
C258   N260    1.367   .     A
C258   H259    1.082   .     S
C258   C326    1.416   .     S
N261   O262    1.301   .     A
N261   O263    1.301   .     A
C264   O266    1.397   .     S
C264   O265    1.223   .     D
O266   H267    1.014   .     S
C268   O269    1.223   .     D
C268   O270    1.400   .     S
O270   H271    1.014   .     S
N272   O273    1.301   .     A
N272   O274    1.300   .     A
N275   O277    1.301   .     A
N275   C860    1.437   1_554 S
N275   O1046   1.301   1_454 S
O276   N975    1.301   .     S
N278   O280    1.301   .     A
N278   O279    1.302   .     A
O281   Cu287   1.959   .     S
O281   C283    1.288   .     A
O282   C283    1.290   .     A
O282   Cu288   1.959   .     S
C283   C320    1.450   .     S
O284   Cu287   1.943   .     S
O284   C286    1.295   .     A
O285   Cu288   1.934   .     S
O285   C286    1.295   .     A
C286   C310    1.471   .     S
Cu287  O289    1.959   .     S
Cu287  Cu288   2.676   .     S
Cu287  O291    1.934   .     S
Cu287  N325    2.011   .     S
Cu288  O292    1.943   .     S
Cu288  N330    2.011   .     S
Cu288  O290    1.959   .     S
O289   C293    1.288   .     A
O290   C293    1.288   .     A
O291   C294    1.292   .     A
O292   C294    1.295   .     A
C293   C317    1.443   .     S
C294   C298    1.463   .     S
C295   C309    1.394   .     A
C295   H927    1.080   1_554 S
C295   C935    1.414   1_554 S
H296   C309    1.083   .     S
H297   C925    1.080   .     S
C298   C309    1.396   .     A
C298   C308    1.392   .     A
C299   C300    1.394   .     A
C299   H312    1.084   .     S
C299   C310    1.399   .     A
C300   C931    1.412   .     S
C300   N975    1.437   .     S
C301   N342    1.439   .     S
C301   C930    1.412   1_554 S
C301   C932    1.430   1_554 S
C302   C303    1.412   .     A
C302   C931    1.430   .     S
C302   C934    1.423   .     S
C303   C307    1.410   .     A
C303   C310    1.414   .     A
C304   C308    1.402   .     A
C304   C932    1.423   1_554 S
C304   C935    1.425   1_554 S
C305   C306    1.413   .     A
C305   C925    1.414   .     S
C305   C934    1.425   .     S
C306   C338    1.486   .     S
C306   C307    1.396   .     A
C307   H313    1.081   .     S
C308   H311    1.079   .     S
C314   N348    1.439   .     S
C314   C320    1.412   .     A
C314   C525    1.387   .     S
C315   C317    1.394   .     A
C315   H316    1.085   .     S
C317   C318    1.407   .     A
C318   N331    1.437   .     S
C319   C334    1.484   .     S
C319   C320    1.416   .     A
C319   C528    1.401   .     S
C321   H322    1.082   .     S
C321   N330    1.367   .     A
C321   C393    1.416   .     S
C323   H324    1.082   .     S
C323   N325    1.367   .     A
N325   C326    1.366   .     A
C326   H327    1.080   .     S
C328   N330    1.367   .     A
C328   H329    1.082   .     S
C328   C396    1.416   .     S
N331   O332    1.301   .     A
N331   O333    1.301   .     A
C334   O336    1.397   .     S
C334   O335    1.223   .     D
O336   H337    1.014   .     S
C338   O339    1.223   .     D
C338   O340    1.400   .     S
O340   H341    1.014   .     S
N342   O343    1.301   .     A
N342   O344    1.300   .     A
N345   O347    1.301   .     A
N345   C930    1.437   1_554 S
N345   O906    1.301   1_554 S
O346   N1045   1.301   .     S
N348   O350    1.301   .     A
N348   O349    1.302   .     A
O351   Cu357   1.959   .     S
O351   C353    1.288   .     A
O352   C353    1.290   .     A
O352   Cu358   1.959   .     S
C353   C390    1.450   .     S
O354   Cu357   1.943   .     S
O354   C356    1.295   .     A
O355   Cu358   1.934   .     S
O355   C356    1.295   .     A
C356   C380    1.471   .     S
Cu357  O359    1.959   .     S
Cu357  Cu358   2.676   .     S
Cu357  O361    1.934   .     S
Cu357  N395    2.011   .     S
Cu358  O362    1.943   .     S
Cu358  N400    2.011   .     S
Cu358  O360    1.959   .     S
O359   C363    1.288   .     A
O360   C363    1.288   .     A
O361   C364    1.292   .     A
O362   C364    1.295   .     A
C363   C387    1.443   .     S
C364   C368    1.463   .     S
C365   C379    1.394   .     A
C365   H997    1.080   1_554 S
C365   C1005   1.414   1_554 S
H366   C379    1.083   .     S
H367   C995    1.080   .     S
C368   C379    1.396   .     A
C368   C378    1.392   .     A
C369   C370    1.394   .     A
C369   H382    1.084   .     S
C369   C380    1.399   .     A
C370   C1001   1.412   .     S
C370   N1045   1.437   .     S
C371   N412    1.439   .     S
C371   C1000   1.412   1_554 S
C371   C1002   1.430   1_554 S
C372   C373    1.412   .     A
C372   C1001   1.430   .     S
C372   C1004   1.423   .     S
C373   C377    1.410   .     A
C373   C380    1.414   .     A
C374   C378    1.402   .     A
C374   C1002   1.423   1_554 S
C374   C1005   1.425   1_554 S
C375   C376    1.413   .     A
C375   C995    1.414   .     S
C375   C1004   1.425   .     S
C376   C408    1.486   .     S
C376   C377    1.396   .     A
C377   H383    1.081   .     S
C378   H381    1.079   .     S
C384   N418    1.439   .     S
C384   C390    1.412   .     A
C384   C595    1.387   .     S
C385   C387    1.394   .     A
C385   H386    1.085   .     S
C387   C388    1.407   .     A
C388   N401    1.437   .     S
C389   C404    1.484   .     S
C389   C390    1.416   .     A
C389   C598    1.401   .     S
C391   H392    1.082   .     S
C391   N400    1.367   .     A
C391   C253    1.416   1_655 S
C393   H394    1.082   .     S
C393   N395    1.367   .     A
N395   C396    1.366   .     A
C396   H397    1.080   .     S
C398   N400    1.367   .     A
C398   H399    1.082   .     S
C398   C256    1.416   1_655 S
N401   O402    1.301   .     A
N401   O403    1.301   .     A
C404   O406    1.397   .     S
C404   O405    1.223   .     D
O406   H407    1.014   .     S
C408   O409    1.223   .     D
C408   O410    1.400   .     S
O410   H411    1.014   .     S
N412   O413    1.301   .     A
N412   O414    1.300   .     A
N415   O417    1.301   .     A
N415   C1000   1.437   1_554 S
N415   O976    1.301   1_554 S
O416   N905    1.301   1_655 S
N418   O420    1.301   .     A
N418   O419    1.302   .     A
O421   Cu427   1.959   .     S
O421   C423    1.288   .     A
O422   C423    1.290   .     A
O422   Cu428   1.959   .     S
C423   C460    1.450   .     S
O424   Cu427   1.943   .     S
O424   C426    1.295   .     A
O425   Cu428   1.934   .     S
O425   C426    1.295   .     A
C426   C450    1.471   .     S
Cu427  O429    1.959   .     S
Cu427  Cu428   2.676   .     S
Cu427  O431    1.934   .     S
Cu427  N465    2.011   .     S
Cu428  O432    1.943   .     S
Cu428  N470    2.011   .     S
Cu428  O430    1.959   .     S
O429   C433    1.288   .     A
O430   C433    1.288   .     A
O431   C434    1.292   .     A
O432   C434    1.295   .     A
C433   C457    1.443   .     S
C434   C438    1.463   .     S
C435   C449    1.394   .     A
C435   H1067   1.080   1_554 S
C435   C1075   1.414   1_554 S
H436   C449    1.083   .     S
H437   C1065   1.080   .     S
C438   C449    1.396   .     A
C438   C448    1.392   .     A
C439   C440    1.394   .     A
C439   H452    1.084   .     S
C439   C450    1.399   .     A
C440   C1071   1.412   .     S
C440   N1115   1.437   .     S
C441   N482    1.439   .     S
C441   C1070   1.412   1_554 S
C441   C1072   1.430   1_554 S
C442   C443    1.412   .     A
C442   C1071   1.430   .     S
C442   C1074   1.423   .     S
C443   C447    1.410   .     A
C443   C450    1.414   .     A
C444   C448    1.402   .     A
C444   C1072   1.423   1_554 S
C444   C1075   1.425   1_554 S
C445   C446    1.413   .     A
C445   C1065   1.414   .     S
C445   C1074   1.425   .     S
C446   C478    1.486   .     S
C446   C447    1.396   .     A
C447   H453    1.081   .     S
C448   H451    1.079   .     S
C454   N488    1.439   .     S
C454   C460    1.412   .     A
C454   C35     1.387   1_565 S
C455   C457    1.394   .     A
C455   H456    1.085   .     S
C457   C458    1.407   .     A
C458   N471    1.437   .     S
C459   C474    1.484   .     S
C459   C460    1.416   .     A
C459   C38     1.401   1_565 S
C461   H462    1.082   .     S
C461   N470    1.367   .     A
C461   C533    1.416   .     S
C463   H464    1.082   .     S
C463   N465    1.367   .     A
C463   C601    1.416   1_455 S
N465   C466    1.366   .     A
C466   H467    1.080   .     S
C466   C608    1.416   1_455 S
C468   N470    1.367   .     A
C468   H469    1.082   .     S
C468   C536    1.416   .     S
N471   O472    1.301   .     A
N471   O473    1.301   .     A
C474   O476    1.397   .     S
C474   O475    1.223   .     D
O476   H477    1.014   .     S
C478   O479    1.223   .     D
C478   O480    1.400   .     S
O480   H481    1.014   .     S
N482   O483    1.301   .     A
N482   O484    1.300   .     A
N485   O487    1.301   .     A
N485   C1070   1.437   1_554 S
N485   O1256   1.301   1_454 S
O486   N1185   1.301   .     S
N488   O490    1.301   .     A
N488   O489    1.302   .     A
O491   Cu497   1.959   .     S
O491   C493    1.288   .     A
O492   C493    1.290   .     A
O492   Cu498   1.959   .     S
C493   C530    1.450   .     S
O494   Cu497   1.943   .     S
O494   C496    1.295   .     A
O495   Cu498   1.934   .     S
O495   C496    1.295   .     A
C496   C520    1.471   .     S
Cu497  O499    1.959   .     S
Cu497  Cu498   2.676   .     S
Cu497  O501    1.934   .     S
Cu497  N535    2.011   .     S
Cu498  O502    1.943   .     S
Cu498  N540    2.011   .     S
Cu498  O500    1.959   .     S
O499   C503    1.288   .     A
O500   C503    1.288   .     A
O501   C504    1.292   .     A
O502   C504    1.295   .     A
C503   C527    1.443   .     S
C504   C508    1.463   .     S
C505   C519    1.394   .     A
C505   H1137   1.080   1_554 S
C505   C1145   1.414   1_554 S
H506   C519    1.083   .     S
H507   C1135   1.080   .     S
C508   C519    1.396   .     A
C508   C518    1.392   .     A
C509   C510    1.394   .     A
C509   H522    1.084   .     S
C509   C520    1.399   .     A
C510   C1141   1.412   .     S
C510   N1185   1.437   .     S
C511   N552    1.439   .     S
C511   C1140   1.412   1_554 S
C511   C1142   1.430   1_554 S
C512   C513    1.412   .     A
C512   C1141   1.430   .     S
C512   C1144   1.423   .     S
C513   C517    1.410   .     A
C513   C520    1.414   .     A
C514   C518    1.402   .     A
C514   C1142   1.423   1_554 S
C514   C1145   1.425   1_554 S
C515   C516    1.413   .     A
C515   C1135   1.414   .     S
C515   C1144   1.425   .     S
C516   C548    1.486   .     S
C516   C517    1.396   .     A
C517   H523    1.081   .     S
C518   H521    1.079   .     S
C524   N558    1.439   .     S
C524   C530    1.412   .     A
C524   C105    1.387   1_565 S
C525   C527    1.394   .     A
C525   H526    1.085   .     S
C527   C528    1.407   .     A
C528   N541    1.437   .     S
C529   C544    1.484   .     S
C529   C530    1.416   .     A
C529   C108    1.401   1_565 S
C531   H532    1.082   .     S
C531   N540    1.367   .     A
C531   C603    1.416   .     S
C533   H534    1.082   .     S
C533   N535    1.367   .     A
N535   C536    1.366   .     A
C536   H537    1.080   .     S
C538   N540    1.367   .     A
C538   H539    1.082   .     S
C538   C606    1.416   .     S
N541   O542    1.301   .     A
N541   O543    1.301   .     A
C544   O546    1.397   .     S
C544   O545    1.223   .     D
O546   H547    1.014   .     S
C548   O549    1.223   .     D
C548   O550    1.400   .     S
O550   H551    1.014   .     S
N552   O553    1.301   .     A
N552   O554    1.300   .     A
N555   O557    1.301   .     A
N555   C1140   1.437   1_554 S
N555   O1116   1.301   1_554 S
O556   N1255   1.301   .     S
N558   O560    1.301   .     A
N558   O559    1.302   .     A
O561   Cu567   1.959   .     S
O561   C563    1.288   .     A
O562   C563    1.290   .     A
O562   Cu568   1.959   .     S
C563   C600    1.450   .     S
O564   Cu567   1.943   .     S
O564   C566    1.295   .     A
O565   Cu568   1.934   .     S
O565   C566    1.295   .     A
C566   C590    1.471   .     S
Cu567  O569    1.959   .     S
Cu567  Cu568   2.676   .     S
Cu567  O571    1.934   .     S
Cu567  N605    2.011   .     S
Cu568  O572    1.943   .     S
Cu568  N610    2.011   .     S
Cu568  O570    1.959   .     S
O569   C573    1.288   .     A
O570   C573    1.288   .     A
O571   C574    1.292   .     A
O572   C574    1.295   .     A
C573   C597    1.443   .     S
C574   C578    1.463   .     S
C575   C589    1.394   .     A
C575   H1207   1.080   1_554 S
C575   C1215   1.414   1_554 S
H576   C589    1.083   .     S
H577   C1205   1.080   .     S
C578   C589    1.396   .     A
C578   C588    1.392   .     A
C579   C580    1.394   .     A
C579   H592    1.084   .     S
C579   C590    1.399   .     A
C580   C1211   1.412   .     S
C580   N1255   1.437   .     S
C581   N622    1.439   .     S
C581   C1210   1.412   1_554 S
C581   C1212   1.430   1_554 S
C582   C583    1.412   .     A
C582   C1211   1.430   .     S
C582   C1214   1.423   .     S
C583   C587    1.410   .     A
C583   C590    1.414   .     A
C584   C588    1.402   .     A
C584   C1212   1.423   1_554 S
C584   C1215   1.425   1_554 S
C585   C586    1.413   .     A
C585   C1205   1.414   .     S
C585   C1214   1.425   .     S
C586   C618    1.486   .     S
C586   C587    1.396   .     A
C587   H593    1.081   .     S
C588   H591    1.079   .     S
C594   N628    1.439   .     S
C594   C600    1.412   .     A
C594   C175    1.387   1_565 S
C595   C597    1.394   .     A
C595   H596    1.085   .     S
C597   C598    1.407   .     A
C598   N611    1.437   .     S
C599   C614    1.484   .     S
C599   C600    1.416   .     A
C599   C178    1.401   1_565 S
C601   H602    1.082   .     S
C601   N610    1.367   .     A
C601   C463    1.416   1_655 S
C603   H604    1.082   .     S
C603   N605    1.367   .     A
N605   C606    1.366   .     A
C606   H607    1.080   .     S
C608   N610    1.367   .     A
C608   H609    1.082   .     S
C608   C466    1.416   1_655 S
N611   O612    1.301   .     A
N611   O613    1.301   .     A
C614   O616    1.397   .     S
C614   O615    1.223   .     D
O616   H617    1.014   .     S
C618   O619    1.223   .     D
C618   O620    1.400   .     S
O620   H621    1.014   .     S
N622   O623    1.301   .     A
N622   O624    1.300   .     A
N625   O627    1.301   .     A
N625   C1210   1.437   1_554 S
N625   O1186   1.301   1_554 S
O626   N1115   1.301   1_655 S
N628   O630    1.301   .     A
N628   O629    1.302   .     A
O631   Cu637   1.959   .     S
O631   C633    1.288   .     A
O632   C633    1.290   .     A
O632   Cu638   1.959   .     S
C633   C670    1.450   .     S
O634   Cu637   1.943   .     S
O634   C636    1.295   .     A
O635   Cu638   1.934   .     S
O635   C636    1.295   .     A
C636   C660    1.471   .     S
Cu637  O639    1.959   .     S
Cu637  Cu638   2.676   .     S
Cu637  O641    1.934   .     S
Cu637  N675    2.011   .     S
Cu638  O642    1.943   .     S
Cu638  N680    2.011   .     S
Cu638  O640    1.959   .     S
O639   C643    1.288   .     A
O640   C643    1.288   .     A
O641   C644    1.292   .     A
O642   C644    1.295   .     A
C643   C667    1.443   .     S
C644   C648    1.463   .     S
C645   C659    1.394   .     A
H646   C659    1.083   .     S
H647   C15     1.080   1_556 S
C648   C659    1.396   .     A
C648   C658    1.392   .     A
C649   C650    1.394   .     A
C649   H662    1.084   .     S
C649   C660    1.399   .     A
C650   C21     1.412   1_556 S
C650   N65     1.437   1_556 S
C651   N692    1.439   .     S
C652   C653    1.412   .     A
C652   C21     1.430   1_556 S
C652   C24     1.423   1_556 S
C653   C657    1.410   .     A
C653   C660    1.414   .     A
C654   C658    1.402   .     A
C655   C656    1.413   .     A
C655   C15     1.414   1_556 S
C655   C24     1.425   1_556 S
C656   C688    1.486   .     S
C656   C657    1.396   .     A
C657   H663    1.081   .     S
C658   H661    1.079   .     S
C664   N698    1.439   .     S
C664   C670    1.412   .     A
C664   C875    1.387   .     S
C665   C667    1.394   .     A
C665   H666    1.085   .     S
C665   C1084   1.387   1_545 S
C667   C668    1.407   .     A
C668   N681    1.437   .     S
C668   C1089   1.401   1_545 S
C669   C684    1.484   .     S
C669   C670    1.416   .     A
C669   C878    1.401   .     S
C671   H672    1.082   .     S
C671   N680    1.367   .     A
C671   C743    1.416   .     S
C673   H674    1.082   .     S
C673   N675    1.367   .     A
C673   C811    1.416   1_455 S
N675   C676    1.366   .     A
C676   H677    1.080   .     S
C676   C818    1.416   1_455 S
C678   N680    1.367   .     A
C678   H679    1.082   .     S
C678   C746    1.416   .     S
N681   O682    1.301   .     A
N681   O683    1.301   .     A
C684   O686    1.397   .     S
C684   O685    1.223   .     D
O686   H687    1.014   .     S
C688   O689    1.223   .     D
C688   O690    1.400   .     S
O690   H691    1.014   .     S
N692   O693    1.301   .     A
N692   O694    1.300   .     A
N695   O697    1.301   .     A
N695   O206    1.301   1_455 S
O696   N135    1.301   1_556 S
N698   O700    1.301   .     A
N698   O699    1.302   .     A
O701   Cu707   1.959   .     S
O701   C703    1.288   .     A
O702   C703    1.290   .     A
O702   Cu708   1.959   .     S
C703   C740    1.450   .     S
O704   Cu707   1.943   .     S
O704   C706    1.295   .     A
O705   Cu708   1.934   .     S
O705   C706    1.295   .     A
C706   C730    1.471   .     S
Cu707  O709    1.959   .     S
Cu707  Cu708   2.676   .     S
Cu707  O711    1.934   .     S
Cu707  N745    2.011   .     S
Cu708  O712    1.943   .     S
Cu708  N750    2.011   .     S
Cu708  O710    1.959   .     S
O709   C713    1.288   .     A
O710   C713    1.288   .     A
O711   C714    1.292   .     A
O712   C714    1.295   .     A
C713   C737    1.443   .     S
C714   C718    1.463   .     S
C715   C729    1.394   .     A
H716   C729    1.083   .     S
H717   C85     1.080   1_556 S
C718   C729    1.396   .     A
C718   C728    1.392   .     A
C719   C720    1.394   .     A
C719   H732    1.084   .     S
C719   C730    1.399   .     A
C720   C91     1.412   1_556 S
C720   N135    1.437   1_556 S
C721   N762    1.439   .     S
C722   C723    1.412   .     A
C722   C91     1.430   1_556 S
C722   C94     1.423   1_556 S
C723   C727    1.410   .     A
C723   C730    1.414   .     A
C724   C728    1.402   .     A
C725   C726    1.413   .     A
C725   C85     1.414   1_556 S
C725   C94     1.425   1_556 S
C726   C758    1.486   .     S
C726   C727    1.396   .     A
C727   H733    1.081   .     S
C728   H731    1.079   .     S
C734   N768    1.439   .     S
C734   C740    1.412   .     A
C734   C945    1.387   .     S
C735   C737    1.394   .     A
C735   H736    1.085   .     S
C735   C1154   1.387   1_545 S
C737   C738    1.407   .     A
C738   N751    1.437   .     S
C738   C1159   1.401   1_545 S
C739   C754    1.484   .     S
C739   C740    1.416   .     A
C739   C948    1.401   .     S
C741   H742    1.082   .     S
C741   N750    1.367   .     A
C741   C813    1.416   .     S
C743   H744    1.082   .     S
C743   N745    1.367   .     A
N745   C746    1.366   .     A
C746   H747    1.080   .     S
C748   N750    1.367   .     A
C748   H749    1.082   .     S
C748   C816    1.416   .     S
N751   O752    1.301   .     A
N751   O753    1.301   .     A
C754   O756    1.397   .     S
C754   O755    1.223   .     D
O756   H757    1.014   .     S
C758   O759    1.223   .     D
C758   O760    1.400   .     S
O760   H761    1.014   .     S
N762   O763    1.301   .     A
N762   O764    1.300   .     A
N765   O767    1.301   .     A
O766   N205    1.301   1_556 S
N768   O770    1.301   .     A
N768   O769    1.302   .     A
O771   Cu777   1.959   .     S
O771   C773    1.288   .     A
O772   C773    1.290   .     A
O772   Cu778   1.959   .     S
C773   C810    1.450   .     S
O774   Cu777   1.943   .     S
O774   C776    1.295   .     A
O775   Cu778   1.934   .     S
O775   C776    1.295   .     A
C776   C800    1.471   .     S
Cu777  O779    1.959   .     S
Cu777  Cu778   2.676   .     S
Cu777  O781    1.934   .     S
Cu777  N815    2.011   .     S
Cu778  O782    1.943   .     S
Cu778  N820    2.011   .     S
Cu778  O780    1.959   .     S
O779   C783    1.288   .     A
O780   C783    1.288   .     A
O781   C784    1.292   .     A
O782   C784    1.295   .     A
C783   C807    1.443   .     S
C784   C788    1.463   .     S
C785   C799    1.394   .     A
H786   C799    1.083   .     S
H787   C155    1.080   1_556 S
C788   C799    1.396   .     A
C788   C798    1.392   .     A
C789   C790    1.394   .     A
C789   H802    1.084   .     S
C789   C800    1.399   .     A
C790   C161    1.412   1_556 S
C790   N205    1.437   1_556 S
C791   N832    1.439   .     S
C792   C793    1.412   .     A
C792   C161    1.430   1_556 S
C792   C164    1.423   1_556 S
C793   C797    1.410   .     A
C793   C800    1.414   .     A
C794   C798    1.402   .     A
C795   C796    1.413   .     A
C795   C155    1.414   1_556 S
C795   C164    1.425   1_556 S
C796   C828    1.486   .     S
C796   C797    1.396   .     A
C797   H803    1.081   .     S
C798   H801    1.079   .     S
C804   N838    1.439   .     S
C804   C810    1.412   .     A
C804   C1015   1.387   .     S
C805   C807    1.394   .     A
C805   H806    1.085   .     S
C805   C1224   1.387   1_545 S
C807   C808    1.407   .     A
C808   N821    1.437   .     S
C808   C1229   1.401   1_545 S
C809   C824    1.484   .     S
C809   C810    1.416   .     A
C809   C1018   1.401   .     S
C811   H812    1.082   .     S
C811   N820    1.367   .     A
C811   C673    1.416   1_655 S
C813   H814    1.082   .     S
C813   N815    1.367   .     A
N815   C816    1.366   .     A
C816   H817    1.080   .     S
C818   N820    1.367   .     A
C818   H819    1.082   .     S
C818   C676    1.416   1_655 S
N821   O822    1.301   .     A
N821   O823    1.301   .     A
C824   O826    1.397   .     S
C824   O825    1.223   .     D
O826   H827    1.014   .     S
C828   O829    1.223   .     D
C828   O830    1.400   .     S
O830   H831    1.014   .     S
N832   O833    1.301   .     A
N832   O834    1.300   .     A
N835   O837    1.301   .     A
O836   N65     1.301   1_656 S
N838   O840    1.301   .     A
N838   O839    1.302   .     A
O841   Cu847   1.959   .     S
O841   C843    1.288   .     A
O842   C843    1.290   .     A
O842   Cu848   1.959   .     S
C843   C880    1.450   .     S
O844   Cu847   1.943   .     S
O844   C846    1.295   .     A
O845   Cu848   1.934   .     S
O845   C846    1.295   .     A
C846   C870    1.471   .     S
Cu847  O849    1.959   .     S
Cu847  Cu848   2.676   .     S
Cu847  O851    1.934   .     S
Cu847  N885    2.011   .     S
Cu848  O852    1.943   .     S
Cu848  N890    2.011   .     S
Cu848  O850    1.959   .     S
O849   C853    1.288   .     A
O850   C853    1.288   .     A
O851   C854    1.292   .     A
O852   C854    1.295   .     A
C853   C877    1.443   .     S
C854   C858    1.463   .     S
C855   C869    1.394   .     A
H856   C869    1.083   .     S
H857   C225    1.080   1_556 S
C858   C869    1.396   .     A
C858   C868    1.392   .     A
C859   C860    1.394   .     A
C859   H872    1.084   .     S
C859   C870    1.399   .     A
C860   C231    1.412   1_556 S
C860   N275    1.437   1_556 S
C861   N902    1.439   .     S
C862   C863    1.412   .     A
C862   C231    1.430   1_556 S
C862   C234    1.423   1_556 S
C863   C867    1.410   .     A
C863   C870    1.414   .     A
C864   C868    1.402   .     A
C865   C866    1.413   .     A
C865   C225    1.414   1_556 S
C865   C234    1.425   1_556 S
C866   C898    1.486   .     S
C866   C867    1.396   .     A
C867   H873    1.081   .     S
C868   H871    1.079   .     S
C874   N908    1.439   .     S
C874   C880    1.412   .     A
C874   C1085   1.387   .     S
C875   C877    1.394   .     A
C875   H876    1.085   .     S
C877   C878    1.407   .     A
C878   N891    1.437   .     S
C879   C894    1.484   .     S
C879   C880    1.416   .     A
C879   C1088   1.401   .     S
C881   H882    1.082   .     S
C881   N890    1.367   .     A
C881   C953    1.416   .     S
C883   H884    1.082   .     S
C883   N885    1.367   .     A
C883   C1021   1.416   1_455 S
N885   C886    1.366   .     A
C886   H887    1.080   .     S
C886   C1028   1.416   1_455 S
C888   N890    1.367   .     A
C888   H889    1.082   .     S
C888   C956    1.416   .     S
N891   O892    1.301   .     A
N891   O893    1.301   .     A
C894   O896    1.397   .     S
C894   O895    1.223   .     D
O896   H897    1.014   .     S
C898   O899    1.223   .     D
C898   O900    1.400   .     S
O900   H901    1.014   .     S
N902   O903    1.301   .     A
N902   O904    1.300   .     A
N905   O907    1.301   .     A
N905   O416    1.301   1_455 S
O906   N345    1.301   1_556 S
N908   O910    1.301   .     A
N908   O909    1.302   .     A
O911   Cu917   1.959   .     S
O911   C913    1.288   .     A
O912   C913    1.290   .     A
O912   Cu918   1.959   .     S
C913   C950    1.450   .     S
O914   Cu917   1.943   .     S
O914   C916    1.295   .     A
O915   Cu918   1.934   .     S
O915   C916    1.295   .     A
C916   C940    1.471   .     S
Cu917  O919    1.959   .     S
Cu917  Cu918   2.676   .     S
Cu917  O921    1.934   .     S
Cu917  N955    2.011   .     S
Cu918  O922    1.943   .     S
Cu918  N960    2.011   .     S
Cu918  O920    1.959   .     S
O919   C923    1.288   .     A
O920   C923    1.288   .     A
O921   C924    1.292   .     A
O922   C924    1.295   .     A
C923   C947    1.443   .     S
C924   C928    1.463   .     S
C925   C939    1.394   .     A
H926   C939    1.083   .     S
H927   C295    1.080   1_556 S
C928   C939    1.396   .     A
C928   C938    1.392   .     A
C929   C930    1.394   .     A
C929   H942    1.084   .     S
C929   C940    1.399   .     A
C930   C301    1.412   1_556 S
C930   N345    1.437   1_556 S
C931   N972    1.439   .     S
C932   C933    1.412   .     A
C932   C301    1.430   1_556 S
C932   C304    1.423   1_556 S
C933   C937    1.410   .     A
C933   C940    1.414   .     A
C934   C938    1.402   .     A
C935   C936    1.413   .     A
C935   C295    1.414   1_556 S
C935   C304    1.425   1_556 S
C936   C968    1.486   .     S
C936   C937    1.396   .     A
C937   H943    1.081   .     S
C938   H941    1.079   .     S
C944   N978    1.439   .     S
C944   C950    1.412   .     A
C944   C1155   1.387   .     S
C945   C947    1.394   .     A
C945   H946    1.085   .     S
C947   C948    1.407   .     A
C948   N961    1.437   .     S
C949   C964    1.484   .     S
C949   C950    1.416   .     A
C949   C1158   1.401   .     S
C951   H952    1.082   .     S
C951   N960    1.367   .     A
C951   C1023   1.416   .     S
C953   H954    1.082   .     S
C953   N955    1.367   .     A
N955   C956    1.366   .     A
C956   H957    1.080   .     S
C958   N960    1.367   .     A
C958   H959    1.082   .     S
C958   C1026   1.416   .     S
N961   O962    1.301   .     A
N961   O963    1.301   .     A
C964   O966    1.397   .     S
C964   O965    1.223   .     D
O966   H967    1.014   .     S
C968   O969    1.223   .     D
C968   O970    1.400   .     S
O970   H971    1.014   .     S
N972   O973    1.301   .     A
N972   O974    1.300   .     A
N975   O977    1.301   .     A
O976   N415    1.301   1_556 S
N978   O980    1.301   .     A
N978   O979    1.302   .     A
O981   Cu987   1.959   .     S
O981   C983    1.288   .     A
O982   C983    1.290   .     A
O982   Cu988   1.959   .     S
C983   C1020   1.450   .     S
O984   Cu987   1.943   .     S
O984   C986    1.295   .     A
O985   Cu988   1.934   .     S
O985   C986    1.295   .     A
C986   C1010   1.471   .     S
Cu987  O989    1.959   .     S
Cu987  Cu988   2.676   .     S
Cu987  O991    1.934   .     S
Cu987  N1025   2.011   .     S
Cu988  O992    1.943   .     S
Cu988  N1030   2.011   .     S
Cu988  O990    1.959   .     S
O989   C993    1.288   .     A
O990   C993    1.288   .     A
O991   C994    1.292   .     A
O992   C994    1.295   .     A
C993   C1017   1.443   .     S
C994   C998    1.463   .     S
C995   C1009   1.394   .     A
H996   C1009   1.083   .     S
H997   C365    1.080   1_556 S
C998   C1009   1.396   .     A
C998   C1008   1.392   .     A
C999   C1000   1.394   .     A
C999   H1012   1.084   .     S
C999   C1010   1.399   .     A
C1000  C371    1.412   1_556 S
C1000  N415    1.437   1_556 S
C1001  N1042   1.439   .     S
C1002  C1003   1.412   .     A
C1002  C371    1.430   1_556 S
C1002  C374    1.423   1_556 S
C1003  C1007   1.410   .     A
C1003  C1010   1.414   .     A
C1004  C1008   1.402   .     A
C1005  C1006   1.413   .     A
C1005  C365    1.414   1_556 S
C1005  C374    1.425   1_556 S
C1006  C1038   1.486   .     S
C1006  C1007   1.396   .     A
C1007  H1013   1.081   .     S
C1008  H1011   1.079   .     S
C1014  N1048   1.439   .     S
C1014  C1020   1.412   .     A
C1014  C1225   1.387   .     S
C1015  C1017   1.394   .     A
C1015  H1016   1.085   .     S
C1017  C1018   1.407   .     A
C1018  N1031   1.437   .     S
C1019  C1034   1.484   .     S
C1019  C1020   1.416   .     A
C1019  C1228   1.401   .     S
C1021  H1022   1.082   .     S
C1021  N1030   1.367   .     A
C1021  C883    1.416   1_655 S
C1023  H1024   1.082   .     S
C1023  N1025   1.367   .     A
N1025  C1026   1.366   .     A
C1026  H1027   1.080   .     S
C1028  N1030   1.367   .     A
C1028  H1029   1.082   .     S
C1028  C886    1.416   1_655 S
N1031  O1032   1.301   .     A
N1031  O1033   1.301   .     A
C1034  O1036   1.397   .     S
C1034  O1035   1.223   .     D
O1036  H1037   1.014   .     S
C1038  O1039   1.223   .     D
C1038  O1040   1.400   .     S
O1040  H1041   1.014   .     S
N1042  O1043   1.301   .     A
N1042  O1044   1.300   .     A
N1045  O1047   1.301   .     A
O1046  N275    1.301   1_656 S
N1048  O1050   1.301   .     A
N1048  O1049   1.302   .     A
O1051  Cu1057  1.959   .     S
O1051  C1053   1.288   .     A
O1052  C1053   1.290   .     A
O1052  Cu1058  1.959   .     S
C1053  C1090   1.450   .     S
O1054  Cu1057  1.943   .     S
O1054  C1056   1.295   .     A
O1055  Cu1058  1.934   .     S
O1055  C1056   1.295   .     A
C1056  C1080   1.471   .     S
Cu1057 O1059   1.959   .     S
Cu1057 Cu1058  2.676   .     S
Cu1057 O1061   1.934   .     S
Cu1057 N1095   2.011   .     S
Cu1058 O1062   1.943   .     S
Cu1058 N1100   2.011   .     S
Cu1058 O1060   1.959   .     S
O1059  C1063   1.288   .     A
O1060  C1063   1.288   .     A
O1061  C1064   1.292   .     A
O1062  C1064   1.295   .     A
C1063  C1087   1.443   .     S
C1064  C1068   1.463   .     S
C1065  C1079   1.394   .     A
H1066  C1079   1.083   .     S
H1067  C435    1.080   1_556 S
C1068  C1079   1.396   .     A
C1068  C1078   1.392   .     A
C1069  C1070   1.394   .     A
C1069  H1082   1.084   .     S
C1069  C1080   1.399   .     A
C1070  C441    1.412   1_556 S
C1070  N485    1.437   1_556 S
C1071  N1112   1.439   .     S
C1072  C1073   1.412   .     A
C1072  C441    1.430   1_556 S
C1072  C444    1.423   1_556 S
C1073  C1077   1.410   .     A
C1073  C1080   1.414   .     A
C1074  C1078   1.402   .     A
C1075  C1076   1.413   .     A
C1075  C435    1.414   1_556 S
C1075  C444    1.425   1_556 S
C1076  C1108   1.486   .     S
C1076  C1077   1.396   .     A
C1077  H1083   1.081   .     S
C1078  H1081   1.079   .     S
C1084  N1118   1.439   .     S
C1084  C1090   1.412   .     A
C1084  C665    1.387   1_565 S
C1085  C1087   1.394   .     A
C1085  H1086   1.085   .     S
C1087  C1088   1.407   .     A
C1088  N1101   1.437   .     S
C1089  C1104   1.484   .     S
C1089  C1090   1.416   .     A
C1089  C668    1.401   1_565 S
C1091  H1092   1.082   .     S
C1091  N1100   1.367   .     A
C1091  C1163   1.416   .     S
C1093  H1094   1.082   .     S
C1093  N1095   1.367   .     A
C1093  C1231   1.416   1_455 S
N1095  C1096   1.366   .     A
C1096  H1097   1.080   .     S
C1096  C1238   1.416   1_455 S
C1098  N1100   1.367   .     A
C1098  H1099   1.082   .     S
C1098  C1166   1.416   .     S
N1101  O1102   1.301   .     A
N1101  O1103   1.301   .     A
C1104  O1106   1.397   .     S
C1104  O1105   1.223   .     D
O1106  H1107   1.014   .     S
C1108  O1109   1.223   .     D
C1108  O1110   1.400   .     S
O1110  H1111   1.014   .     S
N1112  O1113   1.301   .     A
N1112  O1114   1.300   .     A
N1115  O1117   1.301   .     A
N1115  O626    1.301   1_455 S
O1116  N555    1.301   1_556 S
N1118  O1120   1.301   .     A
N1118  O1119   1.302   .     A
O1121  Cu1127  1.959   .     S
O1121  C1123   1.288   .     A
O1122  C1123   1.290   .     A
O1122  Cu1128  1.959   .     S
C1123  C1160   1.450   .     S
O1124  Cu1127  1.943   .     S
O1124  C1126   1.295   .     A
O1125  Cu1128  1.934   .     S
O1125  C1126   1.295   .     A
C1126  C1150   1.471   .     S
Cu1127 O1129   1.959   .     S
Cu1127 Cu1128  2.676   .     S
Cu1127 O1131   1.934   .     S
Cu1127 N1165   2.011   .     S
Cu1128 O1132   1.943   .     S
Cu1128 N1170   2.011   .     S
Cu1128 O1130   1.959   .     S
O1129  C1133   1.288   .     A
O1130  C1133   1.288   .     A
O1131  C1134   1.292   .     A
O1132  C1134   1.295   .     A
C1133  C1157   1.443   .     S
C1134  C1138   1.463   .     S
C1135  C1149   1.394   .     A
H1136  C1149   1.083   .     S
H1137  C505    1.080   1_556 S
C1138  C1149   1.396   .     A
C1138  C1148   1.392   .     A
C1139  C1140   1.394   .     A
C1139  H1152   1.084   .     S
C1139  C1150   1.399   .     A
C1140  C511    1.412   1_556 S
C1140  N555    1.437   1_556 S
C1141  N1182   1.439   .     S
C1142  C1143   1.412   .     A
C1142  C511    1.430   1_556 S
C1142  C514    1.423   1_556 S
C1143  C1147   1.410   .     A
C1143  C1150   1.414   .     A
C1144  C1148   1.402   .     A
C1145  C1146   1.413   .     A
C1145  C505    1.414   1_556 S
C1145  C514    1.425   1_556 S
C1146  C1178   1.486   .     S
C1146  C1147   1.396   .     A
C1147  H1153   1.081   .     S
C1148  H1151   1.079   .     S
C1154  N1188   1.439   .     S
C1154  C1160   1.412   .     A
C1154  C735    1.387   1_565 S
C1155  C1157   1.394   .     A
C1155  H1156   1.085   .     S
C1157  C1158   1.407   .     A
C1158  N1171   1.437   .     S
C1159  C1174   1.484   .     S
C1159  C1160   1.416   .     A
C1159  C738    1.401   1_565 S
C1161  H1162   1.082   .     S
C1161  N1170   1.367   .     A
C1161  C1233   1.416   .     S
C1163  H1164   1.082   .     S
C1163  N1165   1.367   .     A
N1165  C1166   1.366   .     A
C1166  H1167   1.080   .     S
C1168  N1170   1.367   .     A
C1168  H1169   1.082   .     S
C1168  C1236   1.416   .     S
N1171  O1172   1.301   .     A
N1171  O1173   1.301   .     A
C1174  O1176   1.397   .     S
C1174  O1175   1.223   .     D
O1176  H1177   1.014   .     S
C1178  O1179   1.223   .     D
C1178  O1180   1.400   .     S
O1180  H1181   1.014   .     S
N1182  O1183   1.301   .     A
N1182  O1184   1.300   .     A
N1185  O1187   1.301   .     A
O1186  N625    1.301   1_556 S
N1188  O1190   1.301   .     A
N1188  O1189   1.302   .     A
O1191  Cu1197  1.959   .     S
O1191  C1193   1.288   .     A
O1192  C1193   1.290   .     A
O1192  Cu1198  1.959   .     S
C1193  C1230   1.450   .     S
O1194  Cu1197  1.943   .     S
O1194  C1196   1.295   .     A
O1195  Cu1198  1.934   .     S
O1195  C1196   1.295   .     A
C1196  C1220   1.471   .     S
Cu1197 O1199   1.959   .     S
Cu1197 Cu1198  2.676   .     S
Cu1197 O1201   1.934   .     S
Cu1197 N1235   2.011   .     S
Cu1198 O1202   1.943   .     S
Cu1198 N1240   2.011   .     S
Cu1198 O1200   1.959   .     S
O1199  C1203   1.288   .     A
O1200  C1203   1.288   .     A
O1201  C1204   1.292   .     A
O1202  C1204   1.295   .     A
C1203  C1227   1.443   .     S
C1204  C1208   1.463   .     S
C1205  C1219   1.394   .     A
H1206  C1219   1.083   .     S
H1207  C575    1.080   1_556 S
C1208  C1219   1.396   .     A
C1208  C1218   1.392   .     A
C1209  C1210   1.394   .     A
C1209  H1222   1.084   .     S
C1209  C1220   1.399   .     A
C1210  C581    1.412   1_556 S
C1210  N625    1.437   1_556 S
C1211  N1252   1.439   .     S
C1212  C1213   1.412   .     A
C1212  C581    1.430   1_556 S
C1212  C584    1.423   1_556 S
C1213  C1217   1.410   .     A
C1213  C1220   1.414   .     A
C1214  C1218   1.402   .     A
C1215  C1216   1.413   .     A
C1215  C575    1.414   1_556 S
C1215  C584    1.425   1_556 S
C1216  C1248   1.486   .     S
C1216  C1217   1.396   .     A
C1217  H1223   1.081   .     S
C1218  H1221   1.079   .     S
C1224  N1258   1.439   .     S
C1224  C1230   1.412   .     A
C1224  C805    1.387   1_565 S
C1225  C1227   1.394   .     A
C1225  H1226   1.085   .     S
C1227  C1228   1.407   .     A
C1228  N1241   1.437   .     S
C1229  C1244   1.484   .     S
C1229  C1230   1.416   .     A
C1229  C808    1.401   1_565 S
C1231  H1232   1.082   .     S
C1231  N1240   1.367   .     A
C1231  C1093   1.416   1_655 S
C1233  H1234   1.082   .     S
C1233  N1235   1.367   .     A
N1235  C1236   1.366   .     A
C1236  H1237   1.080   .     S
C1238  N1240   1.367   .     A
C1238  H1239   1.082   .     S
C1238  C1096   1.416   1_655 S
N1241  O1242   1.301   .     A
N1241  O1243   1.301   .     A
C1244  O1246   1.397   .     S
C1244  O1245   1.223   .     D
O1246  H1247   1.014   .     S
C1248  O1249   1.223   .     D
C1248  O1250   1.400   .     S
O1250  H1251   1.014   .     S
N1252  O1253   1.301   .     A
N1252  O1254   1.300   .     A
N1255  O1257   1.301   .     A
O1256  N485    1.301   1_656 S
N1258  O1260   1.301   .     A
N1258  O1259   1.302   .     A
