data_str_m3_o2_o10_pcu_sym.107
_audit_creation_date              2020-01-03
_audit_creation_method            'Materials Studio'
_symmetry_space_group_name_H-M    'P1'
_symmetry_Int_Tables_number       1
_symmetry_cell_setting            triclinic
loop_
_symmetry_equiv_pos_as_xyz
  x,y,z
_cell_length_a                    25.9498
_cell_length_b                    30.2899
_cell_length_c                    28.5016
_cell_angle_alpha                 89.9757
_cell_angle_beta                  96.6688
_cell_angle_gamma                 92.5672
loop_
_atom_site_label
_atom_site_type_symbol
_atom_site_fract_x
_atom_site_fract_y
_atom_site_fract_z
_atom_site_U_iso_or_equiv
_atom_site_adp_type
_atom_site_occupancy
C1     C     0.16856   0.16361   0.25019   0.00000  Uiso   1.00
C2     C     0.14248   0.21507   0.44415   0.00000  Uiso   1.00
C3     C     0.16538   0.25001   0.02636   0.00000  Uiso   1.00
C4     C     0.16560   0.25020   0.47305   0.00000  Uiso   1.00
C5     C     0.06788   0.25252   0.23855   0.00000  Uiso   1.00
C6     C     0.26580   0.24801   0.26155   0.00000  Uiso   1.00
C7     C     0.01505   0.26206   0.23577   0.00000  Uiso   1.00
C8     C     0.31923   0.23892   0.26489   0.00000  Uiso   1.00
C9     C     0.19143   0.04719   0.29433   0.00000  Uiso   1.00
C10    C     0.21088   0.45211   0.22080   0.00000  Uiso   1.00
C11    C     0.18095   0.09165   0.29469   0.00000  Uiso   1.00
C12    C     0.16844   0.33614   0.25025   0.00000  Uiso   1.00
C13    C     0.20391   0.40648   0.21829   0.00000  Uiso   1.00
C14    C     0.17757   0.11568   0.25101   0.00000  Uiso   1.00
C15    C     0.17400   0.38424   0.25099   0.00000  Uiso   1.00
C16    C     0.18589   0.09276   0.20848   0.00000  Uiso   1.00
C17    C     0.15119   0.40910   0.28516   0.00000  Uiso   1.00
C18    C     0.18903   0.04706   0.20977   0.00000  Uiso   1.00
C19    C     0.15595   0.45486   0.28341   0.00000  Uiso   1.00
C20    C     0.19077   0.02437   0.25219   0.00000  Uiso   1.00
C21    C     0.18651   0.47626   0.25244   0.00000  Uiso   1.00
C22    C     0.33020   0.30350   0.20890   0.00000  Uiso   1.00
C23    C     0.12250   0.23255   0.04744   0.00000  Uiso   1.00
C24    C     0.03763   0.33268   0.18717   0.00000  Uiso   1.00
C25    C     0.00570   0.19991   0.29567   0.00000  Uiso   1.00
C26    C     0.29792   0.16465   0.30592   0.00000  Uiso   1.00
C27    C     0.16817   0.10861   0.34208   0.00000  Uiso   1.00
C28    C     0.10938   0.10805   0.34280   0.00000  Uiso   1.00
C29    C     0.23066   0.38410   0.18067   0.00000  Uiso   1.00
C30    C     0.19708   0.38389   0.13295   0.00000  Uiso   1.00
C31    C     0.19171   0.11392   0.16067   0.00000  Uiso   1.00
C32    C     0.24453   0.13847   0.16030   0.00000  Uiso   1.00
C33    C     0.12277   0.38978   0.32507   0.00000  Uiso   1.00
C34    C     0.18922   0.28568   0.45038   0.00000  Uiso   1.00
C35    C     0.06900   0.36946   0.30813   0.00000  Uiso   1.00
C36    C     0.04344   0.25235   0.49762   0.00000  Uiso   1.00
C37    C     0.16373   0.35615   0.47724   0.00000  Uiso   1.00
C38    C     0.08486   0.19931   0.11752   0.00000  Uiso   1.00
C39    C     0.03068   0.21839   0.11358   0.00000  Uiso   1.00
C40    C     0.23629   0.31204   0.38248   0.00000  Uiso   1.00
C41    C     0.29081   0.29779   0.40053   0.00000  Uiso   1.00
C42    C     0.12551   0.22932   0.09752   0.00000  Uiso   1.00
C43    C     0.19507   0.28220   0.40153   0.00000  Uiso   1.00
C44    C     0.20687   0.26900   0.10582   0.00000  Uiso   1.00
C45    C     0.14010   0.21744   0.39474   0.00000  Uiso   1.00
C46    C     0.20832   0.26721   0.05680   0.00000  Uiso   1.00
H47    H     0.19552   0.02901   0.32723   0.00000  Uiso   1.00
H48    H     0.05396   0.31529   0.15853   0.00000  Uiso   1.00
H49    H     0.01903   0.36241   0.17147   0.00000  Uiso   1.00
H50    H     0.30166   0.29311   0.17928   0.00000  Uiso   1.00
H51    H     0.31204   0.32470   0.23358   0.00000  Uiso   1.00
H52    H     0.27094   0.17762   0.32944   0.00000  Uiso   1.00
H53    H     0.27641   0.15226   0.27237   0.00000  Uiso   1.00
H54    H     0.31722   0.13639   0.32425   0.00000  Uiso   1.00
H55    H     0.03403   0.18194   0.27738   0.00000  Uiso   1.00
H56    H     0.02550   0.21290   0.32986   0.00000  Uiso   1.00
H57    H     0.10019   0.11692   0.37859   0.00000  Uiso   1.00
H58    H     0.23537   0.46895   0.19747   0.00000  Uiso   1.00
H59    H     0.09156   0.13165   0.31672   0.00000  Uiso   1.00
H60    H     0.09204   0.07442   0.33409   0.00000  Uiso   1.00
H61    H     0.18367   0.08676   0.37128   0.00000  Uiso   1.00
H62    H     0.18764   0.14085   0.35261   0.00000  Uiso   1.00
H63    H     0.15963   0.36520   0.13503   0.00000  Uiso   1.00
H64    H     0.18907   0.41825   0.12161   0.00000  Uiso   1.00
H65    H     0.21784   0.36809   0.10593   0.00000  Uiso   1.00
H66    H     0.26830   0.40194   0.17673   0.00000  Uiso   1.00
H67    H     0.24133   0.35030   0.19036   0.00000  Uiso   1.00
H68    H     0.25140   0.16428   0.18808   0.00000  Uiso   1.00
H69    H     0.18936   0.02885   0.17712   0.00000  Uiso   1.00
H70    H     0.27607   0.11477   0.16608   0.00000  Uiso   1.00
H71    H     0.24650   0.15454   0.12549   0.00000  Uiso   1.00
H72    H     0.18927   0.08845   0.13232   0.00000  Uiso   1.00
H73    H     0.15909   0.13494   0.14880   0.00000  Uiso   1.00
H74    H     0.07201   0.33612   0.29329   0.00000  Uiso   1.00
H75    H     0.04608   0.36573   0.33855   0.00000  Uiso   1.00
H76    H     0.04792   0.39096   0.28150   0.00000  Uiso   1.00
H77    H     0.14653   0.36593   0.34642   0.00000  Uiso   1.00
H78    H     0.11706   0.41608   0.35096   0.00000  Uiso   1.00
H79    H     0.05831   0.18838   0.02455   0.00000  Uiso   1.00
H80    H     0.13544   0.47414   0.30666   0.00000  Uiso   1.00
H81    H     0.06084   0.28605   0.00578   0.00000  Uiso   1.00
H82    H     0.03756   0.24783   0.45872   0.00000  Uiso   1.00
H83    H     0.00507   0.24959   0.01125   0.00000  Uiso   1.00
H84    H     0.23954   0.34056   0.47043   0.00000  Uiso   1.00
H85    H     0.17804   0.38472   0.00029   0.00000  Uiso   1.00
H86    H     0.12981   0.34006   0.49184   0.00000  Uiso   1.00
H87    H     0.15154   0.36838   0.44106   0.00000  Uiso   1.00
H88    H     0.03287   0.25490   0.11099   0.00000  Uiso   1.00
H89    H     0.00579   0.20482   0.08220   0.00000  Uiso   1.00
H90    H     0.01104   0.20886   0.14494   0.00000  Uiso   1.00
H91    H     0.23854   0.28511   0.12741   0.00000  Uiso   1.00
H92    H     0.08218   0.16686   0.09906   0.00000  Uiso   1.00
H93    H     0.09668   0.19010   0.15404   0.00000  Uiso   1.00
H94    H     0.29796   0.29958   0.43956   0.00000  Uiso   1.00
H95    H     0.29593   0.26335   0.38912   0.00000  Uiso   1.00
H96    H     0.32021   0.31981   0.38579   0.00000  Uiso   1.00
H97    H     0.23436   0.31154   0.34431   0.00000  Uiso   1.00
H98    H     0.23171   0.34711   0.39180   0.00000  Uiso   1.00
H99    H     0.11839   0.19241   0.37308   0.00000  Uiso   1.00
H100   H     0.24316   0.27978   0.04296   0.00000  Uiso   1.00
H101   H     0.12531   0.18600   0.45925   0.00000  Uiso   1.00
H102   H     0.06934   0.34405   0.21405   0.00000  Uiso   1.00
N103   N     0.16667   0.24999   0.12623   0.00000  Uiso   1.00
N104   N     0.16667   0.25001   0.37376   0.00000  Uiso   1.00
N105   N     0.07638   0.21837   0.01819   0.00000  Uiso   1.00
N106   N     0.20461   0.32540   0.47623   0.00000  Uiso   1.00
O107   O     0.16667   0.18454   0.28974   0.00000  Uiso   1.00
O108   O     0.16666   0.31547   0.21026   0.00000  Uiso   1.00
O109   O     0.16667   0.18453   0.21026   0.00000  Uiso   1.00
O110   O     0.16666   0.31547   0.28974   0.00000  Uiso   1.00
O111   O     0.09058   0.25000   0.28044   0.00000  Uiso   1.00
O112   O     0.24275   0.25000   0.21955   0.00000  Uiso   1.00
O113   O     0.09058   0.24999   0.20096   0.00000  Uiso   1.00
O114   O     0.24275   0.25001   0.29903   0.00000  Uiso   1.00
Zn115  Zn    0.16667   0.25001   0.30307   0.00000  Uiso   1.00
Zn116  Zn    0.16667   0.25000   0.19693   0.00000  Uiso   1.00
C117   C     0.50189   0.16361   0.25019   0.00000  Uiso   1.00
C118   C     0.47581   0.21507   0.44415   0.00000  Uiso   1.00
C119   C     0.49871   0.25001   0.02636   0.00000  Uiso   1.00
C120   C     0.49893   0.25020   0.47305   0.00000  Uiso   1.00
C121   C     0.40121   0.25252   0.23855   0.00000  Uiso   1.00
C122   C     0.59913   0.24801   0.26155   0.00000  Uiso   1.00
C123   C     0.34839   0.26206   0.23577   0.00000  Uiso   1.00
C124   C     0.65256   0.23892   0.26489   0.00000  Uiso   1.00
C125   C     0.52477   0.04719   0.29433   0.00000  Uiso   1.00
C126   C     0.54421   0.45211   0.22080   0.00000  Uiso   1.00
C127   C     0.51428   0.09165   0.29469   0.00000  Uiso   1.00
C128   C     0.50177   0.33614   0.25025   0.00000  Uiso   1.00
C129   C     0.53724   0.40648   0.21829   0.00000  Uiso   1.00
C130   C     0.51091   0.11568   0.25101   0.00000  Uiso   1.00
C131   C     0.50733   0.38424   0.25099   0.00000  Uiso   1.00
C132   C     0.51922   0.09276   0.20848   0.00000  Uiso   1.00
C133   C     0.48452   0.40910   0.28516   0.00000  Uiso   1.00
C134   C     0.52236   0.04706   0.20977   0.00000  Uiso   1.00
C135   C     0.48929   0.45486   0.28341   0.00000  Uiso   1.00
C136   C     0.52410   0.02437   0.25219   0.00000  Uiso   1.00
C137   C     0.51985   0.47626   0.25244   0.00000  Uiso   1.00
C138   C     0.66353   0.30350   0.20890   0.00000  Uiso   1.00
C139   C     0.45583   0.23255   0.04744   0.00000  Uiso   1.00
C140   C     0.37096   0.33268   0.18717   0.00000  Uiso   1.00
C141   C     0.33903   0.19991   0.29567   0.00000  Uiso   1.00
C142   C     0.63126   0.16465   0.30592   0.00000  Uiso   1.00
C143   C     0.50151   0.10861   0.34208   0.00000  Uiso   1.00
C144   C     0.44271   0.10805   0.34280   0.00000  Uiso   1.00
C145   C     0.56399   0.38410   0.18067   0.00000  Uiso   1.00
C146   C     0.53041   0.38389   0.13295   0.00000  Uiso   1.00
C147   C     0.52505   0.11392   0.16067   0.00000  Uiso   1.00
C148   C     0.57786   0.13847   0.16030   0.00000  Uiso   1.00
C149   C     0.45611   0.38978   0.32507   0.00000  Uiso   1.00
C150   C     0.52255   0.28568   0.45038   0.00000  Uiso   1.00
C151   C     0.40234   0.36946   0.30813   0.00000  Uiso   1.00
C152   C     0.37678   0.25235   0.49762   0.00000  Uiso   1.00
C153   C     0.49706   0.35615   0.47724   0.00000  Uiso   1.00
C154   C     0.41820   0.19931   0.11752   0.00000  Uiso   1.00
C155   C     0.36401   0.21839   0.11358   0.00000  Uiso   1.00
C156   C     0.56962   0.31204   0.38248   0.00000  Uiso   1.00
C157   C     0.62414   0.29779   0.40053   0.00000  Uiso   1.00
C158   C     0.45885   0.22932   0.09752   0.00000  Uiso   1.00
C159   C     0.52840   0.28220   0.40153   0.00000  Uiso   1.00
C160   C     0.54020   0.26900   0.10582   0.00000  Uiso   1.00
C161   C     0.47343   0.21744   0.39474   0.00000  Uiso   1.00
C162   C     0.54165   0.26721   0.05680   0.00000  Uiso   1.00
H163   H     0.52885   0.02901   0.32723   0.00000  Uiso   1.00
H164   H     0.38729   0.31529   0.15853   0.00000  Uiso   1.00
H165   H     0.35236   0.36241   0.17147   0.00000  Uiso   1.00
H166   H     0.63499   0.29311   0.17928   0.00000  Uiso   1.00
H167   H     0.64537   0.32470   0.23358   0.00000  Uiso   1.00
H168   H     0.60427   0.17762   0.32944   0.00000  Uiso   1.00
H169   H     0.60975   0.15226   0.27237   0.00000  Uiso   1.00
H170   H     0.65055   0.13639   0.32425   0.00000  Uiso   1.00
H171   H     0.36736   0.18194   0.27738   0.00000  Uiso   1.00
H172   H     0.35883   0.21290   0.32986   0.00000  Uiso   1.00
H173   H     0.43353   0.11692   0.37859   0.00000  Uiso   1.00
H174   H     0.56870   0.46895   0.19747   0.00000  Uiso   1.00
H175   H     0.42489   0.13165   0.31672   0.00000  Uiso   1.00
H176   H     0.42538   0.07442   0.33409   0.00000  Uiso   1.00
H177   H     0.51700   0.08676   0.37128   0.00000  Uiso   1.00
H178   H     0.52098   0.14085   0.35261   0.00000  Uiso   1.00
H179   H     0.49296   0.36520   0.13503   0.00000  Uiso   1.00
H180   H     0.52241   0.41825   0.12161   0.00000  Uiso   1.00
H181   H     0.55117   0.36809   0.10593   0.00000  Uiso   1.00
H182   H     0.60164   0.40194   0.17673   0.00000  Uiso   1.00
H183   H     0.57466   0.35030   0.19036   0.00000  Uiso   1.00
H184   H     0.58473   0.16428   0.18808   0.00000  Uiso   1.00
H185   H     0.52270   0.02885   0.17712   0.00000  Uiso   1.00
H186   H     0.60941   0.11477   0.16608   0.00000  Uiso   1.00
H187   H     0.57983   0.15454   0.12549   0.00000  Uiso   1.00
H188   H     0.52260   0.08845   0.13232   0.00000  Uiso   1.00
H189   H     0.49243   0.13494   0.14880   0.00000  Uiso   1.00
H190   H     0.40534   0.33612   0.29329   0.00000  Uiso   1.00
H191   H     0.37941   0.36573   0.33855   0.00000  Uiso   1.00
H192   H     0.38126   0.39096   0.28150   0.00000  Uiso   1.00
H193   H     0.47986   0.36593   0.34642   0.00000  Uiso   1.00
H194   H     0.45039   0.41608   0.35096   0.00000  Uiso   1.00
H195   H     0.39164   0.18838   0.02455   0.00000  Uiso   1.00
H196   H     0.46877   0.47414   0.30666   0.00000  Uiso   1.00
H197   H     0.39418   0.28605   0.00578   0.00000  Uiso   1.00
H198   H     0.37090   0.24783   0.45872   0.00000  Uiso   1.00
H199   H     0.33840   0.24959   0.01125   0.00000  Uiso   1.00
H200   H     0.57287   0.34056   0.47043   0.00000  Uiso   1.00
H201   H     0.51137   0.38472   0.00029   0.00000  Uiso   1.00
H202   H     0.46314   0.34006   0.49184   0.00000  Uiso   1.00
H203   H     0.48487   0.36838   0.44106   0.00000  Uiso   1.00
H204   H     0.36621   0.25490   0.11099   0.00000  Uiso   1.00
H205   H     0.33912   0.20482   0.08220   0.00000  Uiso   1.00
H206   H     0.34438   0.20886   0.14494   0.00000  Uiso   1.00
H207   H     0.57187   0.28511   0.12741   0.00000  Uiso   1.00
H208   H     0.41551   0.16686   0.09906   0.00000  Uiso   1.00
H209   H     0.43002   0.19010   0.15404   0.00000  Uiso   1.00
H210   H     0.63129   0.29958   0.43956   0.00000  Uiso   1.00
H211   H     0.62927   0.26335   0.38912   0.00000  Uiso   1.00
H212   H     0.65354   0.31981   0.38579   0.00000  Uiso   1.00
H213   H     0.56770   0.31154   0.34431   0.00000  Uiso   1.00
H214   H     0.56504   0.34711   0.39180   0.00000  Uiso   1.00
H215   H     0.45172   0.19241   0.37308   0.00000  Uiso   1.00
H216   H     0.57649   0.27978   0.04296   0.00000  Uiso   1.00
H217   H     0.45865   0.18600   0.45925   0.00000  Uiso   1.00
H218   H     0.40268   0.34405   0.21405   0.00000  Uiso   1.00
N219   N     0.50000   0.24999   0.12623   0.00000  Uiso   1.00
N220   N     0.50000   0.25001   0.37376   0.00000  Uiso   1.00
N221   N     0.40971   0.21837   0.01819   0.00000  Uiso   1.00
N222   N     0.53794   0.32540   0.47623   0.00000  Uiso   1.00
O223   O     0.50000   0.18454   0.28974   0.00000  Uiso   1.00
O224   O     0.50000   0.31547   0.21026   0.00000  Uiso   1.00
O225   O     0.50000   0.18453   0.21026   0.00000  Uiso   1.00
O226   O     0.50000   0.31547   0.28974   0.00000  Uiso   1.00
O227   O     0.42392   0.25000   0.28044   0.00000  Uiso   1.00
O228   O     0.57608   0.25000   0.21955   0.00000  Uiso   1.00
O229   O     0.42392   0.24999   0.20096   0.00000  Uiso   1.00
O230   O     0.57608   0.25001   0.29903   0.00000  Uiso   1.00
Zn231  Zn    0.50000   0.25001   0.30307   0.00000  Uiso   1.00
Zn232  Zn    0.50000   0.25000   0.19693   0.00000  Uiso   1.00
C233   C     0.83523   0.16361   0.25019   0.00000  Uiso   1.00
C234   C     0.80914   0.21507   0.44415   0.00000  Uiso   1.00
C235   C     0.83204   0.25001   0.02636   0.00000  Uiso   1.00
C236   C     0.83227   0.25020   0.47305   0.00000  Uiso   1.00
C237   C     0.73455   0.25252   0.23855   0.00000  Uiso   1.00
C238   C     0.93247   0.24801   0.26155   0.00000  Uiso   1.00
C239   C     0.68172   0.26206   0.23577   0.00000  Uiso   1.00
C240   C     0.98590   0.23892   0.26489   0.00000  Uiso   1.00
C241   C     0.85810   0.04719   0.29433   0.00000  Uiso   1.00
C242   C     0.87754   0.45211   0.22080   0.00000  Uiso   1.00
C243   C     0.84762   0.09165   0.29469   0.00000  Uiso   1.00
C244   C     0.83511   0.33614   0.25025   0.00000  Uiso   1.00
C245   C     0.87058   0.40648   0.21829   0.00000  Uiso   1.00
C246   C     0.84424   0.11568   0.25101   0.00000  Uiso   1.00
C247   C     0.84066   0.38424   0.25099   0.00000  Uiso   1.00
C248   C     0.85255   0.09276   0.20848   0.00000  Uiso   1.00
C249   C     0.81785   0.40910   0.28516   0.00000  Uiso   1.00
C250   C     0.85570   0.04706   0.20977   0.00000  Uiso   1.00
C251   C     0.82262   0.45486   0.28341   0.00000  Uiso   1.00
C252   C     0.85743   0.02437   0.25219   0.00000  Uiso   1.00
C253   C     0.85318   0.47626   0.25244   0.00000  Uiso   1.00
C254   C     0.99687   0.30350   0.20890   0.00000  Uiso   1.00
C255   C     0.78917   0.23255   0.04744   0.00000  Uiso   1.00
C256   C     0.70429   0.33268   0.18717   0.00000  Uiso   1.00
C257   C     0.67236   0.19991   0.29567   0.00000  Uiso   1.00
C258   C     0.96459   0.16465   0.30592   0.00000  Uiso   1.00
C259   C     0.83484   0.10861   0.34208   0.00000  Uiso   1.00
C260   C     0.77604   0.10805   0.34280   0.00000  Uiso   1.00
C261   C     0.89733   0.38410   0.18067   0.00000  Uiso   1.00
C262   C     0.86374   0.38389   0.13295   0.00000  Uiso   1.00
C263   C     0.85838   0.11392   0.16067   0.00000  Uiso   1.00
C264   C     0.91119   0.13847   0.16030   0.00000  Uiso   1.00
C265   C     0.78944   0.38978   0.32507   0.00000  Uiso   1.00
C266   C     0.85589   0.28568   0.45038   0.00000  Uiso   1.00
C267   C     0.73567   0.36946   0.30813   0.00000  Uiso   1.00
C268   C     0.71011   0.25235   0.49762   0.00000  Uiso   1.00
C269   C     0.83040   0.35615   0.47724   0.00000  Uiso   1.00
C270   C     0.75153   0.19931   0.11752   0.00000  Uiso   1.00
C271   C     0.69734   0.21839   0.11358   0.00000  Uiso   1.00
C272   C     0.90296   0.31204   0.38248   0.00000  Uiso   1.00
C273   C     0.95747   0.29779   0.40053   0.00000  Uiso   1.00
C274   C     0.79218   0.22932   0.09752   0.00000  Uiso   1.00
C275   C     0.86174   0.28220   0.40153   0.00000  Uiso   1.00
C276   C     0.87354   0.26900   0.10582   0.00000  Uiso   1.00
C277   C     0.80677   0.21744   0.39474   0.00000  Uiso   1.00
C278   C     0.87498   0.26721   0.05680   0.00000  Uiso   1.00
H279   H     0.86219   0.02901   0.32723   0.00000  Uiso   1.00
H280   H     0.72062   0.31529   0.15853   0.00000  Uiso   1.00
H281   H     0.68569   0.36241   0.17147   0.00000  Uiso   1.00
H282   H     0.96832   0.29311   0.17928   0.00000  Uiso   1.00
H283   H     0.97870   0.32470   0.23358   0.00000  Uiso   1.00
H284   H     0.93761   0.17762   0.32944   0.00000  Uiso   1.00
H285   H     0.94308   0.15226   0.27237   0.00000  Uiso   1.00
H286   H     0.98388   0.13639   0.32425   0.00000  Uiso   1.00
H287   H     0.70069   0.18194   0.27738   0.00000  Uiso   1.00
H288   H     0.69216   0.21290   0.32986   0.00000  Uiso   1.00
H289   H     0.76686   0.11692   0.37859   0.00000  Uiso   1.00
H290   H     0.90203   0.46895   0.19747   0.00000  Uiso   1.00
H291   H     0.75823   0.13165   0.31672   0.00000  Uiso   1.00
H292   H     0.75871   0.07442   0.33409   0.00000  Uiso   1.00
H293   H     0.85034   0.08676   0.37128   0.00000  Uiso   1.00
H294   H     0.85431   0.14085   0.35261   0.00000  Uiso   1.00
H295   H     0.82629   0.36520   0.13503   0.00000  Uiso   1.00
H296   H     0.85574   0.41825   0.12161   0.00000  Uiso   1.00
H297   H     0.88451   0.36809   0.10593   0.00000  Uiso   1.00
H298   H     0.93497   0.40194   0.17673   0.00000  Uiso   1.00
H299   H     0.90800   0.35030   0.19036   0.00000  Uiso   1.00
H300   H     0.91807   0.16428   0.18808   0.00000  Uiso   1.00
H301   H     0.85603   0.02885   0.17712   0.00000  Uiso   1.00
H302   H     0.94274   0.11477   0.16608   0.00000  Uiso   1.00
H303   H     0.91316   0.15454   0.12549   0.00000  Uiso   1.00
H304   H     0.85593   0.08845   0.13232   0.00000  Uiso   1.00
H305   H     0.82576   0.13494   0.14880   0.00000  Uiso   1.00
H306   H     0.73867   0.33612   0.29329   0.00000  Uiso   1.00
H307   H     0.71275   0.36573   0.33855   0.00000  Uiso   1.00
H308   H     0.71459   0.39096   0.28150   0.00000  Uiso   1.00
H309   H     0.81319   0.36593   0.34642   0.00000  Uiso   1.00
H310   H     0.78372   0.41608   0.35096   0.00000  Uiso   1.00
H311   H     0.72498   0.18838   0.02455   0.00000  Uiso   1.00
H312   H     0.80210   0.47414   0.30666   0.00000  Uiso   1.00
H313   H     0.72751   0.28605   0.00578   0.00000  Uiso   1.00
H314   H     0.70423   0.24783   0.45872   0.00000  Uiso   1.00
H315   H     0.67174   0.24959   0.01125   0.00000  Uiso   1.00
H316   H     0.90621   0.34056   0.47043   0.00000  Uiso   1.00
H317   H     0.84471   0.38472   0.00029   0.00000  Uiso   1.00
H318   H     0.79647   0.34006   0.49184   0.00000  Uiso   1.00
H319   H     0.81821   0.36838   0.44106   0.00000  Uiso   1.00
H320   H     0.69954   0.25490   0.11099   0.00000  Uiso   1.00
H321   H     0.67245   0.20482   0.08220   0.00000  Uiso   1.00
H322   H     0.67771   0.20886   0.14494   0.00000  Uiso   1.00
H323   H     0.90521   0.28511   0.12741   0.00000  Uiso   1.00
H324   H     0.74885   0.16686   0.09906   0.00000  Uiso   1.00
H325   H     0.76335   0.19010   0.15404   0.00000  Uiso   1.00
H326   H     0.96463   0.29958   0.43956   0.00000  Uiso   1.00
H327   H     0.96260   0.26335   0.38912   0.00000  Uiso   1.00
H328   H     0.98687   0.31981   0.38579   0.00000  Uiso   1.00
H329   H     0.90103   0.31154   0.34431   0.00000  Uiso   1.00
H330   H     0.89837   0.34711   0.39180   0.00000  Uiso   1.00
H331   H     0.78505   0.19241   0.37308   0.00000  Uiso   1.00
H332   H     0.90982   0.27978   0.04296   0.00000  Uiso   1.00
H333   H     0.79198   0.18600   0.45925   0.00000  Uiso   1.00
H334   H     0.73601   0.34405   0.21405   0.00000  Uiso   1.00
N335   N     0.83333   0.24999   0.12623   0.00000  Uiso   1.00
N336   N     0.83333   0.25001   0.37376   0.00000  Uiso   1.00
N337   N     0.74304   0.21837   0.01819   0.00000  Uiso   1.00
N338   N     0.87127   0.32540   0.47623   0.00000  Uiso   1.00
O339   O     0.83334   0.18454   0.28974   0.00000  Uiso   1.00
O340   O     0.83333   0.31547   0.21026   0.00000  Uiso   1.00
O341   O     0.83334   0.18453   0.21026   0.00000  Uiso   1.00
O342   O     0.83333   0.31547   0.28974   0.00000  Uiso   1.00
O343   O     0.75725   0.25000   0.28044   0.00000  Uiso   1.00
O344   O     0.90942   0.25000   0.21955   0.00000  Uiso   1.00
O345   O     0.75725   0.24999   0.20096   0.00000  Uiso   1.00
O346   O     0.90942   0.25001   0.29903   0.00000  Uiso   1.00
Zn347  Zn    0.83333   0.25001   0.30307   0.00000  Uiso   1.00
Zn348  Zn    0.83333   0.25000   0.19693   0.00000  Uiso   1.00
C349   C     0.16856   0.66361   0.25019   0.00000  Uiso   1.00
C350   C     0.14248   0.71507   0.44415   0.00000  Uiso   1.00
C351   C     0.16538   0.75001   0.02636   0.00000  Uiso   1.00
C352   C     0.16560   0.75020   0.47305   0.00000  Uiso   1.00
C353   C     0.06788   0.75252   0.23855   0.00000  Uiso   1.00
C354   C     0.26580   0.74801   0.26155   0.00000  Uiso   1.00
C355   C     0.01505   0.76206   0.23577   0.00000  Uiso   1.00
C356   C     0.31923   0.73892   0.26489   0.00000  Uiso   1.00
C357   C     0.19143   0.54719   0.29433   0.00000  Uiso   1.00
C358   C     0.21088   0.95211   0.22080   0.00000  Uiso   1.00
C359   C     0.18095   0.59165   0.29469   0.00000  Uiso   1.00
C360   C     0.16844   0.83614   0.25025   0.00000  Uiso   1.00
C361   C     0.20391   0.90648   0.21829   0.00000  Uiso   1.00
C362   C     0.17757   0.61568   0.25101   0.00000  Uiso   1.00
C363   C     0.17400   0.88424   0.25099   0.00000  Uiso   1.00
C364   C     0.18589   0.59276   0.20848   0.00000  Uiso   1.00
C365   C     0.15119   0.90910   0.28516   0.00000  Uiso   1.00
C366   C     0.18903   0.54706   0.20977   0.00000  Uiso   1.00
C367   C     0.15595   0.95486   0.28341   0.00000  Uiso   1.00
C368   C     0.19077   0.52437   0.25219   0.00000  Uiso   1.00
C369   C     0.18651   0.97626   0.25244   0.00000  Uiso   1.00
C370   C     0.33020   0.80350   0.20890   0.00000  Uiso   1.00
C371   C     0.12250   0.73255   0.04744   0.00000  Uiso   1.00
C372   C     0.03763   0.83268   0.18717   0.00000  Uiso   1.00
C373   C     0.00570   0.69991   0.29567   0.00000  Uiso   1.00
C374   C     0.29792   0.66465   0.30592   0.00000  Uiso   1.00
C375   C     0.16817   0.60861   0.34208   0.00000  Uiso   1.00
C376   C     0.10938   0.60805   0.34280   0.00000  Uiso   1.00
C377   C     0.23066   0.88410   0.18067   0.00000  Uiso   1.00
C378   C     0.19708   0.88389   0.13295   0.00000  Uiso   1.00
C379   C     0.19171   0.61392   0.16067   0.00000  Uiso   1.00
C380   C     0.24453   0.63847   0.16030   0.00000  Uiso   1.00
C381   C     0.12277   0.88978   0.32507   0.00000  Uiso   1.00
C382   C     0.18922   0.78568   0.45038   0.00000  Uiso   1.00
C383   C     0.06900   0.86946   0.30813   0.00000  Uiso   1.00
C384   C     0.04344   0.75235   0.49762   0.00000  Uiso   1.00
C385   C     0.16373   0.85615   0.47724   0.00000  Uiso   1.00
C386   C     0.08486   0.69931   0.11752   0.00000  Uiso   1.00
C387   C     0.03068   0.71839   0.11358   0.00000  Uiso   1.00
C388   C     0.23629   0.81204   0.38248   0.00000  Uiso   1.00
C389   C     0.29081   0.79779   0.40053   0.00000  Uiso   1.00
C390   C     0.12551   0.72932   0.09752   0.00000  Uiso   1.00
C391   C     0.19507   0.78220   0.40153   0.00000  Uiso   1.00
C392   C     0.20687   0.76900   0.10582   0.00000  Uiso   1.00
C393   C     0.14010   0.71744   0.39474   0.00000  Uiso   1.00
C394   C     0.20832   0.76721   0.05680   0.00000  Uiso   1.00
H395   H     0.19552   0.52901   0.32723   0.00000  Uiso   1.00
H396   H     0.05396   0.81529   0.15853   0.00000  Uiso   1.00
H397   H     0.01903   0.86241   0.17147   0.00000  Uiso   1.00
H398   H     0.30166   0.79311   0.17928   0.00000  Uiso   1.00
H399   H     0.31204   0.82470   0.23358   0.00000  Uiso   1.00
H400   H     0.27094   0.67762   0.32944   0.00000  Uiso   1.00
H401   H     0.27641   0.65226   0.27237   0.00000  Uiso   1.00
H402   H     0.31722   0.63639   0.32425   0.00000  Uiso   1.00
H403   H     0.03403   0.68194   0.27738   0.00000  Uiso   1.00
H404   H     0.02550   0.71290   0.32986   0.00000  Uiso   1.00
H405   H     0.10019   0.61692   0.37859   0.00000  Uiso   1.00
H406   H     0.23537   0.96895   0.19747   0.00000  Uiso   1.00
H407   H     0.09156   0.63165   0.31672   0.00000  Uiso   1.00
H408   H     0.09204   0.57442   0.33409   0.00000  Uiso   1.00
H409   H     0.18367   0.58676   0.37128   0.00000  Uiso   1.00
H410   H     0.18764   0.64085   0.35261   0.00000  Uiso   1.00
H411   H     0.15963   0.86520   0.13503   0.00000  Uiso   1.00
H412   H     0.18907   0.91825   0.12161   0.00000  Uiso   1.00
H413   H     0.21784   0.86809   0.10593   0.00000  Uiso   1.00
H414   H     0.26830   0.90194   0.17673   0.00000  Uiso   1.00
H415   H     0.24133   0.85030   0.19036   0.00000  Uiso   1.00
H416   H     0.25140   0.66428   0.18808   0.00000  Uiso   1.00
H417   H     0.18936   0.52885   0.17712   0.00000  Uiso   1.00
H418   H     0.27607   0.61477   0.16608   0.00000  Uiso   1.00
H419   H     0.24650   0.65454   0.12549   0.00000  Uiso   1.00
H420   H     0.18927   0.58845   0.13232   0.00000  Uiso   1.00
H421   H     0.15909   0.63494   0.14880   0.00000  Uiso   1.00
H422   H     0.07201   0.83612   0.29329   0.00000  Uiso   1.00
H423   H     0.04608   0.86573   0.33855   0.00000  Uiso   1.00
H424   H     0.04792   0.89096   0.28150   0.00000  Uiso   1.00
H425   H     0.14653   0.86593   0.34642   0.00000  Uiso   1.00
H426   H     0.11706   0.91608   0.35096   0.00000  Uiso   1.00
H427   H     0.05831   0.68838   0.02455   0.00000  Uiso   1.00
H428   H     0.13544   0.97414   0.30666   0.00000  Uiso   1.00
H429   H     0.06084   0.78605   0.00578   0.00000  Uiso   1.00
H430   H     0.03756   0.74783   0.45872   0.00000  Uiso   1.00
H431   H     0.00507   0.74959   0.01125   0.00000  Uiso   1.00
H432   H     0.23954   0.84056   0.47043   0.00000  Uiso   1.00
H433   H     0.17804   0.88472   0.00029   0.00000  Uiso   1.00
H434   H     0.12981   0.84006   0.49184   0.00000  Uiso   1.00
H435   H     0.15154   0.86838   0.44106   0.00000  Uiso   1.00
H436   H     0.03287   0.75490   0.11099   0.00000  Uiso   1.00
H437   H     0.00579   0.70482   0.08220   0.00000  Uiso   1.00
H438   H     0.01104   0.70886   0.14494   0.00000  Uiso   1.00
H439   H     0.23854   0.78511   0.12741   0.00000  Uiso   1.00
H440   H     0.08218   0.66686   0.09906   0.00000  Uiso   1.00
H441   H     0.09668   0.69010   0.15404   0.00000  Uiso   1.00
H442   H     0.29796   0.79958   0.43956   0.00000  Uiso   1.00
H443   H     0.29593   0.76335   0.38912   0.00000  Uiso   1.00
H444   H     0.32021   0.81981   0.38579   0.00000  Uiso   1.00
H445   H     0.23436   0.81154   0.34431   0.00000  Uiso   1.00
H446   H     0.23171   0.84711   0.39180   0.00000  Uiso   1.00
H447   H     0.11839   0.69241   0.37308   0.00000  Uiso   1.00
H448   H     0.24316   0.77978   0.04296   0.00000  Uiso   1.00
H449   H     0.12531   0.68600   0.45925   0.00000  Uiso   1.00
H450   H     0.06934   0.84405   0.21405   0.00000  Uiso   1.00
N451   N     0.16667   0.74999   0.12623   0.00000  Uiso   1.00
N452   N     0.16667   0.75001   0.37376   0.00000  Uiso   1.00
N453   N     0.07638   0.71837   0.01819   0.00000  Uiso   1.00
N454   N     0.20461   0.82540   0.47623   0.00000  Uiso   1.00
O455   O     0.16667   0.68454   0.28974   0.00000  Uiso   1.00
O456   O     0.16666   0.81547   0.21026   0.00000  Uiso   1.00
O457   O     0.16667   0.68453   0.21026   0.00000  Uiso   1.00
O458   O     0.16666   0.81547   0.28974   0.00000  Uiso   1.00
O459   O     0.09058   0.75000   0.28044   0.00000  Uiso   1.00
O460   O     0.24275   0.75000   0.21955   0.00000  Uiso   1.00
O461   O     0.09058   0.74999   0.20096   0.00000  Uiso   1.00
O462   O     0.24275   0.75001   0.29903   0.00000  Uiso   1.00
Zn463  Zn    0.16667   0.75001   0.30307   0.00000  Uiso   1.00
Zn464  Zn    0.16667   0.75000   0.19693   0.00000  Uiso   1.00
C465   C     0.50189   0.66361   0.25019   0.00000  Uiso   1.00
C466   C     0.47581   0.71507   0.44415   0.00000  Uiso   1.00
C467   C     0.49871   0.75001   0.02636   0.00000  Uiso   1.00
C468   C     0.49893   0.75020   0.47305   0.00000  Uiso   1.00
C469   C     0.40121   0.75252   0.23855   0.00000  Uiso   1.00
C470   C     0.59913   0.74801   0.26155   0.00000  Uiso   1.00
C471   C     0.34839   0.76206   0.23577   0.00000  Uiso   1.00
C472   C     0.65256   0.73892   0.26489   0.00000  Uiso   1.00
C473   C     0.52477   0.54719   0.29433   0.00000  Uiso   1.00
C474   C     0.54421   0.95211   0.22080   0.00000  Uiso   1.00
C475   C     0.51428   0.59165   0.29469   0.00000  Uiso   1.00
C476   C     0.50177   0.83614   0.25025   0.00000  Uiso   1.00
C477   C     0.53724   0.90648   0.21829   0.00000  Uiso   1.00
C478   C     0.51091   0.61568   0.25101   0.00000  Uiso   1.00
C479   C     0.50733   0.88424   0.25099   0.00000  Uiso   1.00
C480   C     0.51922   0.59276   0.20848   0.00000  Uiso   1.00
C481   C     0.48452   0.90910   0.28516   0.00000  Uiso   1.00
C482   C     0.52236   0.54706   0.20977   0.00000  Uiso   1.00
C483   C     0.48929   0.95486   0.28341   0.00000  Uiso   1.00
C484   C     0.52410   0.52437   0.25219   0.00000  Uiso   1.00
C485   C     0.51985   0.97626   0.25244   0.00000  Uiso   1.00
C486   C     0.66353   0.80350   0.20890   0.00000  Uiso   1.00
C487   C     0.45583   0.73255   0.04744   0.00000  Uiso   1.00
C488   C     0.37096   0.83268   0.18717   0.00000  Uiso   1.00
C489   C     0.33903   0.69991   0.29567   0.00000  Uiso   1.00
C490   C     0.63126   0.66465   0.30592   0.00000  Uiso   1.00
C491   C     0.50151   0.60861   0.34208   0.00000  Uiso   1.00
C492   C     0.44271   0.60805   0.34280   0.00000  Uiso   1.00
C493   C     0.56399   0.88410   0.18067   0.00000  Uiso   1.00
C494   C     0.53041   0.88389   0.13295   0.00000  Uiso   1.00
C495   C     0.52505   0.61392   0.16067   0.00000  Uiso   1.00
C496   C     0.57786   0.63847   0.16030   0.00000  Uiso   1.00
C497   C     0.45611   0.88978   0.32507   0.00000  Uiso   1.00
C498   C     0.52255   0.78568   0.45038   0.00000  Uiso   1.00
C499   C     0.40234   0.86946   0.30813   0.00000  Uiso   1.00
C500   C     0.37678   0.75235   0.49762   0.00000  Uiso   1.00
C501   C     0.49706   0.85615   0.47724   0.00000  Uiso   1.00
C502   C     0.41820   0.69931   0.11752   0.00000  Uiso   1.00
C503   C     0.36401   0.71839   0.11358   0.00000  Uiso   1.00
C504   C     0.56962   0.81204   0.38248   0.00000  Uiso   1.00
C505   C     0.62414   0.79779   0.40053   0.00000  Uiso   1.00
C506   C     0.45885   0.72932   0.09752   0.00000  Uiso   1.00
C507   C     0.52840   0.78220   0.40153   0.00000  Uiso   1.00
C508   C     0.54020   0.76900   0.10582   0.00000  Uiso   1.00
C509   C     0.47343   0.71744   0.39474   0.00000  Uiso   1.00
C510   C     0.54165   0.76721   0.05680   0.00000  Uiso   1.00
H511   H     0.52885   0.52901   0.32723   0.00000  Uiso   1.00
H512   H     0.38729   0.81529   0.15853   0.00000  Uiso   1.00
H513   H     0.35236   0.86241   0.17147   0.00000  Uiso   1.00
H514   H     0.63499   0.79311   0.17928   0.00000  Uiso   1.00
H515   H     0.64537   0.82470   0.23358   0.00000  Uiso   1.00
H516   H     0.60427   0.67762   0.32944   0.00000  Uiso   1.00
H517   H     0.60975   0.65226   0.27237   0.00000  Uiso   1.00
H518   H     0.65055   0.63639   0.32425   0.00000  Uiso   1.00
H519   H     0.36736   0.68194   0.27738   0.00000  Uiso   1.00
H520   H     0.35883   0.71290   0.32986   0.00000  Uiso   1.00
H521   H     0.43353   0.61692   0.37859   0.00000  Uiso   1.00
H522   H     0.56870   0.96895   0.19747   0.00000  Uiso   1.00
H523   H     0.42489   0.63165   0.31672   0.00000  Uiso   1.00
H524   H     0.42538   0.57442   0.33409   0.00000  Uiso   1.00
H525   H     0.51700   0.58676   0.37128   0.00000  Uiso   1.00
H526   H     0.52098   0.64085   0.35261   0.00000  Uiso   1.00
H527   H     0.49296   0.86520   0.13503   0.00000  Uiso   1.00
H528   H     0.52241   0.91825   0.12161   0.00000  Uiso   1.00
H529   H     0.55117   0.86809   0.10593   0.00000  Uiso   1.00
H530   H     0.60164   0.90194   0.17673   0.00000  Uiso   1.00
H531   H     0.57466   0.85030   0.19036   0.00000  Uiso   1.00
H532   H     0.58473   0.66428   0.18808   0.00000  Uiso   1.00
H533   H     0.52270   0.52885   0.17712   0.00000  Uiso   1.00
H534   H     0.60941   0.61477   0.16608   0.00000  Uiso   1.00
H535   H     0.57983   0.65454   0.12549   0.00000  Uiso   1.00
H536   H     0.52260   0.58845   0.13232   0.00000  Uiso   1.00
H537   H     0.49243   0.63494   0.14880   0.00000  Uiso   1.00
H538   H     0.40534   0.83612   0.29329   0.00000  Uiso   1.00
H539   H     0.37941   0.86573   0.33855   0.00000  Uiso   1.00
H540   H     0.38126   0.89096   0.28150   0.00000  Uiso   1.00
H541   H     0.47986   0.86593   0.34642   0.00000  Uiso   1.00
H542   H     0.45039   0.91608   0.35096   0.00000  Uiso   1.00
H543   H     0.39164   0.68838   0.02455   0.00000  Uiso   1.00
H544   H     0.46877   0.97414   0.30666   0.00000  Uiso   1.00
H545   H     0.39418   0.78605   0.00578   0.00000  Uiso   1.00
H546   H     0.37090   0.74783   0.45872   0.00000  Uiso   1.00
H547   H     0.33840   0.74959   0.01125   0.00000  Uiso   1.00
H548   H     0.57287   0.84056   0.47043   0.00000  Uiso   1.00
H549   H     0.51137   0.88472   0.00029   0.00000  Uiso   1.00
H550   H     0.46314   0.84006   0.49184   0.00000  Uiso   1.00
H551   H     0.48487   0.86838   0.44106   0.00000  Uiso   1.00
H552   H     0.36621   0.75490   0.11099   0.00000  Uiso   1.00
H553   H     0.33912   0.70482   0.08220   0.00000  Uiso   1.00
H554   H     0.34438   0.70886   0.14494   0.00000  Uiso   1.00
H555   H     0.57187   0.78511   0.12741   0.00000  Uiso   1.00
H556   H     0.41551   0.66686   0.09906   0.00000  Uiso   1.00
H557   H     0.43002   0.69010   0.15404   0.00000  Uiso   1.00
H558   H     0.63129   0.79958   0.43956   0.00000  Uiso   1.00
H559   H     0.62927   0.76335   0.38912   0.00000  Uiso   1.00
H560   H     0.65354   0.81981   0.38579   0.00000  Uiso   1.00
H561   H     0.56770   0.81154   0.34431   0.00000  Uiso   1.00
H562   H     0.56504   0.84711   0.39180   0.00000  Uiso   1.00
H563   H     0.45172   0.69241   0.37308   0.00000  Uiso   1.00
H564   H     0.57649   0.77978   0.04296   0.00000  Uiso   1.00
H565   H     0.45865   0.68600   0.45925   0.00000  Uiso   1.00
H566   H     0.40268   0.84405   0.21405   0.00000  Uiso   1.00
N567   N     0.50000   0.74999   0.12623   0.00000  Uiso   1.00
N568   N     0.50000   0.75001   0.37376   0.00000  Uiso   1.00
N569   N     0.40971   0.71837   0.01819   0.00000  Uiso   1.00
N570   N     0.53794   0.82540   0.47623   0.00000  Uiso   1.00
O571   O     0.50000   0.68454   0.28974   0.00000  Uiso   1.00
O572   O     0.50000   0.81547   0.21026   0.00000  Uiso   1.00
O573   O     0.50000   0.68453   0.21026   0.00000  Uiso   1.00
O574   O     0.50000   0.81547   0.28974   0.00000  Uiso   1.00
O575   O     0.42392   0.75000   0.28044   0.00000  Uiso   1.00
O576   O     0.57608   0.75000   0.21955   0.00000  Uiso   1.00
O577   O     0.42392   0.74999   0.20096   0.00000  Uiso   1.00
O578   O     0.57608   0.75001   0.29903   0.00000  Uiso   1.00
Zn579  Zn    0.50000   0.75001   0.30307   0.00000  Uiso   1.00
Zn580  Zn    0.50000   0.75000   0.19693   0.00000  Uiso   1.00
C581   C     0.83523   0.66361   0.25019   0.00000  Uiso   1.00
C582   C     0.80914   0.71507   0.44415   0.00000  Uiso   1.00
C583   C     0.83204   0.75001   0.02636   0.00000  Uiso   1.00
C584   C     0.83227   0.75020   0.47305   0.00000  Uiso   1.00
C585   C     0.73455   0.75252   0.23855   0.00000  Uiso   1.00
C586   C     0.93247   0.74801   0.26155   0.00000  Uiso   1.00
C587   C     0.68172   0.76206   0.23577   0.00000  Uiso   1.00
C588   C     0.98590   0.73892   0.26489   0.00000  Uiso   1.00
C589   C     0.85810   0.54719   0.29433   0.00000  Uiso   1.00
C590   C     0.87754   0.95211   0.22080   0.00000  Uiso   1.00
C591   C     0.84762   0.59165   0.29469   0.00000  Uiso   1.00
C592   C     0.83511   0.83614   0.25025   0.00000  Uiso   1.00
C593   C     0.87058   0.90648   0.21829   0.00000  Uiso   1.00
C594   C     0.84424   0.61568   0.25101   0.00000  Uiso   1.00
C595   C     0.84066   0.88424   0.25099   0.00000  Uiso   1.00
C596   C     0.85255   0.59276   0.20848   0.00000  Uiso   1.00
C597   C     0.81785   0.90910   0.28516   0.00000  Uiso   1.00
C598   C     0.85570   0.54706   0.20977   0.00000  Uiso   1.00
C599   C     0.82262   0.95486   0.28341   0.00000  Uiso   1.00
C600   C     0.85743   0.52437   0.25219   0.00000  Uiso   1.00
C601   C     0.85318   0.97626   0.25244   0.00000  Uiso   1.00
C602   C     0.99687   0.80350   0.20890   0.00000  Uiso   1.00
C603   C     0.78917   0.73255   0.04744   0.00000  Uiso   1.00
C604   C     0.70429   0.83268   0.18717   0.00000  Uiso   1.00
C605   C     0.67236   0.69991   0.29567   0.00000  Uiso   1.00
C606   C     0.96459   0.66465   0.30592   0.00000  Uiso   1.00
C607   C     0.83484   0.60861   0.34208   0.00000  Uiso   1.00
C608   C     0.77604   0.60805   0.34280   0.00000  Uiso   1.00
C609   C     0.89733   0.88410   0.18067   0.00000  Uiso   1.00
C610   C     0.86374   0.88389   0.13295   0.00000  Uiso   1.00
C611   C     0.85838   0.61392   0.16067   0.00000  Uiso   1.00
C612   C     0.91119   0.63847   0.16030   0.00000  Uiso   1.00
C613   C     0.78944   0.88978   0.32507   0.00000  Uiso   1.00
C614   C     0.85589   0.78568   0.45038   0.00000  Uiso   1.00
C615   C     0.73567   0.86946   0.30813   0.00000  Uiso   1.00
C616   C     0.71011   0.75235   0.49762   0.00000  Uiso   1.00
C617   C     0.83040   0.85615   0.47724   0.00000  Uiso   1.00
C618   C     0.75153   0.69931   0.11752   0.00000  Uiso   1.00
C619   C     0.69734   0.71839   0.11358   0.00000  Uiso   1.00
C620   C     0.90296   0.81204   0.38248   0.00000  Uiso   1.00
C621   C     0.95747   0.79779   0.40053   0.00000  Uiso   1.00
C622   C     0.79218   0.72932   0.09752   0.00000  Uiso   1.00
C623   C     0.86174   0.78220   0.40153   0.00000  Uiso   1.00
C624   C     0.87354   0.76900   0.10582   0.00000  Uiso   1.00
C625   C     0.80677   0.71744   0.39474   0.00000  Uiso   1.00
C626   C     0.87498   0.76721   0.05680   0.00000  Uiso   1.00
H627   H     0.86219   0.52901   0.32723   0.00000  Uiso   1.00
H628   H     0.72062   0.81529   0.15853   0.00000  Uiso   1.00
H629   H     0.68569   0.86241   0.17147   0.00000  Uiso   1.00
H630   H     0.96832   0.79311   0.17928   0.00000  Uiso   1.00
H631   H     0.97870   0.82470   0.23358   0.00000  Uiso   1.00
H632   H     0.93761   0.67762   0.32944   0.00000  Uiso   1.00
H633   H     0.94308   0.65226   0.27237   0.00000  Uiso   1.00
H634   H     0.98388   0.63639   0.32425   0.00000  Uiso   1.00
H635   H     0.70069   0.68194   0.27738   0.00000  Uiso   1.00
H636   H     0.69216   0.71290   0.32986   0.00000  Uiso   1.00
H637   H     0.76686   0.61692   0.37859   0.00000  Uiso   1.00
H638   H     0.90203   0.96895   0.19747   0.00000  Uiso   1.00
H639   H     0.75823   0.63165   0.31672   0.00000  Uiso   1.00
H640   H     0.75871   0.57442   0.33409   0.00000  Uiso   1.00
H641   H     0.85034   0.58676   0.37128   0.00000  Uiso   1.00
H642   H     0.85431   0.64085   0.35261   0.00000  Uiso   1.00
H643   H     0.82629   0.86520   0.13503   0.00000  Uiso   1.00
H644   H     0.85574   0.91825   0.12161   0.00000  Uiso   1.00
H645   H     0.88451   0.86809   0.10593   0.00000  Uiso   1.00
H646   H     0.93497   0.90194   0.17673   0.00000  Uiso   1.00
H647   H     0.90800   0.85030   0.19036   0.00000  Uiso   1.00
H648   H     0.91807   0.66428   0.18808   0.00000  Uiso   1.00
H649   H     0.85603   0.52885   0.17712   0.00000  Uiso   1.00
H650   H     0.94274   0.61477   0.16608   0.00000  Uiso   1.00
H651   H     0.91316   0.65454   0.12549   0.00000  Uiso   1.00
H652   H     0.85593   0.58845   0.13232   0.00000  Uiso   1.00
H653   H     0.82576   0.63494   0.14880   0.00000  Uiso   1.00
H654   H     0.73867   0.83612   0.29329   0.00000  Uiso   1.00
H655   H     0.71275   0.86573   0.33855   0.00000  Uiso   1.00
H656   H     0.71459   0.89096   0.28150   0.00000  Uiso   1.00
H657   H     0.81319   0.86593   0.34642   0.00000  Uiso   1.00
H658   H     0.78372   0.91608   0.35096   0.00000  Uiso   1.00
H659   H     0.72498   0.68838   0.02455   0.00000  Uiso   1.00
H660   H     0.80210   0.97414   0.30666   0.00000  Uiso   1.00
H661   H     0.72751   0.78605   0.00578   0.00000  Uiso   1.00
H662   H     0.70423   0.74783   0.45872   0.00000  Uiso   1.00
H663   H     0.67174   0.74959   0.01125   0.00000  Uiso   1.00
H664   H     0.90621   0.84056   0.47043   0.00000  Uiso   1.00
H665   H     0.84471   0.88472   0.00029   0.00000  Uiso   1.00
H666   H     0.79647   0.84006   0.49184   0.00000  Uiso   1.00
H667   H     0.81821   0.86838   0.44106   0.00000  Uiso   1.00
H668   H     0.69954   0.75490   0.11099   0.00000  Uiso   1.00
H669   H     0.67245   0.70482   0.08220   0.00000  Uiso   1.00
H670   H     0.67771   0.70886   0.14494   0.00000  Uiso   1.00
H671   H     0.90521   0.78511   0.12741   0.00000  Uiso   1.00
H672   H     0.74885   0.66686   0.09906   0.00000  Uiso   1.00
H673   H     0.76335   0.69010   0.15404   0.00000  Uiso   1.00
H674   H     0.96463   0.79958   0.43956   0.00000  Uiso   1.00
H675   H     0.96260   0.76335   0.38912   0.00000  Uiso   1.00
H676   H     0.98687   0.81981   0.38579   0.00000  Uiso   1.00
H677   H     0.90103   0.81154   0.34431   0.00000  Uiso   1.00
H678   H     0.89837   0.84711   0.39180   0.00000  Uiso   1.00
H679   H     0.78505   0.69241   0.37308   0.00000  Uiso   1.00
H680   H     0.90982   0.77978   0.04296   0.00000  Uiso   1.00
H681   H     0.79198   0.68600   0.45925   0.00000  Uiso   1.00
H682   H     0.73601   0.84405   0.21405   0.00000  Uiso   1.00
N683   N     0.83333   0.74999   0.12623   0.00000  Uiso   1.00
N684   N     0.83333   0.75001   0.37376   0.00000  Uiso   1.00
N685   N     0.74304   0.71837   0.01819   0.00000  Uiso   1.00
N686   N     0.87127   0.82540   0.47623   0.00000  Uiso   1.00
O687   O     0.83334   0.68454   0.28974   0.00000  Uiso   1.00
O688   O     0.83333   0.81547   0.21026   0.00000  Uiso   1.00
O689   O     0.83334   0.68453   0.21026   0.00000  Uiso   1.00
O690   O     0.83333   0.81547   0.28974   0.00000  Uiso   1.00
O691   O     0.75725   0.75000   0.28044   0.00000  Uiso   1.00
O692   O     0.90942   0.75000   0.21955   0.00000  Uiso   1.00
O693   O     0.75725   0.74999   0.20096   0.00000  Uiso   1.00
O694   O     0.90942   0.75001   0.29903   0.00000  Uiso   1.00
Zn695  Zn    0.83333   0.75001   0.30307   0.00000  Uiso   1.00
Zn696  Zn    0.83333   0.75000   0.19693   0.00000  Uiso   1.00
C697   C     0.16856   0.16361   0.75019   0.00000  Uiso   1.00
C698   C     0.14248   0.21507   0.94415   0.00000  Uiso   1.00
C699   C     0.16538   0.25001   0.52636   0.00000  Uiso   1.00
C700   C     0.16560   0.25020   0.97305   0.00000  Uiso   1.00
C701   C     0.06788   0.25252   0.73855   0.00000  Uiso   1.00
C702   C     0.26580   0.24801   0.76155   0.00000  Uiso   1.00
C703   C     0.01505   0.26206   0.73577   0.00000  Uiso   1.00
C704   C     0.31923   0.23892   0.76489   0.00000  Uiso   1.00
C705   C     0.19143   0.04719   0.79433   0.00000  Uiso   1.00
C706   C     0.21088   0.45211   0.72080   0.00000  Uiso   1.00
C707   C     0.18095   0.09165   0.79469   0.00000  Uiso   1.00
C708   C     0.16844   0.33614   0.75025   0.00000  Uiso   1.00
C709   C     0.20391   0.40648   0.71829   0.00000  Uiso   1.00
C710   C     0.17757   0.11568   0.75101   0.00000  Uiso   1.00
C711   C     0.17400   0.38424   0.75099   0.00000  Uiso   1.00
C712   C     0.18589   0.09276   0.70848   0.00000  Uiso   1.00
C713   C     0.15119   0.40910   0.78516   0.00000  Uiso   1.00
C714   C     0.18903   0.04706   0.70977   0.00000  Uiso   1.00
C715   C     0.15595   0.45486   0.78341   0.00000  Uiso   1.00
C716   C     0.19077   0.02437   0.75219   0.00000  Uiso   1.00
C717   C     0.18651   0.47626   0.75244   0.00000  Uiso   1.00
C718   C     0.33020   0.30350   0.70890   0.00000  Uiso   1.00
C719   C     0.12250   0.23255   0.54744   0.00000  Uiso   1.00
C720   C     0.03763   0.33268   0.68717   0.00000  Uiso   1.00
C721   C     0.00570   0.19991   0.79567   0.00000  Uiso   1.00
C722   C     0.29792   0.16465   0.80592   0.00000  Uiso   1.00
C723   C     0.16817   0.10861   0.84208   0.00000  Uiso   1.00
C724   C     0.10938   0.10805   0.84280   0.00000  Uiso   1.00
C725   C     0.23066   0.38410   0.68067   0.00000  Uiso   1.00
C726   C     0.19708   0.38389   0.63295   0.00000  Uiso   1.00
C727   C     0.19171   0.11392   0.66067   0.00000  Uiso   1.00
C728   C     0.24453   0.13847   0.66030   0.00000  Uiso   1.00
C729   C     0.12277   0.38978   0.82507   0.00000  Uiso   1.00
C730   C     0.18922   0.28568   0.95038   0.00000  Uiso   1.00
C731   C     0.06900   0.36946   0.80813   0.00000  Uiso   1.00
C732   C     0.04344   0.25235   0.99762   0.00000  Uiso   1.00
C733   C     0.16373   0.35615   0.97724   0.00000  Uiso   1.00
C734   C     0.08486   0.19931   0.61752   0.00000  Uiso   1.00
C735   C     0.03068   0.21839   0.61358   0.00000  Uiso   1.00
C736   C     0.23629   0.31204   0.88248   0.00000  Uiso   1.00
C737   C     0.29081   0.29779   0.90053   0.00000  Uiso   1.00
C738   C     0.12551   0.22932   0.59752   0.00000  Uiso   1.00
C739   C     0.19507   0.28220   0.90153   0.00000  Uiso   1.00
C740   C     0.20687   0.26900   0.60582   0.00000  Uiso   1.00
C741   C     0.14010   0.21744   0.89474   0.00000  Uiso   1.00
C742   C     0.20832   0.26721   0.55680   0.00000  Uiso   1.00
H743   H     0.19552   0.02901   0.82723   0.00000  Uiso   1.00
H744   H     0.05396   0.31529   0.65853   0.00000  Uiso   1.00
H745   H     0.01903   0.36241   0.67147   0.00000  Uiso   1.00
H746   H     0.30166   0.29311   0.67928   0.00000  Uiso   1.00
H747   H     0.31204   0.32470   0.73358   0.00000  Uiso   1.00
H748   H     0.27094   0.17762   0.82944   0.00000  Uiso   1.00
H749   H     0.27641   0.15226   0.77237   0.00000  Uiso   1.00
H750   H     0.31722   0.13639   0.82425   0.00000  Uiso   1.00
H751   H     0.03403   0.18194   0.77738   0.00000  Uiso   1.00
H752   H     0.02550   0.21290   0.82986   0.00000  Uiso   1.00
H753   H     0.10019   0.11692   0.87859   0.00000  Uiso   1.00
H754   H     0.23537   0.46895   0.69747   0.00000  Uiso   1.00
H755   H     0.09156   0.13165   0.81672   0.00000  Uiso   1.00
H756   H     0.09204   0.07442   0.83409   0.00000  Uiso   1.00
H757   H     0.18367   0.08676   0.87128   0.00000  Uiso   1.00
H758   H     0.18764   0.14085   0.85261   0.00000  Uiso   1.00
H759   H     0.15963   0.36520   0.63503   0.00000  Uiso   1.00
H760   H     0.18907   0.41825   0.62161   0.00000  Uiso   1.00
H761   H     0.21784   0.36809   0.60593   0.00000  Uiso   1.00
H762   H     0.26830   0.40194   0.67673   0.00000  Uiso   1.00
H763   H     0.24133   0.35030   0.69036   0.00000  Uiso   1.00
H764   H     0.25140   0.16428   0.68808   0.00000  Uiso   1.00
H765   H     0.18936   0.02885   0.67712   0.00000  Uiso   1.00
H766   H     0.27607   0.11477   0.66608   0.00000  Uiso   1.00
H767   H     0.24650   0.15454   0.62549   0.00000  Uiso   1.00
H768   H     0.18927   0.08845   0.63232   0.00000  Uiso   1.00
H769   H     0.15909   0.13494   0.64880   0.00000  Uiso   1.00
H770   H     0.07201   0.33612   0.79329   0.00000  Uiso   1.00
H771   H     0.04608   0.36573   0.83855   0.00000  Uiso   1.00
H772   H     0.04792   0.39096   0.78150   0.00000  Uiso   1.00
H773   H     0.14653   0.36593   0.84642   0.00000  Uiso   1.00
H774   H     0.11706   0.41608   0.85096   0.00000  Uiso   1.00
H775   H     0.05831   0.18838   0.52455   0.00000  Uiso   1.00
H776   H     0.13544   0.47414   0.80666   0.00000  Uiso   1.00
H777   H     0.06084   0.28605   0.50578   0.00000  Uiso   1.00
H778   H     0.03756   0.24783   0.95872   0.00000  Uiso   1.00
H779   H     0.00507   0.24959   0.51125   0.00000  Uiso   1.00
H780   H     0.23954   0.34056   0.97043   0.00000  Uiso   1.00
H781   H     0.17804   0.38472   0.50029   0.00000  Uiso   1.00
H782   H     0.12981   0.34006   0.99184   0.00000  Uiso   1.00
H783   H     0.15154   0.36838   0.94106   0.00000  Uiso   1.00
H784   H     0.03287   0.25490   0.61099   0.00000  Uiso   1.00
H785   H     0.00579   0.20482   0.58220   0.00000  Uiso   1.00
H786   H     0.01104   0.20886   0.64494   0.00000  Uiso   1.00
H787   H     0.23854   0.28511   0.62741   0.00000  Uiso   1.00
H788   H     0.08218   0.16686   0.59906   0.00000  Uiso   1.00
H789   H     0.09668   0.19010   0.65404   0.00000  Uiso   1.00
H790   H     0.29796   0.29958   0.93956   0.00000  Uiso   1.00
H791   H     0.29593   0.26335   0.88912   0.00000  Uiso   1.00
H792   H     0.32021   0.31981   0.88579   0.00000  Uiso   1.00
H793   H     0.23436   0.31154   0.84431   0.00000  Uiso   1.00
H794   H     0.23171   0.34711   0.89180   0.00000  Uiso   1.00
H795   H     0.11839   0.19241   0.87308   0.00000  Uiso   1.00
H796   H     0.24316   0.27978   0.54296   0.00000  Uiso   1.00
H797   H     0.12531   0.18600   0.95925   0.00000  Uiso   1.00
H798   H     0.06934   0.34405   0.71405   0.00000  Uiso   1.00
N799   N     0.16667   0.24999   0.62623   0.00000  Uiso   1.00
N800   N     0.16667   0.25001   0.87376   0.00000  Uiso   1.00
N801   N     0.07638   0.21837   0.51819   0.00000  Uiso   1.00
N802   N     0.20461   0.32540   0.97623   0.00000  Uiso   1.00
O803   O     0.16667   0.18454   0.78974   0.00000  Uiso   1.00
O804   O     0.16666   0.31547   0.71026   0.00000  Uiso   1.00
O805   O     0.16667   0.18453   0.71026   0.00000  Uiso   1.00
O806   O     0.16666   0.31547   0.78974   0.00000  Uiso   1.00
O807   O     0.09058   0.25000   0.78044   0.00000  Uiso   1.00
O808   O     0.24275   0.25000   0.71955   0.00000  Uiso   1.00
O809   O     0.09058   0.24999   0.70096   0.00000  Uiso   1.00
O810   O     0.24275   0.25001   0.79903   0.00000  Uiso   1.00
Zn811  Zn    0.16667   0.25001   0.80307   0.00000  Uiso   1.00
Zn812  Zn    0.16667   0.25000   0.69693   0.00000  Uiso   1.00
C813   C     0.50189   0.16361   0.75019   0.00000  Uiso   1.00
C814   C     0.47581   0.21507   0.94415   0.00000  Uiso   1.00
C815   C     0.49871   0.25001   0.52636   0.00000  Uiso   1.00
C816   C     0.49893   0.25020   0.97305   0.00000  Uiso   1.00
C817   C     0.40121   0.25252   0.73855   0.00000  Uiso   1.00
C818   C     0.59913   0.24801   0.76155   0.00000  Uiso   1.00
C819   C     0.34839   0.26206   0.73577   0.00000  Uiso   1.00
C820   C     0.65256   0.23892   0.76489   0.00000  Uiso   1.00
C821   C     0.52477   0.04719   0.79433   0.00000  Uiso   1.00
C822   C     0.54421   0.45211   0.72080   0.00000  Uiso   1.00
C823   C     0.51428   0.09165   0.79469   0.00000  Uiso   1.00
C824   C     0.50177   0.33614   0.75025   0.00000  Uiso   1.00
C825   C     0.53724   0.40648   0.71829   0.00000  Uiso   1.00
C826   C     0.51091   0.11568   0.75101   0.00000  Uiso   1.00
C827   C     0.50733   0.38424   0.75099   0.00000  Uiso   1.00
C828   C     0.51922   0.09276   0.70848   0.00000  Uiso   1.00
C829   C     0.48452   0.40910   0.78516   0.00000  Uiso   1.00
C830   C     0.52236   0.04706   0.70977   0.00000  Uiso   1.00
C831   C     0.48929   0.45486   0.78341   0.00000  Uiso   1.00
C832   C     0.52410   0.02437   0.75219   0.00000  Uiso   1.00
C833   C     0.51985   0.47626   0.75244   0.00000  Uiso   1.00
C834   C     0.66353   0.30350   0.70890   0.00000  Uiso   1.00
C835   C     0.45583   0.23255   0.54744   0.00000  Uiso   1.00
C836   C     0.37096   0.33268   0.68717   0.00000  Uiso   1.00
C837   C     0.33903   0.19991   0.79567   0.00000  Uiso   1.00
C838   C     0.63126   0.16465   0.80592   0.00000  Uiso   1.00
C839   C     0.50151   0.10861   0.84208   0.00000  Uiso   1.00
C840   C     0.44271   0.10805   0.84280   0.00000  Uiso   1.00
C841   C     0.56399   0.38410   0.68067   0.00000  Uiso   1.00
C842   C     0.53041   0.38389   0.63295   0.00000  Uiso   1.00
C843   C     0.52505   0.11392   0.66067   0.00000  Uiso   1.00
C844   C     0.57786   0.13847   0.66030   0.00000  Uiso   1.00
C845   C     0.45611   0.38978   0.82507   0.00000  Uiso   1.00
C846   C     0.52255   0.28568   0.95038   0.00000  Uiso   1.00
C847   C     0.40234   0.36946   0.80813   0.00000  Uiso   1.00
C848   C     0.37678   0.25235   0.99762   0.00000  Uiso   1.00
C849   C     0.49706   0.35615   0.97724   0.00000  Uiso   1.00
C850   C     0.41820   0.19931   0.61752   0.00000  Uiso   1.00
C851   C     0.36401   0.21839   0.61358   0.00000  Uiso   1.00
C852   C     0.56962   0.31204   0.88248   0.00000  Uiso   1.00
C853   C     0.62414   0.29779   0.90053   0.00000  Uiso   1.00
C854   C     0.45885   0.22932   0.59752   0.00000  Uiso   1.00
C855   C     0.52840   0.28220   0.90153   0.00000  Uiso   1.00
C856   C     0.54020   0.26900   0.60582   0.00000  Uiso   1.00
C857   C     0.47343   0.21744   0.89474   0.00000  Uiso   1.00
C858   C     0.54165   0.26721   0.55680   0.00000  Uiso   1.00
H859   H     0.52885   0.02901   0.82723   0.00000  Uiso   1.00
H860   H     0.38729   0.31529   0.65853   0.00000  Uiso   1.00
H861   H     0.35236   0.36241   0.67147   0.00000  Uiso   1.00
H862   H     0.63499   0.29311   0.67928   0.00000  Uiso   1.00
H863   H     0.64537   0.32470   0.73358   0.00000  Uiso   1.00
H864   H     0.60427   0.17762   0.82944   0.00000  Uiso   1.00
H865   H     0.60975   0.15226   0.77237   0.00000  Uiso   1.00
H866   H     0.65055   0.13639   0.82425   0.00000  Uiso   1.00
H867   H     0.36736   0.18194   0.77738   0.00000  Uiso   1.00
H868   H     0.35883   0.21290   0.82986   0.00000  Uiso   1.00
H869   H     0.43353   0.11692   0.87859   0.00000  Uiso   1.00
H870   H     0.56870   0.46895   0.69747   0.00000  Uiso   1.00
H871   H     0.42489   0.13165   0.81672   0.00000  Uiso   1.00
H872   H     0.42538   0.07442   0.83409   0.00000  Uiso   1.00
H873   H     0.51700   0.08676   0.87128   0.00000  Uiso   1.00
H874   H     0.52098   0.14085   0.85261   0.00000  Uiso   1.00
H875   H     0.49296   0.36520   0.63503   0.00000  Uiso   1.00
H876   H     0.52241   0.41825   0.62161   0.00000  Uiso   1.00
H877   H     0.55117   0.36809   0.60593   0.00000  Uiso   1.00
H878   H     0.60164   0.40194   0.67673   0.00000  Uiso   1.00
H879   H     0.57466   0.35030   0.69036   0.00000  Uiso   1.00
H880   H     0.58473   0.16428   0.68808   0.00000  Uiso   1.00
H881   H     0.52270   0.02885   0.67712   0.00000  Uiso   1.00
H882   H     0.60941   0.11477   0.66608   0.00000  Uiso   1.00
H883   H     0.57983   0.15454   0.62549   0.00000  Uiso   1.00
H884   H     0.52260   0.08845   0.63232   0.00000  Uiso   1.00
H885   H     0.49243   0.13494   0.64880   0.00000  Uiso   1.00
H886   H     0.40534   0.33612   0.79329   0.00000  Uiso   1.00
H887   H     0.37941   0.36573   0.83855   0.00000  Uiso   1.00
H888   H     0.38126   0.39096   0.78150   0.00000  Uiso   1.00
H889   H     0.47986   0.36593   0.84642   0.00000  Uiso   1.00
H890   H     0.45039   0.41608   0.85096   0.00000  Uiso   1.00
H891   H     0.39164   0.18838   0.52455   0.00000  Uiso   1.00
H892   H     0.46877   0.47414   0.80666   0.00000  Uiso   1.00
H893   H     0.39418   0.28605   0.50578   0.00000  Uiso   1.00
H894   H     0.37090   0.24783   0.95872   0.00000  Uiso   1.00
H895   H     0.33840   0.24959   0.51125   0.00000  Uiso   1.00
H896   H     0.57287   0.34056   0.97043   0.00000  Uiso   1.00
H897   H     0.51137   0.38472   0.50029   0.00000  Uiso   1.00
H898   H     0.46314   0.34006   0.99184   0.00000  Uiso   1.00
H899   H     0.48487   0.36838   0.94106   0.00000  Uiso   1.00
H900   H     0.36621   0.25490   0.61099   0.00000  Uiso   1.00
H901   H     0.33912   0.20482   0.58220   0.00000  Uiso   1.00
H902   H     0.34438   0.20886   0.64494   0.00000  Uiso   1.00
H903   H     0.57187   0.28511   0.62741   0.00000  Uiso   1.00
H904   H     0.41551   0.16686   0.59906   0.00000  Uiso   1.00
H905   H     0.43002   0.19010   0.65404   0.00000  Uiso   1.00
H906   H     0.63129   0.29958   0.93956   0.00000  Uiso   1.00
H907   H     0.62927   0.26335   0.88912   0.00000  Uiso   1.00
H908   H     0.65354   0.31981   0.88579   0.00000  Uiso   1.00
H909   H     0.56770   0.31154   0.84431   0.00000  Uiso   1.00
H910   H     0.56504   0.34711   0.89180   0.00000  Uiso   1.00
H911   H     0.45172   0.19241   0.87308   0.00000  Uiso   1.00
H912   H     0.57649   0.27978   0.54296   0.00000  Uiso   1.00
H913   H     0.45865   0.18600   0.95925   0.00000  Uiso   1.00
H914   H     0.40268   0.34405   0.71405   0.00000  Uiso   1.00
N915   N     0.50000   0.24999   0.62623   0.00000  Uiso   1.00
N916   N     0.50000   0.25001   0.87376   0.00000  Uiso   1.00
N917   N     0.40971   0.21837   0.51819   0.00000  Uiso   1.00
N918   N     0.53794   0.32540   0.97623   0.00000  Uiso   1.00
O919   O     0.50000   0.18454   0.78974   0.00000  Uiso   1.00
O920   O     0.50000   0.31547   0.71026   0.00000  Uiso   1.00
O921   O     0.50000   0.18453   0.71026   0.00000  Uiso   1.00
O922   O     0.50000   0.31547   0.78974   0.00000  Uiso   1.00
O923   O     0.42392   0.25000   0.78044   0.00000  Uiso   1.00
O924   O     0.57608   0.25000   0.71955   0.00000  Uiso   1.00
O925   O     0.42392   0.24999   0.70096   0.00000  Uiso   1.00
O926   O     0.57608   0.25001   0.79903   0.00000  Uiso   1.00
Zn927  Zn    0.50000   0.25001   0.80307   0.00000  Uiso   1.00
Zn928  Zn    0.50000   0.25000   0.69693   0.00000  Uiso   1.00
C929   C     0.83523   0.16361   0.75019   0.00000  Uiso   1.00
C930   C     0.80914   0.21507   0.94415   0.00000  Uiso   1.00
C931   C     0.83204   0.25001   0.52636   0.00000  Uiso   1.00
C932   C     0.83227   0.25020   0.97305   0.00000  Uiso   1.00
C933   C     0.73455   0.25252   0.73855   0.00000  Uiso   1.00
C934   C     0.93247   0.24801   0.76155   0.00000  Uiso   1.00
C935   C     0.68172   0.26206   0.73577   0.00000  Uiso   1.00
C936   C     0.98590   0.23892   0.76489   0.00000  Uiso   1.00
C937   C     0.85810   0.04719   0.79433   0.00000  Uiso   1.00
C938   C     0.87754   0.45211   0.72080   0.00000  Uiso   1.00
C939   C     0.84762   0.09165   0.79469   0.00000  Uiso   1.00
C940   C     0.83511   0.33614   0.75025   0.00000  Uiso   1.00
C941   C     0.87058   0.40648   0.71829   0.00000  Uiso   1.00
C942   C     0.84424   0.11568   0.75101   0.00000  Uiso   1.00
C943   C     0.84066   0.38424   0.75099   0.00000  Uiso   1.00
C944   C     0.85255   0.09276   0.70848   0.00000  Uiso   1.00
C945   C     0.81785   0.40910   0.78516   0.00000  Uiso   1.00
C946   C     0.85570   0.04706   0.70977   0.00000  Uiso   1.00
C947   C     0.82262   0.45486   0.78341   0.00000  Uiso   1.00
C948   C     0.85743   0.02437   0.75219   0.00000  Uiso   1.00
C949   C     0.85318   0.47626   0.75244   0.00000  Uiso   1.00
C950   C     0.99687   0.30350   0.70890   0.00000  Uiso   1.00
C951   C     0.78917   0.23255   0.54744   0.00000  Uiso   1.00
C952   C     0.70429   0.33268   0.68717   0.00000  Uiso   1.00
C953   C     0.67236   0.19991   0.79567   0.00000  Uiso   1.00
C954   C     0.96459   0.16465   0.80592   0.00000  Uiso   1.00
C955   C     0.83484   0.10861   0.84208   0.00000  Uiso   1.00
C956   C     0.77604   0.10805   0.84280   0.00000  Uiso   1.00
C957   C     0.89733   0.38410   0.68067   0.00000  Uiso   1.00
C958   C     0.86374   0.38389   0.63295   0.00000  Uiso   1.00
C959   C     0.85838   0.11392   0.66067   0.00000  Uiso   1.00
C960   C     0.91119   0.13847   0.66030   0.00000  Uiso   1.00
C961   C     0.78944   0.38978   0.82507   0.00000  Uiso   1.00
C962   C     0.85589   0.28568   0.95038   0.00000  Uiso   1.00
C963   C     0.73567   0.36946   0.80813   0.00000  Uiso   1.00
C964   C     0.71011   0.25235   0.99762   0.00000  Uiso   1.00
C965   C     0.83040   0.35615   0.97724   0.00000  Uiso   1.00
C966   C     0.75153   0.19931   0.61752   0.00000  Uiso   1.00
C967   C     0.69734   0.21839   0.61358   0.00000  Uiso   1.00
C968   C     0.90296   0.31204   0.88248   0.00000  Uiso   1.00
C969   C     0.95747   0.29779   0.90053   0.00000  Uiso   1.00
C970   C     0.79218   0.22932   0.59752   0.00000  Uiso   1.00
C971   C     0.86174   0.28220   0.90153   0.00000  Uiso   1.00
C972   C     0.87354   0.26900   0.60582   0.00000  Uiso   1.00
C973   C     0.80677   0.21744   0.89474   0.00000  Uiso   1.00
C974   C     0.87498   0.26721   0.55680   0.00000  Uiso   1.00
H975   H     0.86219   0.02901   0.82723   0.00000  Uiso   1.00
H976   H     0.72062   0.31529   0.65853   0.00000  Uiso   1.00
H977   H     0.68569   0.36241   0.67147   0.00000  Uiso   1.00
H978   H     0.96832   0.29311   0.67928   0.00000  Uiso   1.00
H979   H     0.97870   0.32470   0.73358   0.00000  Uiso   1.00
H980   H     0.93761   0.17762   0.82944   0.00000  Uiso   1.00
H981   H     0.94308   0.15226   0.77237   0.00000  Uiso   1.00
H982   H     0.98388   0.13639   0.82425   0.00000  Uiso   1.00
H983   H     0.70069   0.18194   0.77738   0.00000  Uiso   1.00
H984   H     0.69216   0.21290   0.82986   0.00000  Uiso   1.00
H985   H     0.76686   0.11692   0.87859   0.00000  Uiso   1.00
H986   H     0.90203   0.46895   0.69747   0.00000  Uiso   1.00
H987   H     0.75823   0.13165   0.81672   0.00000  Uiso   1.00
H988   H     0.75871   0.07442   0.83409   0.00000  Uiso   1.00
H989   H     0.85034   0.08676   0.87128   0.00000  Uiso   1.00
H990   H     0.85431   0.14085   0.85261   0.00000  Uiso   1.00
H991   H     0.82629   0.36520   0.63503   0.00000  Uiso   1.00
H992   H     0.85574   0.41825   0.62161   0.00000  Uiso   1.00
H993   H     0.88451   0.36809   0.60593   0.00000  Uiso   1.00
H994   H     0.93497   0.40194   0.67673   0.00000  Uiso   1.00
H995   H     0.90800   0.35030   0.69036   0.00000  Uiso   1.00
H996   H     0.91807   0.16428   0.68808   0.00000  Uiso   1.00
H997   H     0.85603   0.02885   0.67712   0.00000  Uiso   1.00
H998   H     0.94274   0.11477   0.66608   0.00000  Uiso   1.00
H999   H     0.91316   0.15454   0.62549   0.00000  Uiso   1.00
H1000  H     0.85593   0.08845   0.63232   0.00000  Uiso   1.00
H1001  H     0.82576   0.13494   0.64880   0.00000  Uiso   1.00
H1002  H     0.73867   0.33612   0.79329   0.00000  Uiso   1.00
H1003  H     0.71275   0.36573   0.83855   0.00000  Uiso   1.00
H1004  H     0.71459   0.39096   0.78150   0.00000  Uiso   1.00
H1005  H     0.81319   0.36593   0.84642   0.00000  Uiso   1.00
H1006  H     0.78372   0.41608   0.85096   0.00000  Uiso   1.00
H1007  H     0.72498   0.18838   0.52455   0.00000  Uiso   1.00
H1008  H     0.80210   0.47414   0.80666   0.00000  Uiso   1.00
H1009  H     0.72751   0.28605   0.50578   0.00000  Uiso   1.00
H1010  H     0.70423   0.24783   0.95872   0.00000  Uiso   1.00
H1011  H     0.67174   0.24959   0.51125   0.00000  Uiso   1.00
H1012  H     0.90621   0.34056   0.97043   0.00000  Uiso   1.00
H1013  H     0.84471   0.38472   0.50029   0.00000  Uiso   1.00
H1014  H     0.79647   0.34006   0.99184   0.00000  Uiso   1.00
H1015  H     0.81821   0.36838   0.94106   0.00000  Uiso   1.00
H1016  H     0.69954   0.25490   0.61099   0.00000  Uiso   1.00
H1017  H     0.67245   0.20482   0.58220   0.00000  Uiso   1.00
H1018  H     0.67771   0.20886   0.64494   0.00000  Uiso   1.00
H1019  H     0.90521   0.28511   0.62741   0.00000  Uiso   1.00
H1020  H     0.74885   0.16686   0.59906   0.00000  Uiso   1.00
H1021  H     0.76335   0.19010   0.65404   0.00000  Uiso   1.00
H1022  H     0.96463   0.29958   0.93956   0.00000  Uiso   1.00
H1023  H     0.96260   0.26335   0.88912   0.00000  Uiso   1.00
H1024  H     0.98687   0.31981   0.88579   0.00000  Uiso   1.00
H1025  H     0.90103   0.31154   0.84431   0.00000  Uiso   1.00
H1026  H     0.89837   0.34711   0.89180   0.00000  Uiso   1.00
H1027  H     0.78505   0.19241   0.87308   0.00000  Uiso   1.00
H1028  H     0.90982   0.27978   0.54296   0.00000  Uiso   1.00
H1029  H     0.79198   0.18600   0.95925   0.00000  Uiso   1.00
H1030  H     0.73601   0.34405   0.71405   0.00000  Uiso   1.00
N1031  N     0.83333   0.24999   0.62623   0.00000  Uiso   1.00
N1032  N     0.83333   0.25001   0.87376   0.00000  Uiso   1.00
N1033  N     0.74304   0.21837   0.51819   0.00000  Uiso   1.00
N1034  N     0.87127   0.32540   0.97623   0.00000  Uiso   1.00
O1035  O     0.83334   0.18454   0.78974   0.00000  Uiso   1.00
O1036  O     0.83333   0.31547   0.71026   0.00000  Uiso   1.00
O1037  O     0.83334   0.18453   0.71026   0.00000  Uiso   1.00
O1038  O     0.83333   0.31547   0.78974   0.00000  Uiso   1.00
O1039  O     0.75725   0.25000   0.78044   0.00000  Uiso   1.00
O1040  O     0.90942   0.25000   0.71955   0.00000  Uiso   1.00
O1041  O     0.75725   0.24999   0.70096   0.00000  Uiso   1.00
O1042  O     0.90942   0.25001   0.79903   0.00000  Uiso   1.00
Zn1043 Zn    0.83333   0.25001   0.80307   0.00000  Uiso   1.00
Zn1044 Zn    0.83333   0.25000   0.69693   0.00000  Uiso   1.00
C1045  C     0.16856   0.66361   0.75019   0.00000  Uiso   1.00
C1046  C     0.14248   0.71507   0.94415   0.00000  Uiso   1.00
C1047  C     0.16538   0.75001   0.52636   0.00000  Uiso   1.00
C1048  C     0.16560   0.75020   0.97305   0.00000  Uiso   1.00
C1049  C     0.06788   0.75252   0.73855   0.00000  Uiso   1.00
C1050  C     0.26580   0.74801   0.76155   0.00000  Uiso   1.00
C1051  C     0.01505   0.76206   0.73577   0.00000  Uiso   1.00
C1052  C     0.31923   0.73892   0.76489   0.00000  Uiso   1.00
C1053  C     0.19143   0.54719   0.79433   0.00000  Uiso   1.00
C1054  C     0.21088   0.95211   0.72080   0.00000  Uiso   1.00
C1055  C     0.18095   0.59165   0.79469   0.00000  Uiso   1.00
C1056  C     0.16844   0.83614   0.75025   0.00000  Uiso   1.00
C1057  C     0.20391   0.90648   0.71829   0.00000  Uiso   1.00
C1058  C     0.17757   0.61568   0.75101   0.00000  Uiso   1.00
C1059  C     0.17400   0.88424   0.75099   0.00000  Uiso   1.00
C1060  C     0.18589   0.59276   0.70848   0.00000  Uiso   1.00
C1061  C     0.15119   0.90910   0.78516   0.00000  Uiso   1.00
C1062  C     0.18903   0.54706   0.70977   0.00000  Uiso   1.00
C1063  C     0.15595   0.95486   0.78341   0.00000  Uiso   1.00
C1064  C     0.19077   0.52437   0.75219   0.00000  Uiso   1.00
C1065  C     0.18651   0.97626   0.75244   0.00000  Uiso   1.00
C1066  C     0.33020   0.80350   0.70890   0.00000  Uiso   1.00
C1067  C     0.12250   0.73255   0.54744   0.00000  Uiso   1.00
C1068  C     0.03763   0.83268   0.68717   0.00000  Uiso   1.00
C1069  C     0.00570   0.69991   0.79567   0.00000  Uiso   1.00
C1070  C     0.29792   0.66465   0.80592   0.00000  Uiso   1.00
C1071  C     0.16817   0.60861   0.84208   0.00000  Uiso   1.00
C1072  C     0.10938   0.60805   0.84280   0.00000  Uiso   1.00
C1073  C     0.23066   0.88410   0.68067   0.00000  Uiso   1.00
C1074  C     0.19708   0.88389   0.63295   0.00000  Uiso   1.00
C1075  C     0.19171   0.61392   0.66067   0.00000  Uiso   1.00
C1076  C     0.24453   0.63847   0.66030   0.00000  Uiso   1.00
C1077  C     0.12277   0.88978   0.82507   0.00000  Uiso   1.00
C1078  C     0.18922   0.78568   0.95038   0.00000  Uiso   1.00
C1079  C     0.06900   0.86946   0.80813   0.00000  Uiso   1.00
C1080  C     0.04344   0.75235   0.99762   0.00000  Uiso   1.00
C1081  C     0.16373   0.85615   0.97724   0.00000  Uiso   1.00
C1082  C     0.08486   0.69931   0.61752   0.00000  Uiso   1.00
C1083  C     0.03068   0.71839   0.61358   0.00000  Uiso   1.00
C1084  C     0.23629   0.81204   0.88248   0.00000  Uiso   1.00
C1085  C     0.29081   0.79779   0.90053   0.00000  Uiso   1.00
C1086  C     0.12551   0.72932   0.59752   0.00000  Uiso   1.00
C1087  C     0.19507   0.78220   0.90153   0.00000  Uiso   1.00
C1088  C     0.20687   0.76900   0.60582   0.00000  Uiso   1.00
C1089  C     0.14010   0.71744   0.89474   0.00000  Uiso   1.00
C1090  C     0.20832   0.76721   0.55680   0.00000  Uiso   1.00
H1091  H     0.19552   0.52901   0.82723   0.00000  Uiso   1.00
H1092  H     0.05396   0.81529   0.65853   0.00000  Uiso   1.00
H1093  H     0.01903   0.86241   0.67147   0.00000  Uiso   1.00
H1094  H     0.30166   0.79311   0.67928   0.00000  Uiso   1.00
H1095  H     0.31204   0.82470   0.73358   0.00000  Uiso   1.00
H1096  H     0.27094   0.67762   0.82944   0.00000  Uiso   1.00
H1097  H     0.27641   0.65226   0.77237   0.00000  Uiso   1.00
H1098  H     0.31722   0.63639   0.82425   0.00000  Uiso   1.00
H1099  H     0.03403   0.68194   0.77738   0.00000  Uiso   1.00
H1100  H     0.02550   0.71290   0.82986   0.00000  Uiso   1.00
H1101  H     0.10019   0.61692   0.87859   0.00000  Uiso   1.00
H1102  H     0.23537   0.96895   0.69747   0.00000  Uiso   1.00
H1103  H     0.09156   0.63165   0.81672   0.00000  Uiso   1.00
H1104  H     0.09204   0.57442   0.83409   0.00000  Uiso   1.00
H1105  H     0.18367   0.58676   0.87128   0.00000  Uiso   1.00
H1106  H     0.18764   0.64085   0.85261   0.00000  Uiso   1.00
H1107  H     0.15963   0.86520   0.63503   0.00000  Uiso   1.00
H1108  H     0.18907   0.91825   0.62161   0.00000  Uiso   1.00
H1109  H     0.21784   0.86809   0.60593   0.00000  Uiso   1.00
H1110  H     0.26830   0.90194   0.67673   0.00000  Uiso   1.00
H1111  H     0.24133   0.85030   0.69036   0.00000  Uiso   1.00
H1112  H     0.25140   0.66428   0.68808   0.00000  Uiso   1.00
H1113  H     0.18936   0.52885   0.67712   0.00000  Uiso   1.00
H1114  H     0.27607   0.61477   0.66608   0.00000  Uiso   1.00
H1115  H     0.24650   0.65454   0.62549   0.00000  Uiso   1.00
H1116  H     0.18927   0.58845   0.63232   0.00000  Uiso   1.00
H1117  H     0.15909   0.63494   0.64880   0.00000  Uiso   1.00
H1118  H     0.07201   0.83612   0.79329   0.00000  Uiso   1.00
H1119  H     0.04608   0.86573   0.83855   0.00000  Uiso   1.00
H1120  H     0.04792   0.89096   0.78150   0.00000  Uiso   1.00
H1121  H     0.14653   0.86593   0.84642   0.00000  Uiso   1.00
H1122  H     0.11706   0.91608   0.85096   0.00000  Uiso   1.00
H1123  H     0.05831   0.68838   0.52455   0.00000  Uiso   1.00
H1124  H     0.13544   0.97414   0.80666   0.00000  Uiso   1.00
H1125  H     0.06084   0.78605   0.50578   0.00000  Uiso   1.00
H1126  H     0.03756   0.74783   0.95872   0.00000  Uiso   1.00
H1127  H     0.00507   0.74959   0.51125   0.00000  Uiso   1.00
H1128  H     0.23954   0.84056   0.97043   0.00000  Uiso   1.00
H1129  H     0.17804   0.88472   0.50029   0.00000  Uiso   1.00
H1130  H     0.12981   0.84006   0.99184   0.00000  Uiso   1.00
H1131  H     0.15154   0.86838   0.94106   0.00000  Uiso   1.00
H1132  H     0.03287   0.75490   0.61099   0.00000  Uiso   1.00
H1133  H     0.00579   0.70482   0.58220   0.00000  Uiso   1.00
H1134  H     0.01104   0.70886   0.64494   0.00000  Uiso   1.00
H1135  H     0.23854   0.78511   0.62741   0.00000  Uiso   1.00
H1136  H     0.08218   0.66686   0.59906   0.00000  Uiso   1.00
H1137  H     0.09668   0.69010   0.65404   0.00000  Uiso   1.00
H1138  H     0.29796   0.79958   0.93956   0.00000  Uiso   1.00
H1139  H     0.29593   0.76335   0.88912   0.00000  Uiso   1.00
H1140  H     0.32021   0.81981   0.88579   0.00000  Uiso   1.00
H1141  H     0.23436   0.81154   0.84431   0.00000  Uiso   1.00
H1142  H     0.23171   0.84711   0.89180   0.00000  Uiso   1.00
H1143  H     0.11839   0.69241   0.87308   0.00000  Uiso   1.00
H1144  H     0.24316   0.77978   0.54296   0.00000  Uiso   1.00
H1145  H     0.12531   0.68600   0.95925   0.00000  Uiso   1.00
H1146  H     0.06934   0.84405   0.71405   0.00000  Uiso   1.00
N1147  N     0.16667   0.74999   0.62623   0.00000  Uiso   1.00
N1148  N     0.16667   0.75001   0.87376   0.00000  Uiso   1.00
N1149  N     0.07638   0.71837   0.51819   0.00000  Uiso   1.00
N1150  N     0.20461   0.82540   0.97623   0.00000  Uiso   1.00
O1151  O     0.16667   0.68454   0.78974   0.00000  Uiso   1.00
O1152  O     0.16666   0.81547   0.71026   0.00000  Uiso   1.00
O1153  O     0.16667   0.68453   0.71026   0.00000  Uiso   1.00
O1154  O     0.16666   0.81547   0.78974   0.00000  Uiso   1.00
O1155  O     0.09058   0.75000   0.78044   0.00000  Uiso   1.00
O1156  O     0.24275   0.75000   0.71955   0.00000  Uiso   1.00
O1157  O     0.09058   0.74999   0.70096   0.00000  Uiso   1.00
O1158  O     0.24275   0.75001   0.79903   0.00000  Uiso   1.00
Zn1159 Zn    0.16667   0.75001   0.80307   0.00000  Uiso   1.00
Zn1160 Zn    0.16667   0.75000   0.69693   0.00000  Uiso   1.00
C1161  C     0.50189   0.66361   0.75019   0.00000  Uiso   1.00
C1162  C     0.47581   0.71507   0.94415   0.00000  Uiso   1.00
C1163  C     0.49871   0.75001   0.52636   0.00000  Uiso   1.00
C1164  C     0.49893   0.75020   0.97305   0.00000  Uiso   1.00
C1165  C     0.40121   0.75252   0.73855   0.00000  Uiso   1.00
C1166  C     0.59913   0.74801   0.76155   0.00000  Uiso   1.00
C1167  C     0.34839   0.76206   0.73577   0.00000  Uiso   1.00
C1168  C     0.65256   0.73892   0.76489   0.00000  Uiso   1.00
C1169  C     0.52477   0.54719   0.79433   0.00000  Uiso   1.00
C1170  C     0.54421   0.95211   0.72080   0.00000  Uiso   1.00
C1171  C     0.51428   0.59165   0.79469   0.00000  Uiso   1.00
C1172  C     0.50177   0.83614   0.75025   0.00000  Uiso   1.00
C1173  C     0.53724   0.90648   0.71829   0.00000  Uiso   1.00
C1174  C     0.51091   0.61568   0.75101   0.00000  Uiso   1.00
C1175  C     0.50733   0.88424   0.75099   0.00000  Uiso   1.00
C1176  C     0.51922   0.59276   0.70848   0.00000  Uiso   1.00
C1177  C     0.48452   0.90910   0.78516   0.00000  Uiso   1.00
C1178  C     0.52236   0.54706   0.70977   0.00000  Uiso   1.00
C1179  C     0.48929   0.95486   0.78341   0.00000  Uiso   1.00
C1180  C     0.52410   0.52437   0.75219   0.00000  Uiso   1.00
C1181  C     0.51985   0.97626   0.75244   0.00000  Uiso   1.00
C1182  C     0.66353   0.80350   0.70890   0.00000  Uiso   1.00
C1183  C     0.45583   0.73255   0.54744   0.00000  Uiso   1.00
C1184  C     0.37096   0.83268   0.68717   0.00000  Uiso   1.00
C1185  C     0.33903   0.69991   0.79567   0.00000  Uiso   1.00
C1186  C     0.63126   0.66465   0.80592   0.00000  Uiso   1.00
C1187  C     0.50151   0.60861   0.84208   0.00000  Uiso   1.00
C1188  C     0.44271   0.60805   0.84280   0.00000  Uiso   1.00
C1189  C     0.56399   0.88410   0.68067   0.00000  Uiso   1.00
C1190  C     0.53041   0.88389   0.63295   0.00000  Uiso   1.00
C1191  C     0.52505   0.61392   0.66067   0.00000  Uiso   1.00
C1192  C     0.57786   0.63847   0.66030   0.00000  Uiso   1.00
C1193  C     0.45611   0.88978   0.82507   0.00000  Uiso   1.00
C1194  C     0.52255   0.78568   0.95038   0.00000  Uiso   1.00
C1195  C     0.40234   0.86946   0.80813   0.00000  Uiso   1.00
C1196  C     0.37678   0.75235   0.99762   0.00000  Uiso   1.00
C1197  C     0.49706   0.85615   0.97724   0.00000  Uiso   1.00
C1198  C     0.41820   0.69931   0.61752   0.00000  Uiso   1.00
C1199  C     0.36401   0.71839   0.61358   0.00000  Uiso   1.00
C1200  C     0.56962   0.81204   0.88248   0.00000  Uiso   1.00
C1201  C     0.62414   0.79779   0.90053   0.00000  Uiso   1.00
C1202  C     0.45885   0.72932   0.59752   0.00000  Uiso   1.00
C1203  C     0.52840   0.78220   0.90153   0.00000  Uiso   1.00
C1204  C     0.54020   0.76900   0.60582   0.00000  Uiso   1.00
C1205  C     0.47343   0.71744   0.89474   0.00000  Uiso   1.00
C1206  C     0.54165   0.76721   0.55680   0.00000  Uiso   1.00
H1207  H     0.52885   0.52901   0.82723   0.00000  Uiso   1.00
H1208  H     0.38729   0.81529   0.65853   0.00000  Uiso   1.00
H1209  H     0.35236   0.86241   0.67147   0.00000  Uiso   1.00
H1210  H     0.63499   0.79311   0.67928   0.00000  Uiso   1.00
H1211  H     0.64537   0.82470   0.73358   0.00000  Uiso   1.00
H1212  H     0.60427   0.67762   0.82944   0.00000  Uiso   1.00
H1213  H     0.60975   0.65226   0.77237   0.00000  Uiso   1.00
H1214  H     0.65055   0.63639   0.82425   0.00000  Uiso   1.00
H1215  H     0.36736   0.68194   0.77738   0.00000  Uiso   1.00
H1216  H     0.35883   0.71290   0.82986   0.00000  Uiso   1.00
H1217  H     0.43353   0.61692   0.87859   0.00000  Uiso   1.00
H1218  H     0.56870   0.96895   0.69747   0.00000  Uiso   1.00
H1219  H     0.42489   0.63165   0.81672   0.00000  Uiso   1.00
H1220  H     0.42538   0.57442   0.83409   0.00000  Uiso   1.00
H1221  H     0.51700   0.58676   0.87128   0.00000  Uiso   1.00
H1222  H     0.52098   0.64085   0.85261   0.00000  Uiso   1.00
H1223  H     0.49296   0.86520   0.63503   0.00000  Uiso   1.00
H1224  H     0.52241   0.91825   0.62161   0.00000  Uiso   1.00
H1225  H     0.55117   0.86809   0.60593   0.00000  Uiso   1.00
H1226  H     0.60164   0.90194   0.67673   0.00000  Uiso   1.00
H1227  H     0.57466   0.85030   0.69036   0.00000  Uiso   1.00
H1228  H     0.58473   0.66428   0.68808   0.00000  Uiso   1.00
H1229  H     0.52270   0.52885   0.67712   0.00000  Uiso   1.00
H1230  H     0.60941   0.61477   0.66608   0.00000  Uiso   1.00
H1231  H     0.57983   0.65454   0.62549   0.00000  Uiso   1.00
H1232  H     0.52260   0.58845   0.63232   0.00000  Uiso   1.00
H1233  H     0.49243   0.63494   0.64880   0.00000  Uiso   1.00
H1234  H     0.40534   0.83612   0.79329   0.00000  Uiso   1.00
H1235  H     0.37941   0.86573   0.83855   0.00000  Uiso   1.00
H1236  H     0.38126   0.89096   0.78150   0.00000  Uiso   1.00
H1237  H     0.47986   0.86593   0.84642   0.00000  Uiso   1.00
H1238  H     0.45039   0.91608   0.85096   0.00000  Uiso   1.00
H1239  H     0.39164   0.68838   0.52455   0.00000  Uiso   1.00
H1240  H     0.46877   0.97414   0.80666   0.00000  Uiso   1.00
H1241  H     0.39418   0.78605   0.50578   0.00000  Uiso   1.00
H1242  H     0.37090   0.74783   0.95872   0.00000  Uiso   1.00
H1243  H     0.33840   0.74959   0.51125   0.00000  Uiso   1.00
H1244  H     0.57287   0.84056   0.97043   0.00000  Uiso   1.00
H1245  H     0.51137   0.88472   0.50029   0.00000  Uiso   1.00
H1246  H     0.46314   0.84006   0.99184   0.00000  Uiso   1.00
H1247  H     0.48487   0.86838   0.94106   0.00000  Uiso   1.00
H1248  H     0.36621   0.75490   0.61099   0.00000  Uiso   1.00
H1249  H     0.33912   0.70482   0.58220   0.00000  Uiso   1.00
H1250  H     0.34438   0.70886   0.64494   0.00000  Uiso   1.00
H1251  H     0.57187   0.78511   0.62741   0.00000  Uiso   1.00
H1252  H     0.41551   0.66686   0.59906   0.00000  Uiso   1.00
H1253  H     0.43002   0.69010   0.65404   0.00000  Uiso   1.00
H1254  H     0.63129   0.79958   0.93956   0.00000  Uiso   1.00
H1255  H     0.62927   0.76335   0.88912   0.00000  Uiso   1.00
H1256  H     0.65354   0.81981   0.88579   0.00000  Uiso   1.00
H1257  H     0.56770   0.81154   0.84431   0.00000  Uiso   1.00
H1258  H     0.56504   0.84711   0.89180   0.00000  Uiso   1.00
H1259  H     0.45172   0.69241   0.87308   0.00000  Uiso   1.00
H1260  H     0.57649   0.77978   0.54296   0.00000  Uiso   1.00
H1261  H     0.45865   0.68600   0.95925   0.00000  Uiso   1.00
H1262  H     0.40268   0.84405   0.71405   0.00000  Uiso   1.00
N1263  N     0.50000   0.74999   0.62623   0.00000  Uiso   1.00
N1264  N     0.50000   0.75001   0.87376   0.00000  Uiso   1.00
N1265  N     0.40971   0.71837   0.51819   0.00000  Uiso   1.00
N1266  N     0.53794   0.82540   0.97623   0.00000  Uiso   1.00
O1267  O     0.50000   0.68454   0.78974   0.00000  Uiso   1.00
O1268  O     0.50000   0.81547   0.71026   0.00000  Uiso   1.00
O1269  O     0.50000   0.68453   0.71026   0.00000  Uiso   1.00
O1270  O     0.50000   0.81547   0.78974   0.00000  Uiso   1.00
O1271  O     0.42392   0.75000   0.78044   0.00000  Uiso   1.00
O1272  O     0.57608   0.75000   0.71955   0.00000  Uiso   1.00
O1273  O     0.42392   0.74999   0.70096   0.00000  Uiso   1.00
O1274  O     0.57608   0.75001   0.79903   0.00000  Uiso   1.00
Zn1275 Zn    0.50000   0.75001   0.80307   0.00000  Uiso   1.00
Zn1276 Zn    0.50000   0.75000   0.69693   0.00000  Uiso   1.00
C1277  C     0.83523   0.66361   0.75019   0.00000  Uiso   1.00
C1278  C     0.80914   0.71507   0.94415   0.00000  Uiso   1.00
C1279  C     0.83204   0.75001   0.52636   0.00000  Uiso   1.00
C1280  C     0.83227   0.75020   0.97305   0.00000  Uiso   1.00
C1281  C     0.73455   0.75252   0.73855   0.00000  Uiso   1.00
C1282  C     0.93247   0.74801   0.76155   0.00000  Uiso   1.00
C1283  C     0.68172   0.76206   0.73577   0.00000  Uiso   1.00
C1284  C     0.98590   0.73892   0.76489   0.00000  Uiso   1.00
C1285  C     0.85810   0.54719   0.79433   0.00000  Uiso   1.00
C1286  C     0.87754   0.95211   0.72080   0.00000  Uiso   1.00
C1287  C     0.84762   0.59165   0.79469   0.00000  Uiso   1.00
C1288  C     0.83511   0.83614   0.75025   0.00000  Uiso   1.00
C1289  C     0.87058   0.90648   0.71829   0.00000  Uiso   1.00
C1290  C     0.84424   0.61568   0.75101   0.00000  Uiso   1.00
C1291  C     0.84066   0.88424   0.75099   0.00000  Uiso   1.00
C1292  C     0.85255   0.59276   0.70848   0.00000  Uiso   1.00
C1293  C     0.81785   0.90910   0.78516   0.00000  Uiso   1.00
C1294  C     0.85570   0.54706   0.70977   0.00000  Uiso   1.00
C1295  C     0.82262   0.95486   0.78341   0.00000  Uiso   1.00
C1296  C     0.85743   0.52437   0.75219   0.00000  Uiso   1.00
C1297  C     0.85318   0.97626   0.75244   0.00000  Uiso   1.00
C1298  C     0.99687   0.80350   0.70890   0.00000  Uiso   1.00
C1299  C     0.78917   0.73255   0.54744   0.00000  Uiso   1.00
C1300  C     0.70429   0.83268   0.68717   0.00000  Uiso   1.00
C1301  C     0.67236   0.69991   0.79567   0.00000  Uiso   1.00
C1302  C     0.96459   0.66465   0.80592   0.00000  Uiso   1.00
C1303  C     0.83484   0.60861   0.84208   0.00000  Uiso   1.00
C1304  C     0.77604   0.60805   0.84280   0.00000  Uiso   1.00
C1305  C     0.89733   0.88410   0.68067   0.00000  Uiso   1.00
C1306  C     0.86374   0.88389   0.63295   0.00000  Uiso   1.00
C1307  C     0.85838   0.61392   0.66067   0.00000  Uiso   1.00
C1308  C     0.91119   0.63847   0.66030   0.00000  Uiso   1.00
C1309  C     0.78944   0.88978   0.82507   0.00000  Uiso   1.00
C1310  C     0.85589   0.78568   0.95038   0.00000  Uiso   1.00
C1311  C     0.73567   0.86946   0.80813   0.00000  Uiso   1.00
C1312  C     0.71011   0.75235   0.99762   0.00000  Uiso   1.00
C1313  C     0.83040   0.85615   0.97724   0.00000  Uiso   1.00
C1314  C     0.75153   0.69931   0.61752   0.00000  Uiso   1.00
C1315  C     0.69734   0.71839   0.61358   0.00000  Uiso   1.00
C1316  C     0.90296   0.81204   0.88248   0.00000  Uiso   1.00
C1317  C     0.95747   0.79779   0.90053   0.00000  Uiso   1.00
C1318  C     0.79218   0.72932   0.59752   0.00000  Uiso   1.00
C1319  C     0.86174   0.78220   0.90153   0.00000  Uiso   1.00
C1320  C     0.87354   0.76900   0.60582   0.00000  Uiso   1.00
C1321  C     0.80677   0.71744   0.89474   0.00000  Uiso   1.00
C1322  C     0.87498   0.76721   0.55680   0.00000  Uiso   1.00
H1323  H     0.86219   0.52901   0.82723   0.00000  Uiso   1.00
H1324  H     0.72062   0.81529   0.65853   0.00000  Uiso   1.00
H1325  H     0.68569   0.86241   0.67147   0.00000  Uiso   1.00
H1326  H     0.96832   0.79311   0.67928   0.00000  Uiso   1.00
H1327  H     0.97870   0.82470   0.73358   0.00000  Uiso   1.00
H1328  H     0.93761   0.67762   0.82944   0.00000  Uiso   1.00
H1329  H     0.94308   0.65226   0.77237   0.00000  Uiso   1.00
H1330  H     0.98388   0.63639   0.82425   0.00000  Uiso   1.00
H1331  H     0.70069   0.68194   0.77738   0.00000  Uiso   1.00
H1332  H     0.69216   0.71290   0.82986   0.00000  Uiso   1.00
H1333  H     0.76686   0.61692   0.87859   0.00000  Uiso   1.00
H1334  H     0.90203   0.96895   0.69747   0.00000  Uiso   1.00
H1335  H     0.75823   0.63165   0.81672   0.00000  Uiso   1.00
H1336  H     0.75871   0.57442   0.83409   0.00000  Uiso   1.00
H1337  H     0.85034   0.58676   0.87128   0.00000  Uiso   1.00
H1338  H     0.85431   0.64085   0.85261   0.00000  Uiso   1.00
H1339  H     0.82629   0.86520   0.63503   0.00000  Uiso   1.00
H1340  H     0.85574   0.91825   0.62161   0.00000  Uiso   1.00
H1341  H     0.88451   0.86809   0.60593   0.00000  Uiso   1.00
H1342  H     0.93497   0.90194   0.67673   0.00000  Uiso   1.00
H1343  H     0.90800   0.85030   0.69036   0.00000  Uiso   1.00
H1344  H     0.91807   0.66428   0.68808   0.00000  Uiso   1.00
H1345  H     0.85603   0.52885   0.67712   0.00000  Uiso   1.00
H1346  H     0.94274   0.61477   0.66608   0.00000  Uiso   1.00
H1347  H     0.91316   0.65454   0.62549   0.00000  Uiso   1.00
H1348  H     0.85593   0.58845   0.63232   0.00000  Uiso   1.00
H1349  H     0.82576   0.63494   0.64880   0.00000  Uiso   1.00
H1350  H     0.73867   0.83612   0.79329   0.00000  Uiso   1.00
H1351  H     0.71275   0.86573   0.83855   0.00000  Uiso   1.00
H1352  H     0.71459   0.89096   0.78150   0.00000  Uiso   1.00
H1353  H     0.81319   0.86593   0.84642   0.00000  Uiso   1.00
H1354  H     0.78372   0.91608   0.85096   0.00000  Uiso   1.00
H1355  H     0.72498   0.68838   0.52455   0.00000  Uiso   1.00
H1356  H     0.80210   0.97414   0.80666   0.00000  Uiso   1.00
H1357  H     0.72751   0.78605   0.50578   0.00000  Uiso   1.00
H1358  H     0.70423   0.74783   0.95872   0.00000  Uiso   1.00
H1359  H     0.67174   0.74959   0.51125   0.00000  Uiso   1.00
H1360  H     0.90621   0.84056   0.97043   0.00000  Uiso   1.00
H1361  H     0.84471   0.88472   0.50029   0.00000  Uiso   1.00
H1362  H     0.79647   0.84006   0.99184   0.00000  Uiso   1.00
H1363  H     0.81821   0.86838   0.94106   0.00000  Uiso   1.00
H1364  H     0.69954   0.75490   0.61099   0.00000  Uiso   1.00
H1365  H     0.67245   0.70482   0.58220   0.00000  Uiso   1.00
H1366  H     0.67771   0.70886   0.64494   0.00000  Uiso   1.00
H1367  H     0.90521   0.78511   0.62741   0.00000  Uiso   1.00
H1368  H     0.74885   0.66686   0.59906   0.00000  Uiso   1.00
H1369  H     0.76335   0.69010   0.65404   0.00000  Uiso   1.00
H1370  H     0.96463   0.79958   0.93956   0.00000  Uiso   1.00
H1371  H     0.96260   0.76335   0.88912   0.00000  Uiso   1.00
H1372  H     0.98687   0.81981   0.88579   0.00000  Uiso   1.00
H1373  H     0.90103   0.81154   0.84431   0.00000  Uiso   1.00
H1374  H     0.89837   0.84711   0.89180   0.00000  Uiso   1.00
H1375  H     0.78505   0.69241   0.87308   0.00000  Uiso   1.00
H1376  H     0.90982   0.77978   0.54296   0.00000  Uiso   1.00
H1377  H     0.79198   0.68600   0.95925   0.00000  Uiso   1.00
H1378  H     0.73601   0.84405   0.71405   0.00000  Uiso   1.00
N1379  N     0.83333   0.74999   0.62623   0.00000  Uiso   1.00
N1380  N     0.83333   0.75001   0.87376   0.00000  Uiso   1.00
N1381  N     0.74304   0.71837   0.51819   0.00000  Uiso   1.00
N1382  N     0.87127   0.82540   0.97623   0.00000  Uiso   1.00
O1383  O     0.83334   0.68454   0.78974   0.00000  Uiso   1.00
O1384  O     0.83333   0.81547   0.71026   0.00000  Uiso   1.00
O1385  O     0.83334   0.68453   0.71026   0.00000  Uiso   1.00
O1386  O     0.83333   0.81547   0.78974   0.00000  Uiso   1.00
O1387  O     0.75725   0.75000   0.78044   0.00000  Uiso   1.00
O1388  O     0.90942   0.75000   0.71955   0.00000  Uiso   1.00
O1389  O     0.75725   0.74999   0.70096   0.00000  Uiso   1.00
O1390  O     0.90942   0.75001   0.79903   0.00000  Uiso   1.00
Zn1391 Zn    0.83333   0.75001   0.80307   0.00000  Uiso   1.00
Zn1392 Zn    0.83333   0.75000   0.69693   0.00000  Uiso   1.00
loop_
_geom_bond_atom_site_label_1
_geom_bond_atom_site_label_2
_geom_bond_distance
_geom_bond_site_symmetry_2
_ccdc_geom_bond_type
C1     O109    1.299   .     A
C1     O107    1.300   .     A
C1     C14     1.481   .     S
C2     C45     1.404   .     A
C2     H101    1.081   .     S
C2     C4      1.414   .     A
C3     C23     1.408   .     A
C3     C46     1.411   .     A
C3     C700    1.520   1_554 S
C4     C34     1.407   .     A
C4     C699    1.520   .     S
C5     C7      1.407   .     S
C5     O111    1.272   .     A
C5     O113    1.285   .     A
C6     O114    1.286   .     A
C6     C8      1.418   .     S
C6     O112    1.277   .     A
C7     C240    1.360   1_455 S
C7     C254    1.534   1_455 S
C8     C123    1.360   .     S
C8     C141    1.542   .     S
C9     C20     1.384   .     A
C9     C11     1.386   .     A
C9     H47     1.084   .     S
C10    H58     1.084   .     S
C10    C21     1.387   .     A
C10    C13     1.387   .     A
C11    C14     1.438   .     A
C11    C27     1.522   .     S
C12    O110    1.292   .     A
C12    C15     1.458   .     S
C12    O108    1.296   .     A
C13    C29     1.519   .     S
C13    C15     1.430   .     A
C14    C16     1.440   .     A
C15    C17     1.428   .     A
C16    C31     1.526   .     S
C16    C18     1.390   .     A
C17    C33     1.528   .     S
C17    C19     1.387   .     A
C18    C20     1.388   .     A
C18    H69     1.083   .     S
C19    H80     1.084   .     S
C19    C21     1.394   .     A
C20    C369    1.456   1_545 S
C21    C368    1.456   .     S
C22    H50     1.093   .     S
C22    H51     1.111   .     S
C22    C123    1.534   .     S
C22    C140    1.534   .     S
C23    C42     1.424   .     A
C23    N105    1.426   .     S
C24    H48     1.107   .     S
C24    H49     1.110   .     S
C24    H102    1.101   .     S
C24    C254    1.534   1_455 S
C25    H56     1.111   .     S
C25    H55     1.111   .     S
C25    C240    1.542   1_455 S
C25    C258    1.528   1_455 S
C26    H54     1.111   .     S
C26    H52     1.108   .     S
C26    H53     1.107   .     S
C26    C141    1.528   .     S
C27    H61     1.113   .     S
C27    H62     1.104   .     S
C27    C28     1.528   .     S
C28    H57     1.110   .     S
C28    H60     1.111   .     S
C28    H59     1.108   .     S
C29    H67     1.099   .     S
C29    C30     1.528   .     S
C29    H66     1.112   .     S
C30    H64     1.111   .     S
C30    H63     1.110   .     S
C30    H65     1.110   .     S
C31    H73     1.104   .     S
C31    C32     1.531   .     S
C31    H72     1.112   .     S
C32    H68     1.107   .     S
C32    H71     1.111   .     S
C32    H70     1.111   .     S
C33    H78     1.113   .     S
C33    H77     1.107   .     S
C33    C35     1.525   .     S
C34    N106    1.428   .     S
C34    C43     1.422   .     A
C35    H74     1.104   .     S
C35    H75     1.110   .     S
C35    H76     1.111   .     S
C36    H82     1.109   .     S
C36    H777    1.111   .     S
C36    H779    1.110   .     S
C36    N801    1.448   .     S
C37    H86     1.110   .     S
C37    H87     1.111   .     S
C37    N106    1.445   .     S
C37    H781    1.110   .     S
C38    C42     1.522   .     S
C38    C39     1.536   .     S
C38    H92     1.111   .     S
C38    H93     1.090   .     S
C39    H90     1.111   .     S
C39    H88     1.108   .     S
C39    H89     1.108   .     S
C40    H98     1.110   .     S
C40    C43     1.518   .     S
C40    H97     1.083   .     S
C40    C41     1.529   .     S
C41    H96     1.110   .     S
C41    H94     1.107   .     S
C41    H95     1.111   .     S
C42    N103    1.393   .     A
C43    N104    1.386   .     A
C44    N103    1.358   .     A
C44    C46     1.403   .     A
C44    H91     1.067   .     S
C45    H99     1.075   .     S
C45    N104    1.357   .     A
C46    H100    1.082   .     S
H79    N105    1.029   .     S
H81    C732    1.111   1_554 S
H83    C732    1.110   1_554 S
H84    N106    1.028   .     S
H85    C733    1.110   1_554 S
N103   Zn116   2.015   .     S
N104   Zn115   2.015   .     S
N105   C732    1.448   1_554 S
O107   Zn115   2.019   .     S
O108   Zn116   2.019   .     S
O109   Zn116   2.019   .     S
O110   Zn115   2.019   .     S
O111   Zn115   2.005   .     S
O112   Zn116   2.005   .     S
O113   Zn116   1.991   .     S
O114   Zn115   1.991   .     S
C117   O225    1.299   .     A
C117   O223    1.300   .     A
C117   C130    1.481   .     S
C118   C161    1.404   .     A
C118   H217    1.081   .     S
C118   C120    1.414   .     A
C119   C139    1.408   .     A
C119   C162    1.411   .     A
C119   C816    1.520   1_554 S
C120   C150    1.407   .     A
C120   C815    1.520   .     S
C121   C123    1.407   .     S
C121   O227    1.272   .     A
C121   O229    1.285   .     A
C122   O230    1.286   .     A
C122   C124    1.418   .     S
C122   O228    1.277   .     A
C124   C239    1.360   .     S
C124   C257    1.542   .     S
C125   C136    1.384   .     A
C125   C127    1.386   .     A
C125   H163    1.084   .     S
C126   H174    1.084   .     S
C126   C137    1.387   .     A
C126   C129    1.387   .     A
C127   C130    1.438   .     A
C127   C143    1.522   .     S
C128   O226    1.292   .     A
C128   C131    1.458   .     S
C128   O224    1.296   .     A
C129   C145    1.519   .     S
C129   C131    1.430   .     A
C130   C132    1.440   .     A
C131   C133    1.428   .     A
C132   C147    1.526   .     S
C132   C134    1.390   .     A
C133   C149    1.528   .     S
C133   C135    1.387   .     A
C134   C136    1.388   .     A
C134   H185    1.083   .     S
C135   H196    1.084   .     S
C135   C137    1.394   .     A
C136   C485    1.456   1_545 S
C137   C484    1.456   .     S
C138   H166    1.093   .     S
C138   H167    1.111   .     S
C138   C239    1.534   .     S
C138   C256    1.534   .     S
C139   C158    1.424   .     A
C139   N221    1.426   .     S
C140   H164    1.107   .     S
C140   H165    1.110   .     S
C140   H218    1.101   .     S
C141   H172    1.111   .     S
C141   H171    1.111   .     S
C142   H170    1.111   .     S
C142   H168    1.108   .     S
C142   H169    1.107   .     S
C142   C257    1.528   .     S
C143   H177    1.113   .     S
C143   H178    1.104   .     S
C143   C144    1.528   .     S
C144   H173    1.110   .     S
C144   H176    1.111   .     S
C144   H175    1.108   .     S
C145   H183    1.099   .     S
C145   C146    1.528   .     S
C145   H182    1.112   .     S
C146   H180    1.111   .     S
C146   H179    1.110   .     S
C146   H181    1.110   .     S
C147   H189    1.104   .     S
C147   C148    1.531   .     S
C147   H188    1.112   .     S
C148   H184    1.107   .     S
C148   H187    1.111   .     S
C148   H186    1.111   .     S
C149   H194    1.113   .     S
C149   H193    1.107   .     S
C149   C151    1.525   .     S
C150   N222    1.428   .     S
C150   C159    1.422   .     A
C151   H190    1.104   .     S
C151   H191    1.110   .     S
C151   H192    1.111   .     S
C152   H198    1.109   .     S
C152   H893    1.111   .     S
C152   H895    1.110   .     S
C152   N917    1.448   .     S
C153   H202    1.110   .     S
C153   H203    1.111   .     S
C153   N222    1.445   .     S
C153   H897    1.110   .     S
C154   C158    1.522   .     S
C154   C155    1.536   .     S
C154   H208    1.111   .     S
C154   H209    1.090   .     S
C155   H206    1.111   .     S
C155   H204    1.108   .     S
C155   H205    1.108   .     S
C156   H214    1.110   .     S
C156   C159    1.518   .     S
C156   H213    1.083   .     S
C156   C157    1.529   .     S
C157   H212    1.110   .     S
C157   H210    1.107   .     S
C157   H211    1.111   .     S
C158   N219    1.393   .     A
C159   N220    1.386   .     A
C160   N219    1.358   .     A
C160   C162    1.403   .     A
C160   H207    1.067   .     S
C161   H215    1.075   .     S
C161   N220    1.357   .     A
C162   H216    1.082   .     S
H195   N221    1.029   .     S
H197   C848    1.111   1_554 S
H199   C848    1.110   1_554 S
H200   N222    1.028   .     S
H201   C849    1.110   1_554 S
N219   Zn232   2.015   .     S
N220   Zn231   2.015   .     S
N221   C848    1.448   1_554 S
O223   Zn231   2.019   .     S
O224   Zn232   2.019   .     S
O225   Zn232   2.019   .     S
O226   Zn231   2.019   .     S
O227   Zn231   2.005   .     S
O228   Zn232   2.005   .     S
O229   Zn232   1.991   .     S
O230   Zn231   1.991   .     S
C233   O341    1.299   .     A
C233   O339    1.300   .     A
C233   C246    1.481   .     S
C234   C277    1.404   .     A
C234   H333    1.081   .     S
C234   C236    1.414   .     A
C235   C255    1.408   .     A
C235   C278    1.411   .     A
C235   C932    1.520   1_554 S
C236   C266    1.407   .     A
C236   C931    1.520   .     S
C237   C239    1.407   .     S
C237   O343    1.272   .     A
C237   O345    1.285   .     A
C238   O346    1.286   .     A
C238   C240    1.418   .     S
C238   O344    1.277   .     A
C240   C7      1.360   1_655 S
C240   C25     1.542   1_655 S
C241   C252    1.384   .     A
C241   C243    1.386   .     A
C241   H279    1.084   .     S
C242   H290    1.084   .     S
C242   C253    1.387   .     A
C242   C245    1.387   .     A
C243   C246    1.438   .     A
C243   C259    1.522   .     S
C244   O342    1.292   .     A
C244   C247    1.458   .     S
C244   O340    1.296   .     A
C245   C261    1.519   .     S
C245   C247    1.430   .     A
C246   C248    1.440   .     A
C247   C249    1.428   .     A
C248   C263    1.526   .     S
C248   C250    1.390   .     A
C249   C265    1.528   .     S
C249   C251    1.387   .     A
C250   C252    1.388   .     A
C250   H301    1.083   .     S
C251   H312    1.084   .     S
C251   C253    1.394   .     A
C252   C601    1.456   1_545 S
C253   C600    1.456   .     S
C254   H282    1.093   .     S
C254   H283    1.111   .     S
C254   C7      1.534   1_655 S
C254   C24     1.534   1_655 S
C255   C274    1.424   .     A
C255   N337    1.426   .     S
C256   H280    1.107   .     S
C256   H281    1.110   .     S
C256   H334    1.101   .     S
C257   H288    1.111   .     S
C257   H287    1.111   .     S
C258   H286    1.111   .     S
C258   H284    1.108   .     S
C258   H285    1.107   .     S
C258   C25     1.528   1_655 S
C259   H293    1.113   .     S
C259   H294    1.104   .     S
C259   C260    1.528   .     S
C260   H289    1.110   .     S
C260   H292    1.111   .     S
C260   H291    1.108   .     S
C261   H299    1.099   .     S
C261   C262    1.528   .     S
C261   H298    1.112   .     S
C262   H296    1.111   .     S
C262   H295    1.110   .     S
C262   H297    1.110   .     S
C263   H305    1.104   .     S
C263   C264    1.531   .     S
C263   H304    1.112   .     S
C264   H300    1.107   .     S
C264   H303    1.111   .     S
C264   H302    1.111   .     S
C265   H310    1.113   .     S
C265   H309    1.107   .     S
C265   C267    1.525   .     S
C266   N338    1.428   .     S
C266   C275    1.422   .     A
C267   H306    1.104   .     S
C267   H307    1.110   .     S
C267   H308    1.111   .     S
C268   H314    1.109   .     S
C268   H1009   1.111   .     S
C268   H1011   1.110   .     S
C268   N1033   1.448   .     S
C269   H318    1.110   .     S
C269   H319    1.111   .     S
C269   N338    1.445   .     S
C269   H1013   1.110   .     S
C270   C274    1.522   .     S
C270   C271    1.536   .     S
C270   H324    1.111   .     S
C270   H325    1.090   .     S
C271   H322    1.111   .     S
C271   H320    1.108   .     S
C271   H321    1.108   .     S
C272   H330    1.110   .     S
C272   C275    1.518   .     S
C272   H329    1.083   .     S
C272   C273    1.529   .     S
C273   H328    1.110   .     S
C273   H326    1.107   .     S
C273   H327    1.111   .     S
C274   N335    1.393   .     A
C275   N336    1.386   .     A
C276   N335    1.358   .     A
C276   C278    1.403   .     A
C276   H323    1.067   .     S
C277   H331    1.075   .     S
C277   N336    1.357   .     A
C278   H332    1.082   .     S
H311   N337    1.029   .     S
H313   C964    1.111   1_554 S
H315   C964    1.110   1_554 S
H316   N338    1.028   .     S
H317   C965    1.110   1_554 S
N335   Zn348   2.015   .     S
N336   Zn347   2.015   .     S
N337   C964    1.448   1_554 S
O339   Zn347   2.019   .     S
O340   Zn348   2.019   .     S
O341   Zn348   2.019   .     S
O342   Zn347   2.019   .     S
O343   Zn347   2.005   .     S
O344   Zn348   2.005   .     S
O345   Zn348   1.991   .     S
O346   Zn347   1.991   .     S
C349   O457    1.299   .     A
C349   O455    1.300   .     A
C349   C362    1.481   .     S
C350   C393    1.404   .     A
C350   H449    1.081   .     S
C350   C352    1.414   .     A
C351   C371    1.408   .     A
C351   C394    1.411   .     A
C351   C1048   1.520   1_554 S
C352   C382    1.407   .     A
C352   C1047   1.520   .     S
C353   C355    1.407   .     S
C353   O459    1.272   .     A
C353   O461    1.285   .     A
C354   O462    1.286   .     A
C354   C356    1.418   .     S
C354   O460    1.277   .     A
C355   C588    1.360   1_455 S
C355   C602    1.534   1_455 S
C356   C471    1.360   .     S
C356   C489    1.542   .     S
C357   C368    1.384   .     A
C357   C359    1.386   .     A
C357   H395    1.084   .     S
C358   H406    1.084   .     S
C358   C369    1.387   .     A
C358   C361    1.387   .     A
C359   C362    1.438   .     A
C359   C375    1.522   .     S
C360   O458    1.292   .     A
C360   C363    1.458   .     S
C360   O456    1.296   .     A
C361   C377    1.519   .     S
C361   C363    1.430   .     A
C362   C364    1.440   .     A
C363   C365    1.428   .     A
C364   C379    1.526   .     S
C364   C366    1.390   .     A
C365   C381    1.528   .     S
C365   C367    1.387   .     A
C366   C368    1.388   .     A
C366   H417    1.083   .     S
C367   H428    1.084   .     S
C367   C369    1.394   .     A
C369   C20     1.456   1_565 S
C370   H398    1.093   .     S
C370   H399    1.111   .     S
C370   C471    1.534   .     S
C370   C488    1.534   .     S
C371   C390    1.424   .     A
C371   N453    1.426   .     S
C372   H396    1.107   .     S
C372   H397    1.110   .     S
C372   H450    1.101   .     S
C372   C602    1.534   1_455 S
C373   H404    1.111   .     S
C373   H403    1.111   .     S
C373   C588    1.542   1_455 S
C373   C606    1.528   1_455 S
C374   H402    1.111   .     S
C374   H400    1.108   .     S
C374   H401    1.107   .     S
C374   C489    1.528   .     S
C375   H409    1.113   .     S
C375   H410    1.104   .     S
C375   C376    1.528   .     S
C376   H405    1.110   .     S
C376   H408    1.111   .     S
C376   H407    1.108   .     S
C377   H415    1.099   .     S
C377   C378    1.528   .     S
C377   H414    1.112   .     S
C378   H412    1.111   .     S
C378   H411    1.110   .     S
C378   H413    1.110   .     S
C379   H421    1.104   .     S
C379   C380    1.531   .     S
C379   H420    1.112   .     S
C380   H416    1.107   .     S
C380   H419    1.111   .     S
C380   H418    1.111   .     S
C381   H426    1.113   .     S
C381   H425    1.107   .     S
C381   C383    1.525   .     S
C382   N454    1.428   .     S
C382   C391    1.422   .     A
C383   H422    1.104   .     S
C383   H423    1.110   .     S
C383   H424    1.111   .     S
C384   H430    1.109   .     S
C384   H1125   1.111   .     S
C384   H1127   1.110   .     S
C384   N1149   1.448   .     S
C385   H434    1.110   .     S
C385   H435    1.111   .     S
C385   N454    1.445   .     S
C385   H1129   1.110   .     S
C386   C390    1.522   .     S
C386   C387    1.536   .     S
C386   H440    1.111   .     S
C386   H441    1.090   .     S
C387   H438    1.111   .     S
C387   H436    1.108   .     S
C387   H437    1.108   .     S
C388   H446    1.110   .     S
C388   C391    1.518   .     S
C388   H445    1.083   .     S
C388   C389    1.529   .     S
C389   H444    1.110   .     S
C389   H442    1.107   .     S
C389   H443    1.111   .     S
C390   N451    1.393   .     A
C391   N452    1.386   .     A
C392   N451    1.358   .     A
C392   C394    1.403   .     A
C392   H439    1.067   .     S
C393   H447    1.075   .     S
C393   N452    1.357   .     A
C394   H448    1.082   .     S
H427   N453    1.029   .     S
H429   C1080   1.111   1_554 S
H431   C1080   1.110   1_554 S
H432   N454    1.028   .     S
H433   C1081   1.110   1_554 S
N451   Zn464   2.015   .     S
N452   Zn463   2.015   .     S
N453   C1080   1.448   1_554 S
O455   Zn463   2.019   .     S
O456   Zn464   2.019   .     S
O457   Zn464   2.019   .     S
O458   Zn463   2.019   .     S
O459   Zn463   2.005   .     S
O460   Zn464   2.005   .     S
O461   Zn464   1.991   .     S
O462   Zn463   1.991   .     S
C465   O573    1.299   .     A
C465   O571    1.300   .     A
C465   C478    1.481   .     S
C466   C509    1.404   .     A
C466   H565    1.081   .     S
C466   C468    1.414   .     A
C467   C487    1.408   .     A
C467   C510    1.411   .     A
C467   C1164   1.520   1_554 S
C468   C498    1.407   .     A
C468   C1163   1.520   .     S
C469   C471    1.407   .     S
C469   O575    1.272   .     A
C469   O577    1.285   .     A
C470   O578    1.286   .     A
C470   C472    1.418   .     S
C470   O576    1.277   .     A
C472   C587    1.360   .     S
C472   C605    1.542   .     S
C473   C484    1.384   .     A
C473   C475    1.386   .     A
C473   H511    1.084   .     S
C474   H522    1.084   .     S
C474   C485    1.387   .     A
C474   C477    1.387   .     A
C475   C478    1.438   .     A
C475   C491    1.522   .     S
C476   O574    1.292   .     A
C476   C479    1.458   .     S
C476   O572    1.296   .     A
C477   C493    1.519   .     S
C477   C479    1.430   .     A
C478   C480    1.440   .     A
C479   C481    1.428   .     A
C480   C495    1.526   .     S
C480   C482    1.390   .     A
C481   C497    1.528   .     S
C481   C483    1.387   .     A
C482   C484    1.388   .     A
C482   H533    1.083   .     S
C483   H544    1.084   .     S
C483   C485    1.394   .     A
C485   C136    1.456   1_565 S
C486   H514    1.093   .     S
C486   H515    1.111   .     S
C486   C587    1.534   .     S
C486   C604    1.534   .     S
C487   C506    1.424   .     A
C487   N569    1.426   .     S
C488   H512    1.107   .     S
C488   H513    1.110   .     S
C488   H566    1.101   .     S
C489   H520    1.111   .     S
C489   H519    1.111   .     S
C490   H518    1.111   .     S
C490   H516    1.108   .     S
C490   H517    1.107   .     S
C490   C605    1.528   .     S
C491   H525    1.113   .     S
C491   H526    1.104   .     S
C491   C492    1.528   .     S
C492   H521    1.110   .     S
C492   H524    1.111   .     S
C492   H523    1.108   .     S
C493   H531    1.099   .     S
C493   C494    1.528   .     S
C493   H530    1.112   .     S
C494   H528    1.111   .     S
C494   H527    1.110   .     S
C494   H529    1.110   .     S
C495   H537    1.104   .     S
C495   C496    1.531   .     S
C495   H536    1.112   .     S
C496   H532    1.107   .     S
C496   H535    1.111   .     S
C496   H534    1.111   .     S
C497   H542    1.113   .     S
C497   H541    1.107   .     S
C497   C499    1.525   .     S
C498   N570    1.428   .     S
C498   C507    1.422   .     A
C499   H538    1.104   .     S
C499   H539    1.110   .     S
C499   H540    1.111   .     S
C500   H546    1.109   .     S
C500   H1241   1.111   .     S
C500   H1243   1.110   .     S
C500   N1265   1.448   .     S
C501   H550    1.110   .     S
C501   H551    1.111   .     S
C501   N570    1.445   .     S
C501   H1245   1.110   .     S
C502   C506    1.522   .     S
C502   C503    1.536   .     S
C502   H556    1.111   .     S
C502   H557    1.090   .     S
C503   H554    1.111   .     S
C503   H552    1.108   .     S
C503   H553    1.108   .     S
C504   H562    1.110   .     S
C504   C507    1.518   .     S
C504   H561    1.083   .     S
C504   C505    1.529   .     S
C505   H560    1.110   .     S
C505   H558    1.107   .     S
C505   H559    1.111   .     S
C506   N567    1.393   .     A
C507   N568    1.386   .     A
C508   N567    1.358   .     A
C508   C510    1.403   .     A
C508   H555    1.067   .     S
C509   H563    1.075   .     S
C509   N568    1.357   .     A
C510   H564    1.082   .     S
H543   N569    1.029   .     S
H545   C1196   1.111   1_554 S
H547   C1196   1.110   1_554 S
H548   N570    1.028   .     S
H549   C1197   1.110   1_554 S
N567   Zn580   2.015   .     S
N568   Zn579   2.015   .     S
N569   C1196   1.448   1_554 S
O571   Zn579   2.019   .     S
O572   Zn580   2.019   .     S
O573   Zn580   2.019   .     S
O574   Zn579   2.019   .     S
O575   Zn579   2.005   .     S
O576   Zn580   2.005   .     S
O577   Zn580   1.991   .     S
O578   Zn579   1.991   .     S
C581   O689    1.299   .     A
C581   O687    1.300   .     A
C581   C594    1.481   .     S
C582   C625    1.404   .     A
C582   H681    1.081   .     S
C582   C584    1.414   .     A
C583   C603    1.408   .     A
C583   C626    1.411   .     A
C583   C1280   1.520   1_554 S
C584   C614    1.407   .     A
C584   C1279   1.520   .     S
C585   C587    1.407   .     S
C585   O691    1.272   .     A
C585   O693    1.285   .     A
C586   O694    1.286   .     A
C586   C588    1.418   .     S
C586   O692    1.277   .     A
C588   C355    1.360   1_655 S
C588   C373    1.542   1_655 S
C589   C600    1.384   .     A
C589   C591    1.386   .     A
C589   H627    1.084   .     S
C590   H638    1.084   .     S
C590   C601    1.387   .     A
C590   C593    1.387   .     A
C591   C594    1.438   .     A
C591   C607    1.522   .     S
C592   O690    1.292   .     A
C592   C595    1.458   .     S
C592   O688    1.296   .     A
C593   C609    1.519   .     S
C593   C595    1.430   .     A
C594   C596    1.440   .     A
C595   C597    1.428   .     A
C596   C611    1.526   .     S
C596   C598    1.390   .     A
C597   C613    1.528   .     S
C597   C599    1.387   .     A
C598   C600    1.388   .     A
C598   H649    1.083   .     S
C599   H660    1.084   .     S
C599   C601    1.394   .     A
C601   C252    1.456   1_565 S
C602   H630    1.093   .     S
C602   H631    1.111   .     S
C602   C355    1.534   1_655 S
C602   C372    1.534   1_655 S
C603   C622    1.424   .     A
C603   N685    1.426   .     S
C604   H628    1.107   .     S
C604   H629    1.110   .     S
C604   H682    1.101   .     S
C605   H636    1.111   .     S
C605   H635    1.111   .     S
C606   H634    1.111   .     S
C606   H632    1.108   .     S
C606   H633    1.107   .     S
C606   C373    1.528   1_655 S
C607   H641    1.113   .     S
C607   H642    1.104   .     S
C607   C608    1.528   .     S
C608   H637    1.110   .     S
C608   H640    1.111   .     S
C608   H639    1.108   .     S
C609   H647    1.099   .     S
C609   C610    1.528   .     S
C609   H646    1.112   .     S
C610   H644    1.111   .     S
C610   H643    1.110   .     S
C610   H645    1.110   .     S
C611   H653    1.104   .     S
C611   C612    1.531   .     S
C611   H652    1.112   .     S
C612   H648    1.107   .     S
C612   H651    1.111   .     S
C612   H650    1.111   .     S
C613   H658    1.113   .     S
C613   H657    1.107   .     S
C613   C615    1.525   .     S
C614   N686    1.428   .     S
C614   C623    1.422   .     A
C615   H654    1.104   .     S
C615   H655    1.110   .     S
C615   H656    1.111   .     S
C616   H662    1.109   .     S
C616   H1357   1.111   .     S
C616   H1359   1.110   .     S
C616   N1381   1.448   .     S
C617   H666    1.110   .     S
C617   H667    1.111   .     S
C617   N686    1.445   .     S
C617   H1361   1.110   .     S
C618   C622    1.522   .     S
C618   C619    1.536   .     S
C618   H672    1.111   .     S
C618   H673    1.090   .     S
C619   H670    1.111   .     S
C619   H668    1.108   .     S
C619   H669    1.108   .     S
C620   H678    1.110   .     S
C620   C623    1.518   .     S
C620   H677    1.083   .     S
C620   C621    1.529   .     S
C621   H676    1.110   .     S
C621   H674    1.107   .     S
C621   H675    1.111   .     S
C622   N683    1.393   .     A
C623   N684    1.386   .     A
C624   N683    1.358   .     A
C624   C626    1.403   .     A
C624   H671    1.067   .     S
C625   H679    1.075   .     S
C625   N684    1.357   .     A
C626   H680    1.082   .     S
H659   N685    1.029   .     S
H661   C1312   1.111   1_554 S
H663   C1312   1.110   1_554 S
H664   N686    1.028   .     S
H665   C1313   1.110   1_554 S
N683   Zn696   2.015   .     S
N684   Zn695   2.015   .     S
N685   C1312   1.448   1_554 S
O687   Zn695   2.019   .     S
O688   Zn696   2.019   .     S
O689   Zn696   2.019   .     S
O690   Zn695   2.019   .     S
O691   Zn695   2.005   .     S
O692   Zn696   2.005   .     S
O693   Zn696   1.991   .     S
O694   Zn695   1.991   .     S
C697   O805    1.299   .     A
C697   O803    1.300   .     A
C697   C710    1.481   .     S
C698   C741    1.404   .     A
C698   H797    1.081   .     S
C698   C700    1.414   .     A
C699   C719    1.408   .     A
C699   C742    1.411   .     A
C700   C730    1.407   .     A
C700   C3      1.520   1_556 S
C701   C703    1.407   .     S
C701   O807    1.272   .     A
C701   O809    1.285   .     A
C702   O810    1.286   .     A
C702   C704    1.418   .     S
C702   O808    1.277   .     A
C703   C936    1.360   1_455 S
C703   C950    1.534   1_455 S
C704   C819    1.360   .     S
C704   C837    1.542   .     S
C705   C716    1.384   .     A
C705   C707    1.386   .     A
C705   H743    1.084   .     S
C706   H754    1.084   .     S
C706   C717    1.387   .     A
C706   C709    1.387   .     A
C707   C710    1.438   .     A
C707   C723    1.522   .     S
C708   O806    1.292   .     A
C708   C711    1.458   .     S
C708   O804    1.296   .     A
C709   C725    1.519   .     S
C709   C711    1.430   .     A
C710   C712    1.440   .     A
C711   C713    1.428   .     A
C712   C727    1.526   .     S
C712   C714    1.390   .     A
C713   C729    1.528   .     S
C713   C715    1.387   .     A
C714   C716    1.388   .     A
C714   H765    1.083   .     S
C715   H776    1.084   .     S
C715   C717    1.394   .     A
C716   C1065   1.456   1_545 S
C717   C1064   1.456   .     S
C718   H746    1.093   .     S
C718   H747    1.111   .     S
C718   C819    1.534   .     S
C718   C836    1.534   .     S
C719   C738    1.424   .     A
C719   N801    1.426   .     S
C720   H744    1.107   .     S
C720   H745    1.110   .     S
C720   H798    1.101   .     S
C720   C950    1.534   1_455 S
C721   H752    1.111   .     S
C721   H751    1.111   .     S
C721   C936    1.542   1_455 S
C721   C954    1.528   1_455 S
C722   H750    1.111   .     S
C722   H748    1.108   .     S
C722   H749    1.107   .     S
C722   C837    1.528   .     S
C723   H757    1.113   .     S
C723   H758    1.104   .     S
C723   C724    1.528   .     S
C724   H753    1.110   .     S
C724   H756    1.111   .     S
C724   H755    1.108   .     S
C725   H763    1.099   .     S
C725   C726    1.528   .     S
C725   H762    1.112   .     S
C726   H760    1.111   .     S
C726   H759    1.110   .     S
C726   H761    1.110   .     S
C727   H769    1.104   .     S
C727   C728    1.531   .     S
C727   H768    1.112   .     S
C728   H764    1.107   .     S
C728   H767    1.111   .     S
C728   H766    1.111   .     S
C729   H774    1.113   .     S
C729   H773    1.107   .     S
C729   C731    1.525   .     S
C730   N802    1.428   .     S
C730   C739    1.422   .     A
C731   H770    1.104   .     S
C731   H771    1.110   .     S
C731   H772    1.111   .     S
C732   H778    1.109   .     S
C732   H81     1.111   1_556 S
C732   H83     1.110   1_556 S
C732   N105    1.448   1_556 S
C733   H782    1.110   .     S
C733   H783    1.111   .     S
C733   N802    1.445   .     S
C733   H85     1.110   1_556 S
C734   C738    1.522   .     S
C734   C735    1.536   .     S
C734   H788    1.111   .     S
C734   H789    1.090   .     S
C735   H786    1.111   .     S
C735   H784    1.108   .     S
C735   H785    1.108   .     S
C736   H794    1.110   .     S
C736   C739    1.518   .     S
C736   H793    1.083   .     S
C736   C737    1.529   .     S
C737   H792    1.110   .     S
C737   H790    1.107   .     S
C737   H791    1.111   .     S
C738   N799    1.393   .     A
C739   N800    1.386   .     A
C740   N799    1.358   .     A
C740   C742    1.403   .     A
C740   H787    1.067   .     S
C741   H795    1.075   .     S
C741   N800    1.357   .     A
C742   H796    1.082   .     S
H775   N801    1.029   .     S
H780   N802    1.028   .     S
N799   Zn812   2.015   .     S
N800   Zn811   2.015   .     S
O803   Zn811   2.019   .     S
O804   Zn812   2.019   .     S
O805   Zn812   2.019   .     S
O806   Zn811   2.019   .     S
O807   Zn811   2.005   .     S
O808   Zn812   2.005   .     S
O809   Zn812   1.991   .     S
O810   Zn811   1.991   .     S
C813   O921    1.299   .     A
C813   O919    1.300   .     A
C813   C826    1.481   .     S
C814   C857    1.404   .     A
C814   H913    1.081   .     S
C814   C816    1.414   .     A
C815   C835    1.408   .     A
C815   C858    1.411   .     A
C816   C846    1.407   .     A
C816   C119    1.520   1_556 S
C817   C819    1.407   .     S
C817   O923    1.272   .     A
C817   O925    1.285   .     A
C818   O926    1.286   .     A
C818   C820    1.418   .     S
C818   O924    1.277   .     A
C820   C935    1.360   .     S
C820   C953    1.542   .     S
C821   C832    1.384   .     A
C821   C823    1.386   .     A
C821   H859    1.084   .     S
C822   H870    1.084   .     S
C822   C833    1.387   .     A
C822   C825    1.387   .     A
C823   C826    1.438   .     A
C823   C839    1.522   .     S
C824   O922    1.292   .     A
C824   C827    1.458   .     S
C824   O920    1.296   .     A
C825   C841    1.519   .     S
C825   C827    1.430   .     A
C826   C828    1.440   .     A
C827   C829    1.428   .     A
C828   C843    1.526   .     S
C828   C830    1.390   .     A
C829   C845    1.528   .     S
C829   C831    1.387   .     A
C830   C832    1.388   .     A
C830   H881    1.083   .     S
C831   H892    1.084   .     S
C831   C833    1.394   .     A
C832   C1181   1.456   1_545 S
C833   C1180   1.456   .     S
C834   H862    1.093   .     S
C834   H863    1.111   .     S
C834   C935    1.534   .     S
C834   C952    1.534   .     S
C835   C854    1.424   .     A
C835   N917    1.426   .     S
C836   H860    1.107   .     S
C836   H861    1.110   .     S
C836   H914    1.101   .     S
C837   H868    1.111   .     S
C837   H867    1.111   .     S
C838   H866    1.111   .     S
C838   H864    1.108   .     S
C838   H865    1.107   .     S
C838   C953    1.528   .     S
C839   H873    1.113   .     S
C839   H874    1.104   .     S
C839   C840    1.528   .     S
C840   H869    1.110   .     S
C840   H872    1.111   .     S
C840   H871    1.108   .     S
C841   H879    1.099   .     S
C841   C842    1.528   .     S
C841   H878    1.112   .     S
C842   H876    1.111   .     S
C842   H875    1.110   .     S
C842   H877    1.110   .     S
C843   H885    1.104   .     S
C843   C844    1.531   .     S
C843   H884    1.112   .     S
C844   H880    1.107   .     S
C844   H883    1.111   .     S
C844   H882    1.111   .     S
C845   H890    1.113   .     S
C845   H889    1.107   .     S
C845   C847    1.525   .     S
C846   N918    1.428   .     S
C846   C855    1.422   .     A
C847   H886    1.104   .     S
C847   H887    1.110   .     S
C847   H888    1.111   .     S
C848   H894    1.109   .     S
C848   H197    1.111   1_556 S
C848   H199    1.110   1_556 S
C848   N221    1.448   1_556 S
C849   H898    1.110   .     S
C849   H899    1.111   .     S
C849   N918    1.445   .     S
C849   H201    1.110   1_556 S
C850   C854    1.522   .     S
C850   C851    1.536   .     S
C850   H904    1.111   .     S
C850   H905    1.090   .     S
C851   H902    1.111   .     S
C851   H900    1.108   .     S
C851   H901    1.108   .     S
C852   H910    1.110   .     S
C852   C855    1.518   .     S
C852   H909    1.083   .     S
C852   C853    1.529   .     S
C853   H908    1.110   .     S
C853   H906    1.107   .     S
C853   H907    1.111   .     S
C854   N915    1.393   .     A
C855   N916    1.386   .     A
C856   N915    1.358   .     A
C856   C858    1.403   .     A
C856   H903    1.067   .     S
C857   H911    1.075   .     S
C857   N916    1.357   .     A
C858   H912    1.082   .     S
H891   N917    1.029   .     S
H896   N918    1.028   .     S
N915   Zn928   2.015   .     S
N916   Zn927   2.015   .     S
O919   Zn927   2.019   .     S
O920   Zn928   2.019   .     S
O921   Zn928   2.019   .     S
O922   Zn927   2.019   .     S
O923   Zn927   2.005   .     S
O924   Zn928   2.005   .     S
O925   Zn928   1.991   .     S
O926   Zn927   1.991   .     S
C929   O1037   1.299   .     A
C929   O1035   1.300   .     A
C929   C942    1.481   .     S
C930   C973    1.404   .     A
C930   H1029   1.081   .     S
C930   C932    1.414   .     A
C931   C951    1.408   .     A
C931   C974    1.411   .     A
C932   C962    1.407   .     A
C932   C235    1.520   1_556 S
C933   C935    1.407   .     S
C933   O1039   1.272   .     A
C933   O1041   1.285   .     A
C934   O1042   1.286   .     A
C934   C936    1.418   .     S
C934   O1040   1.277   .     A
C936   C703    1.360   1_655 S
C936   C721    1.542   1_655 S
C937   C948    1.384   .     A
C937   C939    1.386   .     A
C937   H975    1.084   .     S
C938   H986    1.084   .     S
C938   C949    1.387   .     A
C938   C941    1.387   .     A
C939   C942    1.438   .     A
C939   C955    1.522   .     S
C940   O1038   1.292   .     A
C940   C943    1.458   .     S
C940   O1036   1.296   .     A
C941   C957    1.519   .     S
C941   C943    1.430   .     A
C942   C944    1.440   .     A
C943   C945    1.428   .     A
C944   C959    1.526   .     S
C944   C946    1.390   .     A
C945   C961    1.528   .     S
C945   C947    1.387   .     A
C946   C948    1.388   .     A
C946   H997    1.083   .     S
C947   H1008   1.084   .     S
C947   C949    1.394   .     A
C948   C1297   1.456   1_545 S
C949   C1296   1.456   .     S
C950   H978    1.093   .     S
C950   H979    1.111   .     S
C950   C703    1.534   1_655 S
C950   C720    1.534   1_655 S
C951   C970    1.424   .     A
C951   N1033   1.426   .     S
C952   H976    1.107   .     S
C952   H977    1.110   .     S
C952   H1030   1.101   .     S
C953   H984    1.111   .     S
C953   H983    1.111   .     S
C954   H982    1.111   .     S
C954   H980    1.108   .     S
C954   H981    1.107   .     S
C954   C721    1.528   1_655 S
C955   H989    1.113   .     S
C955   H990    1.104   .     S
C955   C956    1.528   .     S
C956   H985    1.110   .     S
C956   H988    1.111   .     S
C956   H987    1.108   .     S
C957   H995    1.099   .     S
C957   C958    1.528   .     S
C957   H994    1.112   .     S
C958   H992    1.111   .     S
C958   H991    1.110   .     S
C958   H993    1.110   .     S
C959   H1001   1.104   .     S
C959   C960    1.531   .     S
C959   H1000   1.112   .     S
C960   H996    1.107   .     S
C960   H999    1.111   .     S
C960   H998    1.111   .     S
C961   H1006   1.113   .     S
C961   H1005   1.107   .     S
C961   C963    1.525   .     S
C962   N1034   1.428   .     S
C962   C971    1.422   .     A
C963   H1002   1.104   .     S
C963   H1003   1.110   .     S
C963   H1004   1.111   .     S
C964   H1010   1.109   .     S
C964   H313    1.111   1_556 S
C964   H315    1.110   1_556 S
C964   N337    1.448   1_556 S
C965   H1014   1.110   .     S
C965   H1015   1.111   .     S
C965   N1034   1.445   .     S
C965   H317    1.110   1_556 S
C966   C970    1.522   .     S
C966   C967    1.536   .     S
C966   H1020   1.111   .     S
C966   H1021   1.090   .     S
C967   H1018   1.111   .     S
C967   H1016   1.108   .     S
C967   H1017   1.108   .     S
C968   H1026   1.110   .     S
C968   C971    1.518   .     S
C968   H1025   1.083   .     S
C968   C969    1.529   .     S
C969   H1024   1.110   .     S
C969   H1022   1.107   .     S
C969   H1023   1.111   .     S
C970   N1031   1.393   .     A
C971   N1032   1.386   .     A
C972   N1031   1.358   .     A
C972   C974    1.403   .     A
C972   H1019   1.067   .     S
C973   H1027   1.075   .     S
C973   N1032   1.357   .     A
C974   H1028   1.082   .     S
H1007  N1033   1.029   .     S
H1012  N1034   1.028   .     S
N1031  Zn1044  2.015   .     S
N1032  Zn1043  2.015   .     S
O1035  Zn1043  2.019   .     S
O1036  Zn1044  2.019   .     S
O1037  Zn1044  2.019   .     S
O1038  Zn1043  2.019   .     S
O1039  Zn1043  2.005   .     S
O1040  Zn1044  2.005   .     S
O1041  Zn1044  1.991   .     S
O1042  Zn1043  1.991   .     S
C1045  O1153   1.299   .     A
C1045  O1151   1.300   .     A
C1045  C1058   1.481   .     S
C1046  C1089   1.404   .     A
C1046  H1145   1.081   .     S
C1046  C1048   1.414   .     A
C1047  C1067   1.408   .     A
C1047  C1090   1.411   .     A
C1048  C1078   1.407   .     A
C1048  C351    1.520   1_556 S
C1049  C1051   1.407   .     S
C1049  O1155   1.272   .     A
C1049  O1157   1.285   .     A
C1050  O1158   1.286   .     A
C1050  C1052   1.418   .     S
C1050  O1156   1.277   .     A
C1051  C1284   1.360   1_455 S
C1051  C1298   1.534   1_455 S
C1052  C1167   1.360   .     S
C1052  C1185   1.542   .     S
C1053  C1064   1.384   .     A
C1053  C1055   1.386   .     A
C1053  H1091   1.084   .     S
C1054  H1102   1.084   .     S
C1054  C1065   1.387   .     A
C1054  C1057   1.387   .     A
C1055  C1058   1.438   .     A
C1055  C1071   1.522   .     S
C1056  O1154   1.292   .     A
C1056  C1059   1.458   .     S
C1056  O1152   1.296   .     A
C1057  C1073   1.519   .     S
C1057  C1059   1.430   .     A
C1058  C1060   1.440   .     A
C1059  C1061   1.428   .     A
C1060  C1075   1.526   .     S
C1060  C1062   1.390   .     A
C1061  C1077   1.528   .     S
C1061  C1063   1.387   .     A
C1062  C1064   1.388   .     A
C1062  H1113   1.083   .     S
C1063  H1124   1.084   .     S
C1063  C1065   1.394   .     A
C1065  C716    1.456   1_565 S
C1066  H1094   1.093   .     S
C1066  H1095   1.111   .     S
C1066  C1167   1.534   .     S
C1066  C1184   1.534   .     S
C1067  C1086   1.424   .     A
C1067  N1149   1.426   .     S
C1068  H1092   1.107   .     S
C1068  H1093   1.110   .     S
C1068  H1146   1.101   .     S
C1068  C1298   1.534   1_455 S
C1069  H1100   1.111   .     S
C1069  H1099   1.111   .     S
C1069  C1284   1.542   1_455 S
C1069  C1302   1.528   1_455 S
C1070  H1098   1.111   .     S
C1070  H1096   1.108   .     S
C1070  H1097   1.107   .     S
C1070  C1185   1.528   .     S
C1071  H1105   1.113   .     S
C1071  H1106   1.104   .     S
C1071  C1072   1.528   .     S
C1072  H1101   1.110   .     S
C1072  H1104   1.111   .     S
C1072  H1103   1.108   .     S
C1073  H1111   1.099   .     S
C1073  C1074   1.528   .     S
C1073  H1110   1.112   .     S
C1074  H1108   1.111   .     S
C1074  H1107   1.110   .     S
C1074  H1109   1.110   .     S
C1075  H1117   1.104   .     S
C1075  C1076   1.531   .     S
C1075  H1116   1.112   .     S
C1076  H1112   1.107   .     S
C1076  H1115   1.111   .     S
C1076  H1114   1.111   .     S
C1077  H1122   1.113   .     S
C1077  H1121   1.107   .     S
C1077  C1079   1.525   .     S
C1078  N1150   1.428   .     S
C1078  C1087   1.422   .     A
C1079  H1118   1.104   .     S
C1079  H1119   1.110   .     S
C1079  H1120   1.111   .     S
C1080  H1126   1.109   .     S
C1080  H429    1.111   1_556 S
C1080  H431    1.110   1_556 S
C1080  N453    1.448   1_556 S
C1081  H1130   1.110   .     S
C1081  H1131   1.111   .     S
C1081  N1150   1.445   .     S
C1081  H433    1.110   1_556 S
C1082  C1086   1.522   .     S
C1082  C1083   1.536   .     S
C1082  H1136   1.111   .     S
C1082  H1137   1.090   .     S
C1083  H1134   1.111   .     S
C1083  H1132   1.108   .     S
C1083  H1133   1.108   .     S
C1084  H1142   1.110   .     S
C1084  C1087   1.518   .     S
C1084  H1141   1.083   .     S
C1084  C1085   1.529   .     S
C1085  H1140   1.110   .     S
C1085  H1138   1.107   .     S
C1085  H1139   1.111   .     S
C1086  N1147   1.393   .     A
C1087  N1148   1.386   .     A
C1088  N1147   1.358   .     A
C1088  C1090   1.403   .     A
C1088  H1135   1.067   .     S
C1089  H1143   1.075   .     S
C1089  N1148   1.357   .     A
C1090  H1144   1.082   .     S
H1123  N1149   1.029   .     S
H1128  N1150   1.028   .     S
N1147  Zn1160  2.015   .     S
N1148  Zn1159  2.015   .     S
O1151  Zn1159  2.019   .     S
O1152  Zn1160  2.019   .     S
O1153  Zn1160  2.019   .     S
O1154  Zn1159  2.019   .     S
O1155  Zn1159  2.005   .     S
O1156  Zn1160  2.005   .     S
O1157  Zn1160  1.991   .     S
O1158  Zn1159  1.991   .     S
C1161  O1269   1.299   .     A
C1161  O1267   1.300   .     A
C1161  C1174   1.481   .     S
C1162  C1205   1.404   .     A
C1162  H1261   1.081   .     S
C1162  C1164   1.414   .     A
C1163  C1183   1.408   .     A
C1163  C1206   1.411   .     A
C1164  C1194   1.407   .     A
C1164  C467    1.520   1_556 S
C1165  C1167   1.407   .     S
C1165  O1271   1.272   .     A
C1165  O1273   1.285   .     A
C1166  O1274   1.286   .     A
C1166  C1168   1.418   .     S
C1166  O1272   1.277   .     A
C1168  C1283   1.360   .     S
C1168  C1301   1.542   .     S
C1169  C1180   1.384   .     A
C1169  C1171   1.386   .     A
C1169  H1207   1.084   .     S
C1170  H1218   1.084   .     S
C1170  C1181   1.387   .     A
C1170  C1173   1.387   .     A
C1171  C1174   1.438   .     A
C1171  C1187   1.522   .     S
C1172  O1270   1.292   .     A
C1172  C1175   1.458   .     S
C1172  O1268   1.296   .     A
C1173  C1189   1.519   .     S
C1173  C1175   1.430   .     A
C1174  C1176   1.440   .     A
C1175  C1177   1.428   .     A
C1176  C1191   1.526   .     S
C1176  C1178   1.390   .     A
C1177  C1193   1.528   .     S
C1177  C1179   1.387   .     A
C1178  C1180   1.388   .     A
C1178  H1229   1.083   .     S
C1179  H1240   1.084   .     S
C1179  C1181   1.394   .     A
C1181  C832    1.456   1_565 S
C1182  H1210   1.093   .     S
C1182  H1211   1.111   .     S
C1182  C1283   1.534   .     S
C1182  C1300   1.534   .     S
C1183  C1202   1.424   .     A
C1183  N1265   1.426   .     S
C1184  H1208   1.107   .     S
C1184  H1209   1.110   .     S
C1184  H1262   1.101   .     S
C1185  H1216   1.111   .     S
C1185  H1215   1.111   .     S
C1186  H1214   1.111   .     S
C1186  H1212   1.108   .     S
C1186  H1213   1.107   .     S
C1186  C1301   1.528   .     S
C1187  H1221   1.113   .     S
C1187  H1222   1.104   .     S
C1187  C1188   1.528   .     S
C1188  H1217   1.110   .     S
C1188  H1220   1.111   .     S
C1188  H1219   1.108   .     S
C1189  H1227   1.099   .     S
C1189  C1190   1.528   .     S
C1189  H1226   1.112   .     S
C1190  H1224   1.111   .     S
C1190  H1223   1.110   .     S
C1190  H1225   1.110   .     S
C1191  H1233   1.104   .     S
C1191  C1192   1.531   .     S
C1191  H1232   1.112   .     S
C1192  H1228   1.107   .     S
C1192  H1231   1.111   .     S
C1192  H1230   1.111   .     S
C1193  H1238   1.113   .     S
C1193  H1237   1.107   .     S
C1193  C1195   1.525   .     S
C1194  N1266   1.428   .     S
C1194  C1203   1.422   .     A
C1195  H1234   1.104   .     S
C1195  H1235   1.110   .     S
C1195  H1236   1.111   .     S
C1196  H1242   1.109   .     S
C1196  H545    1.111   1_556 S
C1196  H547    1.110   1_556 S
C1196  N569    1.448   1_556 S
C1197  H1246   1.110   .     S
C1197  H1247   1.111   .     S
C1197  N1266   1.445   .     S
C1197  H549    1.110   1_556 S
C1198  C1202   1.522   .     S
C1198  C1199   1.536   .     S
C1198  H1252   1.111   .     S
C1198  H1253   1.090   .     S
C1199  H1250   1.111   .     S
C1199  H1248   1.108   .     S
C1199  H1249   1.108   .     S
C1200  H1258   1.110   .     S
C1200  C1203   1.518   .     S
C1200  H1257   1.083   .     S
C1200  C1201   1.529   .     S
C1201  H1256   1.110   .     S
C1201  H1254   1.107   .     S
C1201  H1255   1.111   .     S
C1202  N1263   1.393   .     A
C1203  N1264   1.386   .     A
C1204  N1263   1.358   .     A
C1204  C1206   1.403   .     A
C1204  H1251   1.067   .     S
C1205  H1259   1.075   .     S
C1205  N1264   1.357   .     A
C1206  H1260   1.082   .     S
H1239  N1265   1.029   .     S
H1244  N1266   1.028   .     S
N1263  Zn1276  2.015   .     S
N1264  Zn1275  2.015   .     S
O1267  Zn1275  2.019   .     S
O1268  Zn1276  2.019   .     S
O1269  Zn1276  2.019   .     S
O1270  Zn1275  2.019   .     S
O1271  Zn1275  2.005   .     S
O1272  Zn1276  2.005   .     S
O1273  Zn1276  1.991   .     S
O1274  Zn1275  1.991   .     S
C1277  O1385   1.299   .     A
C1277  O1383   1.300   .     A
C1277  C1290   1.481   .     S
C1278  C1321   1.404   .     A
C1278  H1377   1.081   .     S
C1278  C1280   1.414   .     A
C1279  C1299   1.408   .     A
C1279  C1322   1.411   .     A
C1280  C1310   1.407   .     A
C1280  C583    1.520   1_556 S
C1281  C1283   1.407   .     S
C1281  O1387   1.272   .     A
C1281  O1389   1.285   .     A
C1282  O1390   1.286   .     A
C1282  C1284   1.418   .     S
C1282  O1388   1.277   .     A
C1284  C1051   1.360   1_655 S
C1284  C1069   1.542   1_655 S
C1285  C1296   1.384   .     A
C1285  C1287   1.386   .     A
C1285  H1323   1.084   .     S
C1286  H1334   1.084   .     S
C1286  C1297   1.387   .     A
C1286  C1289   1.387   .     A
C1287  C1290   1.438   .     A
C1287  C1303   1.522   .     S
C1288  O1386   1.292   .     A
C1288  C1291   1.458   .     S
C1288  O1384   1.296   .     A
C1289  C1305   1.519   .     S
C1289  C1291   1.430   .     A
C1290  C1292   1.440   .     A
C1291  C1293   1.428   .     A
C1292  C1307   1.526   .     S
C1292  C1294   1.390   .     A
C1293  C1309   1.528   .     S
C1293  C1295   1.387   .     A
C1294  C1296   1.388   .     A
C1294  H1345   1.083   .     S
C1295  H1356   1.084   .     S
C1295  C1297   1.394   .     A
C1297  C948    1.456   1_565 S
C1298  H1326   1.093   .     S
C1298  H1327   1.111   .     S
C1298  C1051   1.534   1_655 S
C1298  C1068   1.534   1_655 S
C1299  C1318   1.424   .     A
C1299  N1381   1.426   .     S
C1300  H1324   1.107   .     S
C1300  H1325   1.110   .     S
C1300  H1378   1.101   .     S
C1301  H1332   1.111   .     S
C1301  H1331   1.111   .     S
C1302  H1330   1.111   .     S
C1302  H1328   1.108   .     S
C1302  H1329   1.107   .     S
C1302  C1069   1.528   1_655 S
C1303  H1337   1.113   .     S
C1303  H1338   1.104   .     S
C1303  C1304   1.528   .     S
C1304  H1333   1.110   .     S
C1304  H1336   1.111   .     S
C1304  H1335   1.108   .     S
C1305  H1343   1.099   .     S
C1305  C1306   1.528   .     S
C1305  H1342   1.112   .     S
C1306  H1340   1.111   .     S
C1306  H1339   1.110   .     S
C1306  H1341   1.110   .     S
C1307  H1349   1.104   .     S
C1307  C1308   1.531   .     S
C1307  H1348   1.112   .     S
C1308  H1344   1.107   .     S
C1308  H1347   1.111   .     S
C1308  H1346   1.111   .     S
C1309  H1354   1.113   .     S
C1309  H1353   1.107   .     S
C1309  C1311   1.525   .     S
C1310  N1382   1.428   .     S
C1310  C1319   1.422   .     A
C1311  H1350   1.104   .     S
C1311  H1351   1.110   .     S
C1311  H1352   1.111   .     S
C1312  H1358   1.109   .     S
C1312  H661    1.111   1_556 S
C1312  H663    1.110   1_556 S
C1312  N685    1.448   1_556 S
C1313  H1362   1.110   .     S
C1313  H1363   1.111   .     S
C1313  N1382   1.445   .     S
C1313  H665    1.110   1_556 S
C1314  C1318   1.522   .     S
C1314  C1315   1.536   .     S
C1314  H1368   1.111   .     S
C1314  H1369   1.090   .     S
C1315  H1366   1.111   .     S
C1315  H1364   1.108   .     S
C1315  H1365   1.108   .     S
C1316  H1374   1.110   .     S
C1316  C1319   1.518   .     S
C1316  H1373   1.083   .     S
C1316  C1317   1.529   .     S
C1317  H1372   1.110   .     S
C1317  H1370   1.107   .     S
C1317  H1371   1.111   .     S
C1318  N1379   1.393   .     A
C1319  N1380   1.386   .     A
C1320  N1379   1.358   .     A
C1320  C1322   1.403   .     A
C1320  H1367   1.067   .     S
C1321  H1375   1.075   .     S
C1321  N1380   1.357   .     A
C1322  H1376   1.082   .     S
H1355  N1381   1.029   .     S
H1360  N1382   1.028   .     S
N1379  Zn1392  2.015   .     S
N1380  Zn1391  2.015   .     S
O1383  Zn1391  2.019   .     S
O1384  Zn1392  2.019   .     S
O1385  Zn1392  2.019   .     S
O1386  Zn1391  2.019   .     S
O1387  Zn1391  2.005   .     S
O1388  Zn1392  2.005   .     S
O1389  Zn1392  1.991   .     S
O1390  Zn1391  1.991   .     S
