data_str_m3_o1_o16_pcu_sym.238
_audit_creation_date              2020-01-03
_audit_creation_method            'Materials Studio'
_symmetry_space_group_name_H-M    'P1'
_symmetry_Int_Tables_number       1
_symmetry_cell_setting            triclinic
loop_
_symmetry_equiv_pos_as_xyz
  x,y,z
_cell_length_a                    29.6363
_cell_length_b                    32.1647
_cell_length_c                    26.4371
_cell_angle_alpha                 90.0891
_cell_angle_beta                  70.0308
_cell_angle_gamma                 90.8510
loop_
_atom_site_label
_atom_site_type_symbol
_atom_site_fract_x
_atom_site_fract_y
_atom_site_fract_z
_atom_site_U_iso_or_equiv
_atom_site_adp_type
_atom_site_occupancy
C1     C     0.16717   0.24670   0.24898   0.00000  Uiso   1.00
C2     C     0.15016   0.14992   0.48655   0.00000  Uiso   1.00
C3     C     0.15431   0.17247   0.43914   0.00000  Uiso   1.00
C4     C     0.18510   0.15797   0.01090   0.00000  Uiso   1.00
C5     C     0.22886   0.17811   0.48133   0.00000  Uiso   1.00
C6     C     0.23179   0.20082   0.43568   0.00000  Uiso   1.00
C7     C     0.19194   0.20236   0.41950   0.00000  Uiso   1.00
C8     C     0.17507   0.15269   0.06579   0.00000  Uiso   1.00
C9     C     0.25792   0.16853   0.05534   0.00000  Uiso   1.00
C10    C     0.12307   0.16255   0.41066   0.00000  Uiso   1.00
C11    C     0.20504   0.31280   0.25688   0.00000  Uiso   1.00
C12    C     0.13999   0.16738   0.35212   0.00000  Uiso   1.00
C13    C     0.20448   0.02195   0.25775   0.00000  Uiso   1.00
C14    C     0.16660   0.04255   0.24899   0.00000  Uiso   1.00
C15    C     0.12947   0.02083   0.23888   0.00000  Uiso   1.00
C16    C     0.13002   0.31153   0.23812   0.00000  Uiso   1.00
C17    C     0.16764   0.29092   0.24762   0.00000  Uiso   1.00
C18    C     0.30039   0.13705   0.27781   0.00000  Uiso   1.00
C19    C     0.01493   0.13710   0.27786   0.00000  Uiso   1.00
C20    C     0.03332   0.19619   0.22246   0.00000  Uiso   1.00
C21    C     0.31909   0.19655   0.22242   0.00000  Uiso   1.00
C22    C     0.16646   0.08668   0.24986   0.00000  Uiso   1.00
C23    C     0.19339   0.16445   0.14792   0.00000  Uiso   1.00
C24    C     0.26652   0.17962   0.00186   0.00000  Uiso   1.00
C25    C     0.21008   0.16084   0.08914   0.00000  Uiso   1.00
C26    C     0.08326   0.13634   0.43390   0.00000  Uiso   1.00
C27    C     0.07871   0.11453   0.48061   0.00000  Uiso   1.00
C28    C     0.11283   0.11932   0.00578   0.00000  Uiso   1.00
H29    H     0.23339   0.03850   0.26584   0.00000  Uiso   1.00
H30    H     0.10026   0.03662   0.23149   0.00000  Uiso   1.00
H31    H     0.10105   0.29485   0.23031   0.00000  Uiso   1.00
H32    H     0.27516   0.11337   0.30012   0.00000  Uiso   1.00
H33    H     0.02578   0.11344   0.30021   0.00000  Uiso   1.00
H34    H     0.05897   0.21971   0.20047   0.00000  Uiso   1.00
H35    H     0.26220   0.22150   0.41727   0.00000  Uiso   1.00
H36    H     0.30185   0.19083   0.47718   0.00000  Uiso   1.00
H37    H     0.13844   0.14650   0.09127   0.00000  Uiso   1.00
H38    H     0.05885   0.12865   0.41259   0.00000  Uiso   1.00
H39    H     0.05030   0.09135   0.49506   0.00000  Uiso   1.00
H40    H     0.23408   0.29726   0.26477   0.00000  Uiso   1.00
N41    N     0.04760   0.16668   0.25001   0.00000  Uiso   1.00
N42    N     0.28573   0.16665   0.25000   0.00000  Uiso   1.00
O43    O     0.12846   0.22775   0.25000   0.00000  Uiso   1.00
O44    O     0.20490   0.22774   0.25000   0.00000  Uiso   1.00
O45    O     0.10947   0.16666   0.32681   0.00000  Uiso   1.00
O46    O     0.18591   0.16665   0.32681   0.00000  Uiso   1.00
O47    O     0.12843   0.10559   0.24999   0.00000  Uiso   1.00
O48    O     0.20488   0.10558   0.24999   0.00000  Uiso   1.00
O49    O     0.14742   0.16668   0.17319   0.00000  Uiso   1.00
O50    O     0.22387   0.16667   0.17319   0.00000  Uiso   1.00
Zn51   Zn    0.11562   0.16667   0.25000   0.00000  Uiso   1.00
Zn52   Zn    0.21771   0.16666   0.25000   0.00000  Uiso   1.00
I53    I     0.31879   0.16282   0.07916   0.00000  Uiso   1.00
I54    I     0.30505   0.24625   0.17781   0.00000  Uiso   1.00
Cl55   Cl    0.11102   0.08083   0.05408   0.00000  Uiso   1.00
I56    I     0.18531   0.25713   0.37841   0.00000  Uiso   1.00
C57    C     0.50050   0.24670   0.24898   0.00000  Uiso   1.00
C58    C     0.48349   0.14992   0.48655   0.00000  Uiso   1.00
C59    C     0.48764   0.17247   0.43914   0.00000  Uiso   1.00
C60    C     0.51843   0.15797   0.01090   0.00000  Uiso   1.00
C61    C     0.56220   0.17811   0.48133   0.00000  Uiso   1.00
C62    C     0.56513   0.20082   0.43568   0.00000  Uiso   1.00
C63    C     0.52527   0.20236   0.41950   0.00000  Uiso   1.00
C64    C     0.50840   0.15269   0.06579   0.00000  Uiso   1.00
C65    C     0.59125   0.16853   0.05534   0.00000  Uiso   1.00
C66    C     0.45640   0.16255   0.41066   0.00000  Uiso   1.00
C67    C     0.53838   0.31280   0.25688   0.00000  Uiso   1.00
C68    C     0.47333   0.16738   0.35212   0.00000  Uiso   1.00
C69    C     0.53782   0.02195   0.25775   0.00000  Uiso   1.00
C70    C     0.49993   0.04255   0.24899   0.00000  Uiso   1.00
C71    C     0.46280   0.02083   0.23888   0.00000  Uiso   1.00
C72    C     0.46335   0.31153   0.23812   0.00000  Uiso   1.00
C73    C     0.50097   0.29092   0.24762   0.00000  Uiso   1.00
C74    C     0.63372   0.13705   0.27781   0.00000  Uiso   1.00
C75    C     0.34826   0.13710   0.27786   0.00000  Uiso   1.00
C76    C     0.36666   0.19619   0.22246   0.00000  Uiso   1.00
C77    C     0.65243   0.19655   0.22242   0.00000  Uiso   1.00
C78    C     0.49980   0.08668   0.24986   0.00000  Uiso   1.00
C79    C     0.52673   0.16445   0.14792   0.00000  Uiso   1.00
C80    C     0.59985   0.17962   0.00186   0.00000  Uiso   1.00
C81    C     0.54341   0.16084   0.08914   0.00000  Uiso   1.00
C82    C     0.41659   0.13634   0.43390   0.00000  Uiso   1.00
C83    C     0.41205   0.11453   0.48061   0.00000  Uiso   1.00
C84    C     0.44616   0.11932   0.00578   0.00000  Uiso   1.00
H85    H     0.56673   0.03850   0.26584   0.00000  Uiso   1.00
H86    H     0.43360   0.03662   0.23149   0.00000  Uiso   1.00
H87    H     0.43439   0.29485   0.23031   0.00000  Uiso   1.00
H88    H     0.60849   0.11337   0.30012   0.00000  Uiso   1.00
H89    H     0.35911   0.11344   0.30021   0.00000  Uiso   1.00
H90    H     0.39230   0.21971   0.20047   0.00000  Uiso   1.00
H91    H     0.59554   0.22150   0.41727   0.00000  Uiso   1.00
H92    H     0.63518   0.19083   0.47718   0.00000  Uiso   1.00
H93    H     0.47178   0.14650   0.09127   0.00000  Uiso   1.00
H94    H     0.39219   0.12865   0.41259   0.00000  Uiso   1.00
H95    H     0.38363   0.09135   0.49506   0.00000  Uiso   1.00
H96    H     0.56741   0.29726   0.26477   0.00000  Uiso   1.00
N97    N     0.38093   0.16668   0.25001   0.00000  Uiso   1.00
N98    N     0.61906   0.16665   0.25000   0.00000  Uiso   1.00
O99    O     0.46179   0.22775   0.25000   0.00000  Uiso   1.00
O100   O     0.53823   0.22774   0.25000   0.00000  Uiso   1.00
O101   O     0.44280   0.16666   0.32681   0.00000  Uiso   1.00
O102   O     0.51924   0.16665   0.32681   0.00000  Uiso   1.00
O103   O     0.46177   0.10559   0.24999   0.00000  Uiso   1.00
O104   O     0.53821   0.10558   0.24999   0.00000  Uiso   1.00
O105   O     0.48076   0.16668   0.17319   0.00000  Uiso   1.00
O106   O     0.55720   0.16667   0.17319   0.00000  Uiso   1.00
Zn107  Zn    0.44896   0.16667   0.25000   0.00000  Uiso   1.00
Zn108  Zn    0.55104   0.16666   0.25000   0.00000  Uiso   1.00
I109   I     0.65213   0.16282   0.07916   0.00000  Uiso   1.00
I110   I     0.63839   0.24625   0.17781   0.00000  Uiso   1.00
Cl111  Cl    0.44435   0.08083   0.05408   0.00000  Uiso   1.00
I112   I     0.51864   0.25713   0.37841   0.00000  Uiso   1.00
C113   C     0.83383   0.24670   0.24898   0.00000  Uiso   1.00
C114   C     0.81683   0.14992   0.48655   0.00000  Uiso   1.00
C115   C     0.82097   0.17247   0.43914   0.00000  Uiso   1.00
C116   C     0.85176   0.15797   0.01090   0.00000  Uiso   1.00
C117   C     0.89553   0.17811   0.48133   0.00000  Uiso   1.00
C118   C     0.89846   0.20082   0.43568   0.00000  Uiso   1.00
C119   C     0.85861   0.20236   0.41950   0.00000  Uiso   1.00
C120   C     0.84174   0.15269   0.06579   0.00000  Uiso   1.00
C121   C     0.92458   0.16853   0.05534   0.00000  Uiso   1.00
C122   C     0.78974   0.16255   0.41066   0.00000  Uiso   1.00
C123   C     0.87171   0.31280   0.25688   0.00000  Uiso   1.00
C124   C     0.80666   0.16738   0.35212   0.00000  Uiso   1.00
C125   C     0.87115   0.02195   0.25775   0.00000  Uiso   1.00
C126   C     0.83327   0.04255   0.24899   0.00000  Uiso   1.00
C127   C     0.79613   0.02083   0.23888   0.00000  Uiso   1.00
C128   C     0.79669   0.31153   0.23812   0.00000  Uiso   1.00
C129   C     0.83431   0.29092   0.24762   0.00000  Uiso   1.00
C130   C     0.96705   0.13705   0.27781   0.00000  Uiso   1.00
C131   C     0.68160   0.13710   0.27786   0.00000  Uiso   1.00
C132   C     0.69999   0.19619   0.22246   0.00000  Uiso   1.00
C133   C     0.98576   0.19655   0.22242   0.00000  Uiso   1.00
C134   C     0.83313   0.08668   0.24986   0.00000  Uiso   1.00
C135   C     0.86006   0.16445   0.14792   0.00000  Uiso   1.00
C136   C     0.93319   0.17962   0.00186   0.00000  Uiso   1.00
C137   C     0.87674   0.16084   0.08914   0.00000  Uiso   1.00
C138   C     0.74993   0.13634   0.43390   0.00000  Uiso   1.00
C139   C     0.74538   0.11453   0.48061   0.00000  Uiso   1.00
C140   C     0.77949   0.11932   0.00578   0.00000  Uiso   1.00
H141   H     0.90006   0.03850   0.26584   0.00000  Uiso   1.00
H142   H     0.76693   0.03662   0.23149   0.00000  Uiso   1.00
H143   H     0.76772   0.29485   0.23031   0.00000  Uiso   1.00
H144   H     0.94182   0.11337   0.30012   0.00000  Uiso   1.00
H145   H     0.69245   0.11344   0.30021   0.00000  Uiso   1.00
H146   H     0.72564   0.21971   0.20047   0.00000  Uiso   1.00
H147   H     0.92887   0.22150   0.41727   0.00000  Uiso   1.00
H148   H     0.96852   0.19083   0.47718   0.00000  Uiso   1.00
H149   H     0.80511   0.14650   0.09127   0.00000  Uiso   1.00
H150   H     0.72552   0.12865   0.41259   0.00000  Uiso   1.00
H151   H     0.71696   0.09135   0.49506   0.00000  Uiso   1.00
H152   H     0.90075   0.29726   0.26477   0.00000  Uiso   1.00
N153   N     0.71426   0.16668   0.25001   0.00000  Uiso   1.00
N154   N     0.95239   0.16665   0.25000   0.00000  Uiso   1.00
O155   O     0.79512   0.22775   0.25000   0.00000  Uiso   1.00
O156   O     0.87157   0.22774   0.25000   0.00000  Uiso   1.00
O157   O     0.77613   0.16666   0.32681   0.00000  Uiso   1.00
O158   O     0.85258   0.16665   0.32681   0.00000  Uiso   1.00
O159   O     0.79510   0.10559   0.24999   0.00000  Uiso   1.00
O160   O     0.87154   0.10558   0.24999   0.00000  Uiso   1.00
O161   O     0.81409   0.16668   0.17319   0.00000  Uiso   1.00
O162   O     0.89053   0.16667   0.17319   0.00000  Uiso   1.00
Zn163  Zn    0.78229   0.16667   0.25000   0.00000  Uiso   1.00
Zn164  Zn    0.88438   0.16666   0.25000   0.00000  Uiso   1.00
I165   I     0.98546   0.16282   0.07916   0.00000  Uiso   1.00
I166   I     0.97172   0.24625   0.17781   0.00000  Uiso   1.00
Cl167  Cl    0.77769   0.08083   0.05408   0.00000  Uiso   1.00
I168   I     0.85197   0.25713   0.37841   0.00000  Uiso   1.00
C169   C     0.16717   0.58003   0.24898   0.00000  Uiso   1.00
C170   C     0.15016   0.48325   0.48655   0.00000  Uiso   1.00
C171   C     0.15431   0.50580   0.43914   0.00000  Uiso   1.00
C172   C     0.18510   0.49131   0.01090   0.00000  Uiso   1.00
C173   C     0.22886   0.51144   0.48133   0.00000  Uiso   1.00
C174   C     0.23179   0.53415   0.43568   0.00000  Uiso   1.00
C175   C     0.19194   0.53570   0.41950   0.00000  Uiso   1.00
C176   C     0.17507   0.48603   0.06579   0.00000  Uiso   1.00
C177   C     0.25792   0.50186   0.05534   0.00000  Uiso   1.00
C178   C     0.12307   0.49588   0.41066   0.00000  Uiso   1.00
C179   C     0.20504   0.64613   0.25688   0.00000  Uiso   1.00
C180   C     0.13999   0.50072   0.35212   0.00000  Uiso   1.00
C181   C     0.20448   0.35529   0.25775   0.00000  Uiso   1.00
C182   C     0.16660   0.37588   0.24899   0.00000  Uiso   1.00
C183   C     0.12947   0.35416   0.23888   0.00000  Uiso   1.00
C184   C     0.13002   0.64486   0.23812   0.00000  Uiso   1.00
C185   C     0.16764   0.62426   0.24762   0.00000  Uiso   1.00
C186   C     0.30039   0.47038   0.27781   0.00000  Uiso   1.00
C187   C     0.01493   0.47043   0.27786   0.00000  Uiso   1.00
C188   C     0.03332   0.52952   0.22246   0.00000  Uiso   1.00
C189   C     0.31909   0.52988   0.22242   0.00000  Uiso   1.00
C190   C     0.16646   0.42001   0.24986   0.00000  Uiso   1.00
C191   C     0.19339   0.49779   0.14792   0.00000  Uiso   1.00
C192   C     0.26652   0.51295   0.00186   0.00000  Uiso   1.00
C193   C     0.21008   0.49417   0.08914   0.00000  Uiso   1.00
C194   C     0.08326   0.46967   0.43390   0.00000  Uiso   1.00
C195   C     0.07871   0.44786   0.48061   0.00000  Uiso   1.00
C196   C     0.11283   0.45266   0.00578   0.00000  Uiso   1.00
H197   H     0.23339   0.37184   0.26584   0.00000  Uiso   1.00
H198   H     0.10026   0.36996   0.23149   0.00000  Uiso   1.00
H199   H     0.10105   0.62818   0.23031   0.00000  Uiso   1.00
H200   H     0.27516   0.44671   0.30012   0.00000  Uiso   1.00
H201   H     0.02578   0.44677   0.30021   0.00000  Uiso   1.00
H202   H     0.05897   0.55304   0.20047   0.00000  Uiso   1.00
H203   H     0.26220   0.55483   0.41727   0.00000  Uiso   1.00
H204   H     0.30185   0.52416   0.47718   0.00000  Uiso   1.00
H205   H     0.13844   0.47983   0.09127   0.00000  Uiso   1.00
H206   H     0.05885   0.46198   0.41259   0.00000  Uiso   1.00
H207   H     0.05030   0.42469   0.49506   0.00000  Uiso   1.00
H208   H     0.23408   0.63059   0.26477   0.00000  Uiso   1.00
N209   N     0.04760   0.50001   0.25001   0.00000  Uiso   1.00
N210   N     0.28573   0.49998   0.25000   0.00000  Uiso   1.00
O211   O     0.12846   0.56108   0.25000   0.00000  Uiso   1.00
O212   O     0.20490   0.56107   0.25000   0.00000  Uiso   1.00
O213   O     0.10947   0.50000   0.32681   0.00000  Uiso   1.00
O214   O     0.18591   0.49999   0.32681   0.00000  Uiso   1.00
O215   O     0.12843   0.43893   0.24999   0.00000  Uiso   1.00
O216   O     0.20488   0.43892   0.24999   0.00000  Uiso   1.00
O217   O     0.14742   0.50001   0.17319   0.00000  Uiso   1.00
O218   O     0.22387   0.50000   0.17319   0.00000  Uiso   1.00
Zn219  Zn    0.11562   0.50001   0.25000   0.00000  Uiso   1.00
Zn220  Zn    0.21771   0.49999   0.25000   0.00000  Uiso   1.00
I221   I     0.31879   0.49615   0.07916   0.00000  Uiso   1.00
I222   I     0.30505   0.57958   0.17781   0.00000  Uiso   1.00
Cl223  Cl    0.11102   0.41416   0.05408   0.00000  Uiso   1.00
I224   I     0.18531   0.59046   0.37841   0.00000  Uiso   1.00
C225   C     0.50050   0.58003   0.24898   0.00000  Uiso   1.00
C226   C     0.48349   0.48325   0.48655   0.00000  Uiso   1.00
C227   C     0.48764   0.50580   0.43914   0.00000  Uiso   1.00
C228   C     0.51843   0.49131   0.01090   0.00000  Uiso   1.00
C229   C     0.56220   0.51144   0.48133   0.00000  Uiso   1.00
C230   C     0.56513   0.53415   0.43568   0.00000  Uiso   1.00
C231   C     0.52527   0.53570   0.41950   0.00000  Uiso   1.00
C232   C     0.50840   0.48603   0.06579   0.00000  Uiso   1.00
C233   C     0.59125   0.50186   0.05534   0.00000  Uiso   1.00
C234   C     0.45640   0.49588   0.41066   0.00000  Uiso   1.00
C235   C     0.53838   0.64613   0.25688   0.00000  Uiso   1.00
C236   C     0.47333   0.50072   0.35212   0.00000  Uiso   1.00
C237   C     0.53782   0.35529   0.25775   0.00000  Uiso   1.00
C238   C     0.49993   0.37588   0.24899   0.00000  Uiso   1.00
C239   C     0.46280   0.35416   0.23888   0.00000  Uiso   1.00
C240   C     0.46335   0.64486   0.23812   0.00000  Uiso   1.00
C241   C     0.50097   0.62426   0.24762   0.00000  Uiso   1.00
C242   C     0.63372   0.47038   0.27781   0.00000  Uiso   1.00
C243   C     0.34826   0.47043   0.27786   0.00000  Uiso   1.00
C244   C     0.36666   0.52952   0.22246   0.00000  Uiso   1.00
C245   C     0.65243   0.52988   0.22242   0.00000  Uiso   1.00
C246   C     0.49980   0.42001   0.24986   0.00000  Uiso   1.00
C247   C     0.52673   0.49779   0.14792   0.00000  Uiso   1.00
C248   C     0.59985   0.51295   0.00186   0.00000  Uiso   1.00
C249   C     0.54341   0.49417   0.08914   0.00000  Uiso   1.00
C250   C     0.41659   0.46967   0.43390   0.00000  Uiso   1.00
C251   C     0.41205   0.44786   0.48061   0.00000  Uiso   1.00
C252   C     0.44616   0.45266   0.00578   0.00000  Uiso   1.00
H253   H     0.56673   0.37184   0.26584   0.00000  Uiso   1.00
H254   H     0.43360   0.36996   0.23149   0.00000  Uiso   1.00
H255   H     0.43439   0.62818   0.23031   0.00000  Uiso   1.00
H256   H     0.60849   0.44671   0.30012   0.00000  Uiso   1.00
H257   H     0.35911   0.44677   0.30021   0.00000  Uiso   1.00
H258   H     0.39230   0.55304   0.20047   0.00000  Uiso   1.00
H259   H     0.59554   0.55483   0.41727   0.00000  Uiso   1.00
H260   H     0.63518   0.52416   0.47718   0.00000  Uiso   1.00
H261   H     0.47178   0.47983   0.09127   0.00000  Uiso   1.00
H262   H     0.39219   0.46198   0.41259   0.00000  Uiso   1.00
H263   H     0.38363   0.42469   0.49506   0.00000  Uiso   1.00
H264   H     0.56741   0.63059   0.26477   0.00000  Uiso   1.00
N265   N     0.38093   0.50001   0.25001   0.00000  Uiso   1.00
N266   N     0.61906   0.49998   0.25000   0.00000  Uiso   1.00
O267   O     0.46179   0.56108   0.25000   0.00000  Uiso   1.00
O268   O     0.53823   0.56107   0.25000   0.00000  Uiso   1.00
O269   O     0.44280   0.50000   0.32681   0.00000  Uiso   1.00
O270   O     0.51924   0.49999   0.32681   0.00000  Uiso   1.00
O271   O     0.46177   0.43893   0.24999   0.00000  Uiso   1.00
O272   O     0.53821   0.43892   0.24999   0.00000  Uiso   1.00
O273   O     0.48076   0.50001   0.17319   0.00000  Uiso   1.00
O274   O     0.55720   0.50000   0.17319   0.00000  Uiso   1.00
Zn275  Zn    0.44896   0.50001   0.25000   0.00000  Uiso   1.00
Zn276  Zn    0.55104   0.49999   0.25000   0.00000  Uiso   1.00
I277   I     0.65213   0.49615   0.07916   0.00000  Uiso   1.00
I278   I     0.63839   0.57958   0.17781   0.00000  Uiso   1.00
Cl279  Cl    0.44435   0.41416   0.05408   0.00000  Uiso   1.00
I280   I     0.51864   0.59046   0.37841   0.00000  Uiso   1.00
C281   C     0.83383   0.58003   0.24898   0.00000  Uiso   1.00
C282   C     0.81683   0.48325   0.48655   0.00000  Uiso   1.00
C283   C     0.82097   0.50580   0.43914   0.00000  Uiso   1.00
C284   C     0.85176   0.49131   0.01090   0.00000  Uiso   1.00
C285   C     0.89553   0.51144   0.48133   0.00000  Uiso   1.00
C286   C     0.89846   0.53415   0.43568   0.00000  Uiso   1.00
C287   C     0.85861   0.53570   0.41950   0.00000  Uiso   1.00
C288   C     0.84174   0.48603   0.06579   0.00000  Uiso   1.00
C289   C     0.92458   0.50186   0.05534   0.00000  Uiso   1.00
C290   C     0.78974   0.49588   0.41066   0.00000  Uiso   1.00
C291   C     0.87171   0.64613   0.25688   0.00000  Uiso   1.00
C292   C     0.80666   0.50072   0.35212   0.00000  Uiso   1.00
C293   C     0.87115   0.35529   0.25775   0.00000  Uiso   1.00
C294   C     0.83327   0.37588   0.24899   0.00000  Uiso   1.00
C295   C     0.79613   0.35416   0.23888   0.00000  Uiso   1.00
C296   C     0.79669   0.64486   0.23812   0.00000  Uiso   1.00
C297   C     0.83431   0.62426   0.24762   0.00000  Uiso   1.00
C298   C     0.96705   0.47038   0.27781   0.00000  Uiso   1.00
C299   C     0.68160   0.47043   0.27786   0.00000  Uiso   1.00
C300   C     0.69999   0.52952   0.22246   0.00000  Uiso   1.00
C301   C     0.98576   0.52988   0.22242   0.00000  Uiso   1.00
C302   C     0.83313   0.42001   0.24986   0.00000  Uiso   1.00
C303   C     0.86006   0.49779   0.14792   0.00000  Uiso   1.00
C304   C     0.93319   0.51295   0.00186   0.00000  Uiso   1.00
C305   C     0.87674   0.49417   0.08914   0.00000  Uiso   1.00
C306   C     0.74993   0.46967   0.43390   0.00000  Uiso   1.00
C307   C     0.74538   0.44786   0.48061   0.00000  Uiso   1.00
C308   C     0.77949   0.45266   0.00578   0.00000  Uiso   1.00
H309   H     0.90006   0.37184   0.26584   0.00000  Uiso   1.00
H310   H     0.76693   0.36996   0.23149   0.00000  Uiso   1.00
H311   H     0.76772   0.62818   0.23031   0.00000  Uiso   1.00
H312   H     0.94182   0.44671   0.30012   0.00000  Uiso   1.00
H313   H     0.69245   0.44677   0.30021   0.00000  Uiso   1.00
H314   H     0.72564   0.55304   0.20047   0.00000  Uiso   1.00
H315   H     0.92887   0.55483   0.41727   0.00000  Uiso   1.00
H316   H     0.96852   0.52416   0.47718   0.00000  Uiso   1.00
H317   H     0.80511   0.47983   0.09127   0.00000  Uiso   1.00
H318   H     0.72552   0.46198   0.41259   0.00000  Uiso   1.00
H319   H     0.71696   0.42469   0.49506   0.00000  Uiso   1.00
H320   H     0.90075   0.63059   0.26477   0.00000  Uiso   1.00
N321   N     0.71426   0.50001   0.25001   0.00000  Uiso   1.00
N322   N     0.95239   0.49998   0.25000   0.00000  Uiso   1.00
O323   O     0.79512   0.56108   0.25000   0.00000  Uiso   1.00
O324   O     0.87157   0.56107   0.25000   0.00000  Uiso   1.00
O325   O     0.77613   0.50000   0.32681   0.00000  Uiso   1.00
O326   O     0.85258   0.49999   0.32681   0.00000  Uiso   1.00
O327   O     0.79510   0.43893   0.24999   0.00000  Uiso   1.00
O328   O     0.87154   0.43892   0.24999   0.00000  Uiso   1.00
O329   O     0.81409   0.50001   0.17319   0.00000  Uiso   1.00
O330   O     0.89053   0.50000   0.17319   0.00000  Uiso   1.00
Zn331  Zn    0.78229   0.50001   0.25000   0.00000  Uiso   1.00
Zn332  Zn    0.88438   0.49999   0.25000   0.00000  Uiso   1.00
I333   I     0.98546   0.49615   0.07916   0.00000  Uiso   1.00
I334   I     0.97172   0.57958   0.17781   0.00000  Uiso   1.00
Cl335  Cl    0.77769   0.41416   0.05408   0.00000  Uiso   1.00
I336   I     0.85197   0.59046   0.37841   0.00000  Uiso   1.00
C337   C     0.16717   0.91336   0.24898   0.00000  Uiso   1.00
C338   C     0.15016   0.81659   0.48655   0.00000  Uiso   1.00
C339   C     0.15431   0.83913   0.43914   0.00000  Uiso   1.00
C340   C     0.18510   0.82464   0.01090   0.00000  Uiso   1.00
C341   C     0.22886   0.84477   0.48133   0.00000  Uiso   1.00
C342   C     0.23179   0.86748   0.43568   0.00000  Uiso   1.00
C343   C     0.19194   0.86903   0.41950   0.00000  Uiso   1.00
C344   C     0.17507   0.81936   0.06579   0.00000  Uiso   1.00
C345   C     0.25792   0.83520   0.05534   0.00000  Uiso   1.00
C346   C     0.12307   0.82921   0.41066   0.00000  Uiso   1.00
C347   C     0.20504   0.97946   0.25688   0.00000  Uiso   1.00
C348   C     0.13999   0.83405   0.35212   0.00000  Uiso   1.00
C349   C     0.20448   0.68862   0.25775   0.00000  Uiso   1.00
C350   C     0.16660   0.70922   0.24899   0.00000  Uiso   1.00
C351   C     0.12947   0.68749   0.23888   0.00000  Uiso   1.00
C352   C     0.13002   0.97819   0.23812   0.00000  Uiso   1.00
C353   C     0.16764   0.95759   0.24762   0.00000  Uiso   1.00
C354   C     0.30039   0.80371   0.27781   0.00000  Uiso   1.00
C355   C     0.01493   0.80376   0.27786   0.00000  Uiso   1.00
C356   C     0.03332   0.86285   0.22246   0.00000  Uiso   1.00
C357   C     0.31909   0.86321   0.22242   0.00000  Uiso   1.00
C358   C     0.16646   0.75334   0.24986   0.00000  Uiso   1.00
C359   C     0.19339   0.83112   0.14792   0.00000  Uiso   1.00
C360   C     0.26652   0.84629   0.00186   0.00000  Uiso   1.00
C361   C     0.21008   0.82750   0.08914   0.00000  Uiso   1.00
C362   C     0.08326   0.80300   0.43390   0.00000  Uiso   1.00
C363   C     0.07871   0.78119   0.48061   0.00000  Uiso   1.00
C364   C     0.11283   0.78599   0.00578   0.00000  Uiso   1.00
H365   H     0.23339   0.70517   0.26584   0.00000  Uiso   1.00
H366   H     0.10026   0.70329   0.23149   0.00000  Uiso   1.00
H367   H     0.10105   0.96152   0.23031   0.00000  Uiso   1.00
H368   H     0.27516   0.78004   0.30012   0.00000  Uiso   1.00
H369   H     0.02578   0.78011   0.30021   0.00000  Uiso   1.00
H370   H     0.05897   0.88638   0.20047   0.00000  Uiso   1.00
H371   H     0.26220   0.88816   0.41727   0.00000  Uiso   1.00
H372   H     0.30185   0.85749   0.47718   0.00000  Uiso   1.00
H373   H     0.13844   0.81316   0.09127   0.00000  Uiso   1.00
H374   H     0.05885   0.79532   0.41259   0.00000  Uiso   1.00
H375   H     0.05030   0.75802   0.49506   0.00000  Uiso   1.00
H376   H     0.23408   0.96393   0.26477   0.00000  Uiso   1.00
N377   N     0.04760   0.83334   0.25001   0.00000  Uiso   1.00
N378   N     0.28573   0.83331   0.25000   0.00000  Uiso   1.00
O379   O     0.12846   0.89442   0.25000   0.00000  Uiso   1.00
O380   O     0.20490   0.89441   0.25000   0.00000  Uiso   1.00
O381   O     0.10947   0.83333   0.32681   0.00000  Uiso   1.00
O382   O     0.18591   0.83332   0.32681   0.00000  Uiso   1.00
O383   O     0.12843   0.77226   0.24999   0.00000  Uiso   1.00
O384   O     0.20488   0.77225   0.24999   0.00000  Uiso   1.00
O385   O     0.14742   0.83335   0.17319   0.00000  Uiso   1.00
O386   O     0.22387   0.83334   0.17319   0.00000  Uiso   1.00
Zn387  Zn    0.11562   0.83334   0.25000   0.00000  Uiso   1.00
Zn388  Zn    0.21771   0.83333   0.25000   0.00000  Uiso   1.00
I389   I     0.31879   0.82949   0.07916   0.00000  Uiso   1.00
I390   I     0.30505   0.91292   0.17781   0.00000  Uiso   1.00
Cl391  Cl    0.11102   0.74749   0.05408   0.00000  Uiso   1.00
I392   I     0.18531   0.92380   0.37841   0.00000  Uiso   1.00
C393   C     0.50050   0.91336   0.24898   0.00000  Uiso   1.00
C394   C     0.48349   0.81659   0.48655   0.00000  Uiso   1.00
C395   C     0.48764   0.83913   0.43914   0.00000  Uiso   1.00
C396   C     0.51843   0.82464   0.01090   0.00000  Uiso   1.00
C397   C     0.56220   0.84477   0.48133   0.00000  Uiso   1.00
C398   C     0.56513   0.86748   0.43568   0.00000  Uiso   1.00
C399   C     0.52527   0.86903   0.41950   0.00000  Uiso   1.00
C400   C     0.50840   0.81936   0.06579   0.00000  Uiso   1.00
C401   C     0.59125   0.83520   0.05534   0.00000  Uiso   1.00
C402   C     0.45640   0.82921   0.41066   0.00000  Uiso   1.00
C403   C     0.53838   0.97946   0.25688   0.00000  Uiso   1.00
C404   C     0.47333   0.83405   0.35212   0.00000  Uiso   1.00
C405   C     0.53782   0.68862   0.25775   0.00000  Uiso   1.00
C406   C     0.49993   0.70922   0.24899   0.00000  Uiso   1.00
C407   C     0.46280   0.68749   0.23888   0.00000  Uiso   1.00
C408   C     0.46335   0.97819   0.23812   0.00000  Uiso   1.00
C409   C     0.50097   0.95759   0.24762   0.00000  Uiso   1.00
C410   C     0.63372   0.80371   0.27781   0.00000  Uiso   1.00
C411   C     0.34826   0.80376   0.27786   0.00000  Uiso   1.00
C412   C     0.36666   0.86285   0.22246   0.00000  Uiso   1.00
C413   C     0.65243   0.86321   0.22242   0.00000  Uiso   1.00
C414   C     0.49980   0.75334   0.24986   0.00000  Uiso   1.00
C415   C     0.52673   0.83112   0.14792   0.00000  Uiso   1.00
C416   C     0.59985   0.84629   0.00186   0.00000  Uiso   1.00
C417   C     0.54341   0.82750   0.08914   0.00000  Uiso   1.00
C418   C     0.41659   0.80300   0.43390   0.00000  Uiso   1.00
C419   C     0.41205   0.78119   0.48061   0.00000  Uiso   1.00
C420   C     0.44616   0.78599   0.00578   0.00000  Uiso   1.00
H421   H     0.56673   0.70517   0.26584   0.00000  Uiso   1.00
H422   H     0.43360   0.70329   0.23149   0.00000  Uiso   1.00
H423   H     0.43439   0.96152   0.23031   0.00000  Uiso   1.00
H424   H     0.60849   0.78004   0.30012   0.00000  Uiso   1.00
H425   H     0.35911   0.78011   0.30021   0.00000  Uiso   1.00
H426   H     0.39230   0.88638   0.20047   0.00000  Uiso   1.00
H427   H     0.59554   0.88816   0.41727   0.00000  Uiso   1.00
H428   H     0.63518   0.85749   0.47718   0.00000  Uiso   1.00
H429   H     0.47178   0.81316   0.09127   0.00000  Uiso   1.00
H430   H     0.39219   0.79532   0.41259   0.00000  Uiso   1.00
H431   H     0.38363   0.75802   0.49506   0.00000  Uiso   1.00
H432   H     0.56741   0.96393   0.26477   0.00000  Uiso   1.00
N433   N     0.38093   0.83334   0.25001   0.00000  Uiso   1.00
N434   N     0.61906   0.83331   0.25000   0.00000  Uiso   1.00
O435   O     0.46179   0.89442   0.25000   0.00000  Uiso   1.00
O436   O     0.53823   0.89441   0.25000   0.00000  Uiso   1.00
O437   O     0.44280   0.83333   0.32681   0.00000  Uiso   1.00
O438   O     0.51924   0.83332   0.32681   0.00000  Uiso   1.00
O439   O     0.46177   0.77226   0.24999   0.00000  Uiso   1.00
O440   O     0.53821   0.77225   0.24999   0.00000  Uiso   1.00
O441   O     0.48076   0.83335   0.17319   0.00000  Uiso   1.00
O442   O     0.55720   0.83334   0.17319   0.00000  Uiso   1.00
Zn443  Zn    0.44896   0.83334   0.25000   0.00000  Uiso   1.00
Zn444  Zn    0.55104   0.83333   0.25000   0.00000  Uiso   1.00
I445   I     0.65213   0.82949   0.07916   0.00000  Uiso   1.00
I446   I     0.63839   0.91292   0.17781   0.00000  Uiso   1.00
Cl447  Cl    0.44435   0.74749   0.05408   0.00000  Uiso   1.00
I448   I     0.51864   0.92380   0.37841   0.00000  Uiso   1.00
C449   C     0.83383   0.91336   0.24898   0.00000  Uiso   1.00
C450   C     0.81683   0.81659   0.48655   0.00000  Uiso   1.00
C451   C     0.82097   0.83913   0.43914   0.00000  Uiso   1.00
C452   C     0.85176   0.82464   0.01090   0.00000  Uiso   1.00
C453   C     0.89553   0.84477   0.48133   0.00000  Uiso   1.00
C454   C     0.89846   0.86748   0.43568   0.00000  Uiso   1.00
C455   C     0.85861   0.86903   0.41950   0.00000  Uiso   1.00
C456   C     0.84174   0.81936   0.06579   0.00000  Uiso   1.00
C457   C     0.92458   0.83520   0.05534   0.00000  Uiso   1.00
C458   C     0.78974   0.82921   0.41066   0.00000  Uiso   1.00
C459   C     0.87171   0.97946   0.25688   0.00000  Uiso   1.00
C460   C     0.80666   0.83405   0.35212   0.00000  Uiso   1.00
C461   C     0.87115   0.68862   0.25775   0.00000  Uiso   1.00
C462   C     0.83327   0.70922   0.24899   0.00000  Uiso   1.00
C463   C     0.79613   0.68749   0.23888   0.00000  Uiso   1.00
C464   C     0.79669   0.97819   0.23812   0.00000  Uiso   1.00
C465   C     0.83431   0.95759   0.24762   0.00000  Uiso   1.00
C466   C     0.96705   0.80371   0.27781   0.00000  Uiso   1.00
C467   C     0.68160   0.80376   0.27786   0.00000  Uiso   1.00
C468   C     0.69999   0.86285   0.22246   0.00000  Uiso   1.00
C469   C     0.98576   0.86321   0.22242   0.00000  Uiso   1.00
C470   C     0.83313   0.75334   0.24986   0.00000  Uiso   1.00
C471   C     0.86006   0.83112   0.14792   0.00000  Uiso   1.00
C472   C     0.93319   0.84629   0.00186   0.00000  Uiso   1.00
C473   C     0.87674   0.82750   0.08914   0.00000  Uiso   1.00
C474   C     0.74993   0.80300   0.43390   0.00000  Uiso   1.00
C475   C     0.74538   0.78119   0.48061   0.00000  Uiso   1.00
C476   C     0.77949   0.78599   0.00578   0.00000  Uiso   1.00
H477   H     0.90006   0.70517   0.26584   0.00000  Uiso   1.00
H478   H     0.76693   0.70329   0.23149   0.00000  Uiso   1.00
H479   H     0.76772   0.96152   0.23031   0.00000  Uiso   1.00
H480   H     0.94182   0.78004   0.30012   0.00000  Uiso   1.00
H481   H     0.69245   0.78011   0.30021   0.00000  Uiso   1.00
H482   H     0.72564   0.88638   0.20047   0.00000  Uiso   1.00
H483   H     0.92887   0.88816   0.41727   0.00000  Uiso   1.00
H484   H     0.96852   0.85749   0.47718   0.00000  Uiso   1.00
H485   H     0.80511   0.81316   0.09127   0.00000  Uiso   1.00
H486   H     0.72552   0.79532   0.41259   0.00000  Uiso   1.00
H487   H     0.71696   0.75802   0.49506   0.00000  Uiso   1.00
H488   H     0.90075   0.96393   0.26477   0.00000  Uiso   1.00
N489   N     0.71426   0.83334   0.25001   0.00000  Uiso   1.00
N490   N     0.95239   0.83331   0.25000   0.00000  Uiso   1.00
O491   O     0.79512   0.89442   0.25000   0.00000  Uiso   1.00
O492   O     0.87157   0.89441   0.25000   0.00000  Uiso   1.00
O493   O     0.77613   0.83333   0.32681   0.00000  Uiso   1.00
O494   O     0.85258   0.83332   0.32681   0.00000  Uiso   1.00
O495   O     0.79510   0.77226   0.24999   0.00000  Uiso   1.00
O496   O     0.87154   0.77225   0.24999   0.00000  Uiso   1.00
O497   O     0.81409   0.83335   0.17319   0.00000  Uiso   1.00
O498   O     0.89053   0.83334   0.17319   0.00000  Uiso   1.00
Zn499  Zn    0.78229   0.83334   0.25000   0.00000  Uiso   1.00
Zn500  Zn    0.88438   0.83333   0.25000   0.00000  Uiso   1.00
I501   I     0.98546   0.82949   0.07916   0.00000  Uiso   1.00
I502   I     0.97172   0.91292   0.17781   0.00000  Uiso   1.00
Cl503  Cl    0.77769   0.74749   0.05408   0.00000  Uiso   1.00
I504   I     0.85197   0.92380   0.37841   0.00000  Uiso   1.00
C505   C     0.16717   0.24670   0.74898   0.00000  Uiso   1.00
C506   C     0.15016   0.14992   0.98655   0.00000  Uiso   1.00
C507   C     0.15431   0.17247   0.93914   0.00000  Uiso   1.00
C508   C     0.18510   0.15797   0.51090   0.00000  Uiso   1.00
C509   C     0.22886   0.17811   0.98133   0.00000  Uiso   1.00
C510   C     0.23179   0.20082   0.93568   0.00000  Uiso   1.00
C511   C     0.19194   0.20236   0.91950   0.00000  Uiso   1.00
C512   C     0.17507   0.15269   0.56579   0.00000  Uiso   1.00
C513   C     0.25792   0.16853   0.55534   0.00000  Uiso   1.00
C514   C     0.12307   0.16255   0.91066   0.00000  Uiso   1.00
C515   C     0.20504   0.31280   0.75688   0.00000  Uiso   1.00
C516   C     0.13999   0.16738   0.85212   0.00000  Uiso   1.00
C517   C     0.20448   0.02195   0.75775   0.00000  Uiso   1.00
C518   C     0.16660   0.04255   0.74899   0.00000  Uiso   1.00
C519   C     0.12947   0.02083   0.73888   0.00000  Uiso   1.00
C520   C     0.13002   0.31153   0.73812   0.00000  Uiso   1.00
C521   C     0.16764   0.29092   0.74762   0.00000  Uiso   1.00
C522   C     0.30039   0.13705   0.77781   0.00000  Uiso   1.00
C523   C     0.01493   0.13710   0.77786   0.00000  Uiso   1.00
C524   C     0.03332   0.19619   0.72246   0.00000  Uiso   1.00
C525   C     0.31909   0.19655   0.72242   0.00000  Uiso   1.00
C526   C     0.16646   0.08668   0.74986   0.00000  Uiso   1.00
C527   C     0.19339   0.16445   0.64792   0.00000  Uiso   1.00
C528   C     0.26652   0.17962   0.50186   0.00000  Uiso   1.00
C529   C     0.21008   0.16084   0.58914   0.00000  Uiso   1.00
C530   C     0.08326   0.13634   0.93390   0.00000  Uiso   1.00
C531   C     0.07871   0.11453   0.98061   0.00000  Uiso   1.00
C532   C     0.11283   0.11932   0.50578   0.00000  Uiso   1.00
H533   H     0.23339   0.03850   0.76584   0.00000  Uiso   1.00
H534   H     0.10026   0.03662   0.73149   0.00000  Uiso   1.00
H535   H     0.10105   0.29485   0.73031   0.00000  Uiso   1.00
H536   H     0.27516   0.11337   0.80012   0.00000  Uiso   1.00
H537   H     0.02578   0.11344   0.80021   0.00000  Uiso   1.00
H538   H     0.05897   0.21971   0.70047   0.00000  Uiso   1.00
H539   H     0.26220   0.22150   0.91727   0.00000  Uiso   1.00
H540   H     0.30185   0.19083   0.97718   0.00000  Uiso   1.00
H541   H     0.13844   0.14650   0.59127   0.00000  Uiso   1.00
H542   H     0.05885   0.12865   0.91259   0.00000  Uiso   1.00
H543   H     0.05030   0.09135   0.99506   0.00000  Uiso   1.00
H544   H     0.23408   0.29726   0.76477   0.00000  Uiso   1.00
N545   N     0.04760   0.16668   0.75001   0.00000  Uiso   1.00
N546   N     0.28573   0.16665   0.75000   0.00000  Uiso   1.00
O547   O     0.12846   0.22775   0.75000   0.00000  Uiso   1.00
O548   O     0.20490   0.22774   0.75000   0.00000  Uiso   1.00
O549   O     0.10947   0.16666   0.82681   0.00000  Uiso   1.00
O550   O     0.18591   0.16665   0.82681   0.00000  Uiso   1.00
O551   O     0.12843   0.10559   0.74999   0.00000  Uiso   1.00
O552   O     0.20488   0.10558   0.74999   0.00000  Uiso   1.00
O553   O     0.14742   0.16668   0.67319   0.00000  Uiso   1.00
O554   O     0.22387   0.16667   0.67319   0.00000  Uiso   1.00
Zn555  Zn    0.11562   0.16667   0.75000   0.00000  Uiso   1.00
Zn556  Zn    0.21771   0.16666   0.75000   0.00000  Uiso   1.00
I557   I     0.31879   0.16282   0.57916   0.00000  Uiso   1.00
I558   I     0.30505   0.24625   0.67781   0.00000  Uiso   1.00
Cl559  Cl    0.11102   0.08083   0.55408   0.00000  Uiso   1.00
I560   I     0.18531   0.25713   0.87841   0.00000  Uiso   1.00
C561   C     0.50050   0.24670   0.74898   0.00000  Uiso   1.00
C562   C     0.48349   0.14992   0.98655   0.00000  Uiso   1.00
C563   C     0.48764   0.17247   0.93914   0.00000  Uiso   1.00
C564   C     0.51843   0.15797   0.51090   0.00000  Uiso   1.00
C565   C     0.56220   0.17811   0.98133   0.00000  Uiso   1.00
C566   C     0.56513   0.20082   0.93568   0.00000  Uiso   1.00
C567   C     0.52527   0.20236   0.91950   0.00000  Uiso   1.00
C568   C     0.50840   0.15269   0.56579   0.00000  Uiso   1.00
C569   C     0.59125   0.16853   0.55534   0.00000  Uiso   1.00
C570   C     0.45640   0.16255   0.91066   0.00000  Uiso   1.00
C571   C     0.53838   0.31280   0.75688   0.00000  Uiso   1.00
C572   C     0.47333   0.16738   0.85212   0.00000  Uiso   1.00
C573   C     0.53782   0.02195   0.75775   0.00000  Uiso   1.00
C574   C     0.49993   0.04255   0.74899   0.00000  Uiso   1.00
C575   C     0.46280   0.02083   0.73888   0.00000  Uiso   1.00
C576   C     0.46335   0.31153   0.73812   0.00000  Uiso   1.00
C577   C     0.50097   0.29092   0.74762   0.00000  Uiso   1.00
C578   C     0.63372   0.13705   0.77781   0.00000  Uiso   1.00
C579   C     0.34826   0.13710   0.77786   0.00000  Uiso   1.00
C580   C     0.36666   0.19619   0.72246   0.00000  Uiso   1.00
C581   C     0.65243   0.19655   0.72242   0.00000  Uiso   1.00
C582   C     0.49980   0.08668   0.74986   0.00000  Uiso   1.00
C583   C     0.52673   0.16445   0.64792   0.00000  Uiso   1.00
C584   C     0.59985   0.17962   0.50186   0.00000  Uiso   1.00
C585   C     0.54341   0.16084   0.58914   0.00000  Uiso   1.00
C586   C     0.41659   0.13634   0.93390   0.00000  Uiso   1.00
C587   C     0.41205   0.11453   0.98061   0.00000  Uiso   1.00
C588   C     0.44616   0.11932   0.50578   0.00000  Uiso   1.00
H589   H     0.56673   0.03850   0.76584   0.00000  Uiso   1.00
H590   H     0.43360   0.03662   0.73149   0.00000  Uiso   1.00
H591   H     0.43439   0.29485   0.73031   0.00000  Uiso   1.00
H592   H     0.60849   0.11337   0.80012   0.00000  Uiso   1.00
H593   H     0.35911   0.11344   0.80021   0.00000  Uiso   1.00
H594   H     0.39230   0.21971   0.70047   0.00000  Uiso   1.00
H595   H     0.59554   0.22150   0.91727   0.00000  Uiso   1.00
H596   H     0.63518   0.19083   0.97718   0.00000  Uiso   1.00
H597   H     0.47178   0.14650   0.59127   0.00000  Uiso   1.00
H598   H     0.39219   0.12865   0.91259   0.00000  Uiso   1.00
H599   H     0.38363   0.09135   0.99506   0.00000  Uiso   1.00
H600   H     0.56741   0.29726   0.76477   0.00000  Uiso   1.00
N601   N     0.38093   0.16668   0.75001   0.00000  Uiso   1.00
N602   N     0.61906   0.16665   0.75000   0.00000  Uiso   1.00
O603   O     0.46179   0.22775   0.75000   0.00000  Uiso   1.00
O604   O     0.53823   0.22774   0.75000   0.00000  Uiso   1.00
O605   O     0.44280   0.16666   0.82681   0.00000  Uiso   1.00
O606   O     0.51924   0.16665   0.82681   0.00000  Uiso   1.00
O607   O     0.46177   0.10559   0.74999   0.00000  Uiso   1.00
O608   O     0.53821   0.10558   0.74999   0.00000  Uiso   1.00
O609   O     0.48076   0.16668   0.67319   0.00000  Uiso   1.00
O610   O     0.55720   0.16667   0.67319   0.00000  Uiso   1.00
Zn611  Zn    0.44896   0.16667   0.75000   0.00000  Uiso   1.00
Zn612  Zn    0.55104   0.16666   0.75000   0.00000  Uiso   1.00
I613   I     0.65213   0.16282   0.57916   0.00000  Uiso   1.00
I614   I     0.63839   0.24625   0.67781   0.00000  Uiso   1.00
Cl615  Cl    0.44435   0.08083   0.55408   0.00000  Uiso   1.00
I616   I     0.51864   0.25713   0.87841   0.00000  Uiso   1.00
C617   C     0.83383   0.24670   0.74898   0.00000  Uiso   1.00
C618   C     0.81683   0.14992   0.98655   0.00000  Uiso   1.00
C619   C     0.82097   0.17247   0.93914   0.00000  Uiso   1.00
C620   C     0.85176   0.15797   0.51090   0.00000  Uiso   1.00
C621   C     0.89553   0.17811   0.98133   0.00000  Uiso   1.00
C622   C     0.89846   0.20082   0.93568   0.00000  Uiso   1.00
C623   C     0.85861   0.20236   0.91950   0.00000  Uiso   1.00
C624   C     0.84174   0.15269   0.56579   0.00000  Uiso   1.00
C625   C     0.92458   0.16853   0.55534   0.00000  Uiso   1.00
C626   C     0.78974   0.16255   0.91066   0.00000  Uiso   1.00
C627   C     0.87171   0.31280   0.75688   0.00000  Uiso   1.00
C628   C     0.80666   0.16738   0.85212   0.00000  Uiso   1.00
C629   C     0.87115   0.02195   0.75775   0.00000  Uiso   1.00
C630   C     0.83327   0.04255   0.74899   0.00000  Uiso   1.00
C631   C     0.79613   0.02083   0.73888   0.00000  Uiso   1.00
C632   C     0.79669   0.31153   0.73812   0.00000  Uiso   1.00
C633   C     0.83431   0.29092   0.74762   0.00000  Uiso   1.00
C634   C     0.96705   0.13705   0.77781   0.00000  Uiso   1.00
C635   C     0.68160   0.13710   0.77786   0.00000  Uiso   1.00
C636   C     0.69999   0.19619   0.72246   0.00000  Uiso   1.00
C637   C     0.98576   0.19655   0.72242   0.00000  Uiso   1.00
C638   C     0.83313   0.08668   0.74986   0.00000  Uiso   1.00
C639   C     0.86006   0.16445   0.64792   0.00000  Uiso   1.00
C640   C     0.93319   0.17962   0.50186   0.00000  Uiso   1.00
C641   C     0.87674   0.16084   0.58914   0.00000  Uiso   1.00
C642   C     0.74993   0.13634   0.93390   0.00000  Uiso   1.00
C643   C     0.74538   0.11453   0.98061   0.00000  Uiso   1.00
C644   C     0.77949   0.11932   0.50578   0.00000  Uiso   1.00
H645   H     0.90006   0.03850   0.76584   0.00000  Uiso   1.00
H646   H     0.76693   0.03662   0.73149   0.00000  Uiso   1.00
H647   H     0.76772   0.29485   0.73031   0.00000  Uiso   1.00
H648   H     0.94182   0.11337   0.80012   0.00000  Uiso   1.00
H649   H     0.69245   0.11344   0.80021   0.00000  Uiso   1.00
H650   H     0.72564   0.21971   0.70047   0.00000  Uiso   1.00
H651   H     0.92887   0.22150   0.91727   0.00000  Uiso   1.00
H652   H     0.96852   0.19083   0.97718   0.00000  Uiso   1.00
H653   H     0.80511   0.14650   0.59127   0.00000  Uiso   1.00
H654   H     0.72552   0.12865   0.91259   0.00000  Uiso   1.00
H655   H     0.71696   0.09135   0.99506   0.00000  Uiso   1.00
H656   H     0.90075   0.29726   0.76477   0.00000  Uiso   1.00
N657   N     0.71426   0.16668   0.75001   0.00000  Uiso   1.00
N658   N     0.95239   0.16665   0.75000   0.00000  Uiso   1.00
O659   O     0.79512   0.22775   0.75000   0.00000  Uiso   1.00
O660   O     0.87157   0.22774   0.75000   0.00000  Uiso   1.00
O661   O     0.77613   0.16666   0.82681   0.00000  Uiso   1.00
O662   O     0.85258   0.16665   0.82681   0.00000  Uiso   1.00
O663   O     0.79510   0.10559   0.74999   0.00000  Uiso   1.00
O664   O     0.87154   0.10558   0.74999   0.00000  Uiso   1.00
O665   O     0.81409   0.16668   0.67319   0.00000  Uiso   1.00
O666   O     0.89053   0.16667   0.67319   0.00000  Uiso   1.00
Zn667  Zn    0.78229   0.16667   0.75000   0.00000  Uiso   1.00
Zn668  Zn    0.88438   0.16666   0.75000   0.00000  Uiso   1.00
I669   I     0.98546   0.16282   0.57916   0.00000  Uiso   1.00
I670   I     0.97172   0.24625   0.67781   0.00000  Uiso   1.00
Cl671  Cl    0.77769   0.08083   0.55408   0.00000  Uiso   1.00
I672   I     0.85197   0.25713   0.87841   0.00000  Uiso   1.00
C673   C     0.16717   0.58003   0.74898   0.00000  Uiso   1.00
C674   C     0.15016   0.48325   0.98655   0.00000  Uiso   1.00
C675   C     0.15431   0.50580   0.93914   0.00000  Uiso   1.00
C676   C     0.18510   0.49131   0.51090   0.00000  Uiso   1.00
C677   C     0.22886   0.51144   0.98133   0.00000  Uiso   1.00
C678   C     0.23179   0.53415   0.93568   0.00000  Uiso   1.00
C679   C     0.19194   0.53570   0.91950   0.00000  Uiso   1.00
C680   C     0.17507   0.48603   0.56579   0.00000  Uiso   1.00
C681   C     0.25792   0.50186   0.55534   0.00000  Uiso   1.00
C682   C     0.12307   0.49588   0.91066   0.00000  Uiso   1.00
C683   C     0.20504   0.64613   0.75688   0.00000  Uiso   1.00
C684   C     0.13999   0.50072   0.85212   0.00000  Uiso   1.00
C685   C     0.20448   0.35529   0.75775   0.00000  Uiso   1.00
C686   C     0.16660   0.37588   0.74899   0.00000  Uiso   1.00
C687   C     0.12947   0.35416   0.73888   0.00000  Uiso   1.00
C688   C     0.13002   0.64486   0.73812   0.00000  Uiso   1.00
C689   C     0.16764   0.62426   0.74762   0.00000  Uiso   1.00
C690   C     0.30039   0.47038   0.77781   0.00000  Uiso   1.00
C691   C     0.01493   0.47043   0.77786   0.00000  Uiso   1.00
C692   C     0.03332   0.52952   0.72246   0.00000  Uiso   1.00
C693   C     0.31909   0.52988   0.72242   0.00000  Uiso   1.00
C694   C     0.16646   0.42001   0.74986   0.00000  Uiso   1.00
C695   C     0.19339   0.49779   0.64792   0.00000  Uiso   1.00
C696   C     0.26652   0.51295   0.50186   0.00000  Uiso   1.00
C697   C     0.21008   0.49417   0.58914   0.00000  Uiso   1.00
C698   C     0.08326   0.46967   0.93390   0.00000  Uiso   1.00
C699   C     0.07871   0.44786   0.98061   0.00000  Uiso   1.00
C700   C     0.11283   0.45266   0.50578   0.00000  Uiso   1.00
H701   H     0.23339   0.37184   0.76584   0.00000  Uiso   1.00
H702   H     0.10026   0.36996   0.73149   0.00000  Uiso   1.00
H703   H     0.10105   0.62818   0.73031   0.00000  Uiso   1.00
H704   H     0.27516   0.44671   0.80012   0.00000  Uiso   1.00
H705   H     0.02578   0.44677   0.80021   0.00000  Uiso   1.00
H706   H     0.05897   0.55304   0.70047   0.00000  Uiso   1.00
H707   H     0.26220   0.55483   0.91727   0.00000  Uiso   1.00
H708   H     0.30185   0.52416   0.97718   0.00000  Uiso   1.00
H709   H     0.13844   0.47983   0.59127   0.00000  Uiso   1.00
H710   H     0.05885   0.46198   0.91259   0.00000  Uiso   1.00
H711   H     0.05030   0.42469   0.99506   0.00000  Uiso   1.00
H712   H     0.23408   0.63059   0.76477   0.00000  Uiso   1.00
N713   N     0.04760   0.50001   0.75001   0.00000  Uiso   1.00
N714   N     0.28573   0.49998   0.75000   0.00000  Uiso   1.00
O715   O     0.12846   0.56108   0.75000   0.00000  Uiso   1.00
O716   O     0.20490   0.56107   0.75000   0.00000  Uiso   1.00
O717   O     0.10947   0.50000   0.82681   0.00000  Uiso   1.00
O718   O     0.18591   0.49999   0.82681   0.00000  Uiso   1.00
O719   O     0.12843   0.43893   0.74999   0.00000  Uiso   1.00
O720   O     0.20488   0.43892   0.74999   0.00000  Uiso   1.00
O721   O     0.14742   0.50001   0.67319   0.00000  Uiso   1.00
O722   O     0.22387   0.50000   0.67319   0.00000  Uiso   1.00
Zn723  Zn    0.11562   0.50001   0.75000   0.00000  Uiso   1.00
Zn724  Zn    0.21771   0.49999   0.75000   0.00000  Uiso   1.00
I725   I     0.31879   0.49615   0.57916   0.00000  Uiso   1.00
I726   I     0.30505   0.57958   0.67781   0.00000  Uiso   1.00
Cl727  Cl    0.11102   0.41416   0.55408   0.00000  Uiso   1.00
I728   I     0.18531   0.59046   0.87841   0.00000  Uiso   1.00
C729   C     0.50050   0.58003   0.74898   0.00000  Uiso   1.00
C730   C     0.48349   0.48325   0.98655   0.00000  Uiso   1.00
C731   C     0.48764   0.50580   0.93914   0.00000  Uiso   1.00
C732   C     0.51843   0.49131   0.51090   0.00000  Uiso   1.00
C733   C     0.56220   0.51144   0.98133   0.00000  Uiso   1.00
C734   C     0.56513   0.53415   0.93568   0.00000  Uiso   1.00
C735   C     0.52527   0.53570   0.91950   0.00000  Uiso   1.00
C736   C     0.50840   0.48603   0.56579   0.00000  Uiso   1.00
C737   C     0.59125   0.50186   0.55534   0.00000  Uiso   1.00
C738   C     0.45640   0.49588   0.91066   0.00000  Uiso   1.00
C739   C     0.53838   0.64613   0.75688   0.00000  Uiso   1.00
C740   C     0.47333   0.50072   0.85212   0.00000  Uiso   1.00
C741   C     0.53782   0.35529   0.75775   0.00000  Uiso   1.00
C742   C     0.49993   0.37588   0.74899   0.00000  Uiso   1.00
C743   C     0.46280   0.35416   0.73888   0.00000  Uiso   1.00
C744   C     0.46335   0.64486   0.73812   0.00000  Uiso   1.00
C745   C     0.50097   0.62426   0.74762   0.00000  Uiso   1.00
C746   C     0.63372   0.47038   0.77781   0.00000  Uiso   1.00
C747   C     0.34826   0.47043   0.77786   0.00000  Uiso   1.00
C748   C     0.36666   0.52952   0.72246   0.00000  Uiso   1.00
C749   C     0.65243   0.52988   0.72242   0.00000  Uiso   1.00
C750   C     0.49980   0.42001   0.74986   0.00000  Uiso   1.00
C751   C     0.52673   0.49779   0.64792   0.00000  Uiso   1.00
C752   C     0.59985   0.51295   0.50186   0.00000  Uiso   1.00
C753   C     0.54341   0.49417   0.58914   0.00000  Uiso   1.00
C754   C     0.41659   0.46967   0.93390   0.00000  Uiso   1.00
C755   C     0.41205   0.44786   0.98061   0.00000  Uiso   1.00
C756   C     0.44616   0.45266   0.50578   0.00000  Uiso   1.00
H757   H     0.56673   0.37184   0.76584   0.00000  Uiso   1.00
H758   H     0.43360   0.36996   0.73149   0.00000  Uiso   1.00
H759   H     0.43439   0.62818   0.73031   0.00000  Uiso   1.00
H760   H     0.60849   0.44671   0.80012   0.00000  Uiso   1.00
H761   H     0.35911   0.44677   0.80021   0.00000  Uiso   1.00
H762   H     0.39230   0.55304   0.70047   0.00000  Uiso   1.00
H763   H     0.59554   0.55483   0.91727   0.00000  Uiso   1.00
H764   H     0.63518   0.52416   0.97718   0.00000  Uiso   1.00
H765   H     0.47178   0.47983   0.59127   0.00000  Uiso   1.00
H766   H     0.39219   0.46198   0.91259   0.00000  Uiso   1.00
H767   H     0.38363   0.42469   0.99506   0.00000  Uiso   1.00
H768   H     0.56741   0.63059   0.76477   0.00000  Uiso   1.00
N769   N     0.38093   0.50001   0.75001   0.00000  Uiso   1.00
N770   N     0.61906   0.49998   0.75000   0.00000  Uiso   1.00
O771   O     0.46179   0.56108   0.75000   0.00000  Uiso   1.00
O772   O     0.53823   0.56107   0.75000   0.00000  Uiso   1.00
O773   O     0.44280   0.50000   0.82681   0.00000  Uiso   1.00
O774   O     0.51924   0.49999   0.82681   0.00000  Uiso   1.00
O775   O     0.46177   0.43893   0.74999   0.00000  Uiso   1.00
O776   O     0.53821   0.43892   0.74999   0.00000  Uiso   1.00
O777   O     0.48076   0.50001   0.67319   0.00000  Uiso   1.00
O778   O     0.55720   0.50000   0.67319   0.00000  Uiso   1.00
Zn779  Zn    0.44896   0.50001   0.75000   0.00000  Uiso   1.00
Zn780  Zn    0.55104   0.49999   0.75000   0.00000  Uiso   1.00
I781   I     0.65213   0.49615   0.57916   0.00000  Uiso   1.00
I782   I     0.63839   0.57958   0.67781   0.00000  Uiso   1.00
Cl783  Cl    0.44435   0.41416   0.55408   0.00000  Uiso   1.00
I784   I     0.51864   0.59046   0.87841   0.00000  Uiso   1.00
C785   C     0.83383   0.58003   0.74898   0.00000  Uiso   1.00
C786   C     0.81683   0.48325   0.98655   0.00000  Uiso   1.00
C787   C     0.82097   0.50580   0.93914   0.00000  Uiso   1.00
C788   C     0.85176   0.49131   0.51090   0.00000  Uiso   1.00
C789   C     0.89553   0.51144   0.98133   0.00000  Uiso   1.00
C790   C     0.89846   0.53415   0.93568   0.00000  Uiso   1.00
C791   C     0.85861   0.53570   0.91950   0.00000  Uiso   1.00
C792   C     0.84174   0.48603   0.56579   0.00000  Uiso   1.00
C793   C     0.92458   0.50186   0.55534   0.00000  Uiso   1.00
C794   C     0.78974   0.49588   0.91066   0.00000  Uiso   1.00
C795   C     0.87171   0.64613   0.75688   0.00000  Uiso   1.00
C796   C     0.80666   0.50072   0.85212   0.00000  Uiso   1.00
C797   C     0.87115   0.35529   0.75775   0.00000  Uiso   1.00
C798   C     0.83327   0.37588   0.74899   0.00000  Uiso   1.00
C799   C     0.79613   0.35416   0.73888   0.00000  Uiso   1.00
C800   C     0.79669   0.64486   0.73812   0.00000  Uiso   1.00
C801   C     0.83431   0.62426   0.74762   0.00000  Uiso   1.00
C802   C     0.96705   0.47038   0.77781   0.00000  Uiso   1.00
C803   C     0.68160   0.47043   0.77786   0.00000  Uiso   1.00
C804   C     0.69999   0.52952   0.72246   0.00000  Uiso   1.00
C805   C     0.98576   0.52988   0.72242   0.00000  Uiso   1.00
C806   C     0.83313   0.42001   0.74986   0.00000  Uiso   1.00
C807   C     0.86006   0.49779   0.64792   0.00000  Uiso   1.00
C808   C     0.93319   0.51295   0.50186   0.00000  Uiso   1.00
C809   C     0.87674   0.49417   0.58914   0.00000  Uiso   1.00
C810   C     0.74993   0.46967   0.93390   0.00000  Uiso   1.00
C811   C     0.74538   0.44786   0.98061   0.00000  Uiso   1.00
C812   C     0.77949   0.45266   0.50578   0.00000  Uiso   1.00
H813   H     0.90006   0.37184   0.76584   0.00000  Uiso   1.00
H814   H     0.76693   0.36996   0.73149   0.00000  Uiso   1.00
H815   H     0.76772   0.62818   0.73031   0.00000  Uiso   1.00
H816   H     0.94182   0.44671   0.80012   0.00000  Uiso   1.00
H817   H     0.69245   0.44677   0.80021   0.00000  Uiso   1.00
H818   H     0.72564   0.55304   0.70047   0.00000  Uiso   1.00
H819   H     0.92887   0.55483   0.91727   0.00000  Uiso   1.00
H820   H     0.96852   0.52416   0.97718   0.00000  Uiso   1.00
H821   H     0.80511   0.47983   0.59127   0.00000  Uiso   1.00
H822   H     0.72552   0.46198   0.91259   0.00000  Uiso   1.00
H823   H     0.71696   0.42469   0.99506   0.00000  Uiso   1.00
H824   H     0.90075   0.63059   0.76477   0.00000  Uiso   1.00
N825   N     0.71426   0.50001   0.75001   0.00000  Uiso   1.00
N826   N     0.95239   0.49998   0.75000   0.00000  Uiso   1.00
O827   O     0.79512   0.56108   0.75000   0.00000  Uiso   1.00
O828   O     0.87157   0.56107   0.75000   0.00000  Uiso   1.00
O829   O     0.77613   0.50000   0.82681   0.00000  Uiso   1.00
O830   O     0.85258   0.49999   0.82681   0.00000  Uiso   1.00
O831   O     0.79510   0.43893   0.74999   0.00000  Uiso   1.00
O832   O     0.87154   0.43892   0.74999   0.00000  Uiso   1.00
O833   O     0.81409   0.50001   0.67319   0.00000  Uiso   1.00
O834   O     0.89053   0.50000   0.67319   0.00000  Uiso   1.00
Zn835  Zn    0.78229   0.50001   0.75000   0.00000  Uiso   1.00
Zn836  Zn    0.88438   0.49999   0.75000   0.00000  Uiso   1.00
I837   I     0.98546   0.49615   0.57916   0.00000  Uiso   1.00
I838   I     0.97172   0.57958   0.67781   0.00000  Uiso   1.00
Cl839  Cl    0.77769   0.41416   0.55408   0.00000  Uiso   1.00
I840   I     0.85197   0.59046   0.87841   0.00000  Uiso   1.00
C841   C     0.16717   0.91336   0.74898   0.00000  Uiso   1.00
C842   C     0.15016   0.81659   0.98655   0.00000  Uiso   1.00
C843   C     0.15431   0.83913   0.93914   0.00000  Uiso   1.00
C844   C     0.18510   0.82464   0.51090   0.00000  Uiso   1.00
C845   C     0.22886   0.84477   0.98133   0.00000  Uiso   1.00
C846   C     0.23179   0.86748   0.93568   0.00000  Uiso   1.00
C847   C     0.19194   0.86903   0.91950   0.00000  Uiso   1.00
C848   C     0.17507   0.81936   0.56579   0.00000  Uiso   1.00
C849   C     0.25792   0.83520   0.55534   0.00000  Uiso   1.00
C850   C     0.12307   0.82921   0.91066   0.00000  Uiso   1.00
C851   C     0.20504   0.97946   0.75688   0.00000  Uiso   1.00
C852   C     0.13999   0.83405   0.85212   0.00000  Uiso   1.00
C853   C     0.20448   0.68862   0.75775   0.00000  Uiso   1.00
C854   C     0.16660   0.70922   0.74899   0.00000  Uiso   1.00
C855   C     0.12947   0.68749   0.73888   0.00000  Uiso   1.00
C856   C     0.13002   0.97819   0.73812   0.00000  Uiso   1.00
C857   C     0.16764   0.95759   0.74762   0.00000  Uiso   1.00
C858   C     0.30039   0.80371   0.77781   0.00000  Uiso   1.00
C859   C     0.01493   0.80376   0.77786   0.00000  Uiso   1.00
C860   C     0.03332   0.86285   0.72246   0.00000  Uiso   1.00
C861   C     0.31909   0.86321   0.72242   0.00000  Uiso   1.00
C862   C     0.16646   0.75334   0.74986   0.00000  Uiso   1.00
C863   C     0.19339   0.83112   0.64792   0.00000  Uiso   1.00
C864   C     0.26652   0.84629   0.50186   0.00000  Uiso   1.00
C865   C     0.21008   0.82750   0.58914   0.00000  Uiso   1.00
C866   C     0.08326   0.80300   0.93390   0.00000  Uiso   1.00
C867   C     0.07871   0.78119   0.98061   0.00000  Uiso   1.00
C868   C     0.11283   0.78599   0.50578   0.00000  Uiso   1.00
H869   H     0.23339   0.70517   0.76584   0.00000  Uiso   1.00
H870   H     0.10026   0.70329   0.73149   0.00000  Uiso   1.00
H871   H     0.10105   0.96152   0.73031   0.00000  Uiso   1.00
H872   H     0.27516   0.78004   0.80012   0.00000  Uiso   1.00
H873   H     0.02578   0.78011   0.80021   0.00000  Uiso   1.00
H874   H     0.05897   0.88638   0.70047   0.00000  Uiso   1.00
H875   H     0.26220   0.88816   0.91727   0.00000  Uiso   1.00
H876   H     0.30185   0.85749   0.97718   0.00000  Uiso   1.00
H877   H     0.13844   0.81316   0.59127   0.00000  Uiso   1.00
H878   H     0.05885   0.79532   0.91259   0.00000  Uiso   1.00
H879   H     0.05030   0.75802   0.99506   0.00000  Uiso   1.00
H880   H     0.23408   0.96393   0.76477   0.00000  Uiso   1.00
N881   N     0.04760   0.83334   0.75001   0.00000  Uiso   1.00
N882   N     0.28573   0.83331   0.75000   0.00000  Uiso   1.00
O883   O     0.12846   0.89442   0.75000   0.00000  Uiso   1.00
O884   O     0.20490   0.89441   0.75000   0.00000  Uiso   1.00
O885   O     0.10947   0.83333   0.82681   0.00000  Uiso   1.00
O886   O     0.18591   0.83332   0.82681   0.00000  Uiso   1.00
O887   O     0.12843   0.77226   0.74999   0.00000  Uiso   1.00
O888   O     0.20488   0.77225   0.74999   0.00000  Uiso   1.00
O889   O     0.14742   0.83335   0.67319   0.00000  Uiso   1.00
O890   O     0.22387   0.83334   0.67319   0.00000  Uiso   1.00
Zn891  Zn    0.11562   0.83334   0.75000   0.00000  Uiso   1.00
Zn892  Zn    0.21771   0.83333   0.75000   0.00000  Uiso   1.00
I893   I     0.31879   0.82949   0.57916   0.00000  Uiso   1.00
I894   I     0.30505   0.91292   0.67781   0.00000  Uiso   1.00
Cl895  Cl    0.11102   0.74749   0.55408   0.00000  Uiso   1.00
I896   I     0.18531   0.92380   0.87841   0.00000  Uiso   1.00
C897   C     0.50050   0.91336   0.74898   0.00000  Uiso   1.00
C898   C     0.48349   0.81659   0.98655   0.00000  Uiso   1.00
C899   C     0.48764   0.83913   0.93914   0.00000  Uiso   1.00
C900   C     0.51843   0.82464   0.51090   0.00000  Uiso   1.00
C901   C     0.56220   0.84477   0.98133   0.00000  Uiso   1.00
C902   C     0.56513   0.86748   0.93568   0.00000  Uiso   1.00
C903   C     0.52527   0.86903   0.91950   0.00000  Uiso   1.00
C904   C     0.50840   0.81936   0.56579   0.00000  Uiso   1.00
C905   C     0.59125   0.83520   0.55534   0.00000  Uiso   1.00
C906   C     0.45640   0.82921   0.91066   0.00000  Uiso   1.00
C907   C     0.53838   0.97946   0.75688   0.00000  Uiso   1.00
C908   C     0.47333   0.83405   0.85212   0.00000  Uiso   1.00
C909   C     0.53782   0.68862   0.75775   0.00000  Uiso   1.00
C910   C     0.49993   0.70922   0.74899   0.00000  Uiso   1.00
C911   C     0.46280   0.68749   0.73888   0.00000  Uiso   1.00
C912   C     0.46335   0.97819   0.73812   0.00000  Uiso   1.00
C913   C     0.50097   0.95759   0.74762   0.00000  Uiso   1.00
C914   C     0.63372   0.80371   0.77781   0.00000  Uiso   1.00
C915   C     0.34826   0.80376   0.77786   0.00000  Uiso   1.00
C916   C     0.36666   0.86285   0.72246   0.00000  Uiso   1.00
C917   C     0.65243   0.86321   0.72242   0.00000  Uiso   1.00
C918   C     0.49980   0.75334   0.74986   0.00000  Uiso   1.00
C919   C     0.52673   0.83112   0.64792   0.00000  Uiso   1.00
C920   C     0.59985   0.84629   0.50186   0.00000  Uiso   1.00
C921   C     0.54341   0.82750   0.58914   0.00000  Uiso   1.00
C922   C     0.41659   0.80300   0.93390   0.00000  Uiso   1.00
C923   C     0.41205   0.78119   0.98061   0.00000  Uiso   1.00
C924   C     0.44616   0.78599   0.50578   0.00000  Uiso   1.00
H925   H     0.56673   0.70517   0.76584   0.00000  Uiso   1.00
H926   H     0.43360   0.70329   0.73149   0.00000  Uiso   1.00
H927   H     0.43439   0.96152   0.73031   0.00000  Uiso   1.00
H928   H     0.60849   0.78004   0.80012   0.00000  Uiso   1.00
H929   H     0.35911   0.78011   0.80021   0.00000  Uiso   1.00
H930   H     0.39230   0.88638   0.70047   0.00000  Uiso   1.00
H931   H     0.59554   0.88816   0.91727   0.00000  Uiso   1.00
H932   H     0.63518   0.85749   0.97718   0.00000  Uiso   1.00
H933   H     0.47178   0.81316   0.59127   0.00000  Uiso   1.00
H934   H     0.39219   0.79532   0.91259   0.00000  Uiso   1.00
H935   H     0.38363   0.75802   0.99506   0.00000  Uiso   1.00
H936   H     0.56741   0.96393   0.76477   0.00000  Uiso   1.00
N937   N     0.38093   0.83334   0.75001   0.00000  Uiso   1.00
N938   N     0.61906   0.83331   0.75000   0.00000  Uiso   1.00
O939   O     0.46179   0.89442   0.75000   0.00000  Uiso   1.00
O940   O     0.53823   0.89441   0.75000   0.00000  Uiso   1.00
O941   O     0.44280   0.83333   0.82681   0.00000  Uiso   1.00
O942   O     0.51924   0.83332   0.82681   0.00000  Uiso   1.00
O943   O     0.46177   0.77226   0.74999   0.00000  Uiso   1.00
O944   O     0.53821   0.77225   0.74999   0.00000  Uiso   1.00
O945   O     0.48076   0.83335   0.67319   0.00000  Uiso   1.00
O946   O     0.55720   0.83334   0.67319   0.00000  Uiso   1.00
Zn947  Zn    0.44896   0.83334   0.75000   0.00000  Uiso   1.00
Zn948  Zn    0.55104   0.83333   0.75000   0.00000  Uiso   1.00
I949   I     0.65213   0.82949   0.57916   0.00000  Uiso   1.00
I950   I     0.63839   0.91292   0.67781   0.00000  Uiso   1.00
Cl951  Cl    0.44435   0.74749   0.55408   0.00000  Uiso   1.00
I952   I     0.51864   0.92380   0.87841   0.00000  Uiso   1.00
C953   C     0.83383   0.91336   0.74898   0.00000  Uiso   1.00
C954   C     0.81683   0.81659   0.98655   0.00000  Uiso   1.00
C955   C     0.82097   0.83913   0.93914   0.00000  Uiso   1.00
C956   C     0.85176   0.82464   0.51090   0.00000  Uiso   1.00
C957   C     0.89553   0.84477   0.98133   0.00000  Uiso   1.00
C958   C     0.89846   0.86748   0.93568   0.00000  Uiso   1.00
C959   C     0.85861   0.86903   0.91950   0.00000  Uiso   1.00
C960   C     0.84174   0.81936   0.56579   0.00000  Uiso   1.00
C961   C     0.92458   0.83520   0.55534   0.00000  Uiso   1.00
C962   C     0.78974   0.82921   0.91066   0.00000  Uiso   1.00
C963   C     0.87171   0.97946   0.75688   0.00000  Uiso   1.00
C964   C     0.80666   0.83405   0.85212   0.00000  Uiso   1.00
C965   C     0.87115   0.68862   0.75775   0.00000  Uiso   1.00
C966   C     0.83327   0.70922   0.74899   0.00000  Uiso   1.00
C967   C     0.79613   0.68749   0.73888   0.00000  Uiso   1.00
C968   C     0.79669   0.97819   0.73812   0.00000  Uiso   1.00
C969   C     0.83431   0.95759   0.74762   0.00000  Uiso   1.00
C970   C     0.96705   0.80371   0.77781   0.00000  Uiso   1.00
C971   C     0.68160   0.80376   0.77786   0.00000  Uiso   1.00
C972   C     0.69999   0.86285   0.72246   0.00000  Uiso   1.00
C973   C     0.98576   0.86321   0.72242   0.00000  Uiso   1.00
C974   C     0.83313   0.75334   0.74986   0.00000  Uiso   1.00
C975   C     0.86006   0.83112   0.64792   0.00000  Uiso   1.00
C976   C     0.93319   0.84629   0.50186   0.00000  Uiso   1.00
C977   C     0.87674   0.82750   0.58914   0.00000  Uiso   1.00
C978   C     0.74993   0.80300   0.93390   0.00000  Uiso   1.00
C979   C     0.74538   0.78119   0.98061   0.00000  Uiso   1.00
C980   C     0.77949   0.78599   0.50578   0.00000  Uiso   1.00
H981   H     0.90006   0.70517   0.76584   0.00000  Uiso   1.00
H982   H     0.76693   0.70329   0.73149   0.00000  Uiso   1.00
H983   H     0.76772   0.96152   0.73031   0.00000  Uiso   1.00
H984   H     0.94182   0.78004   0.80012   0.00000  Uiso   1.00
H985   H     0.69245   0.78011   0.80021   0.00000  Uiso   1.00
H986   H     0.72564   0.88638   0.70047   0.00000  Uiso   1.00
H987   H     0.92887   0.88816   0.91727   0.00000  Uiso   1.00
H988   H     0.96852   0.85749   0.97718   0.00000  Uiso   1.00
H989   H     0.80511   0.81316   0.59127   0.00000  Uiso   1.00
H990   H     0.72552   0.79532   0.91259   0.00000  Uiso   1.00
H991   H     0.71696   0.75802   0.99506   0.00000  Uiso   1.00
H992   H     0.90075   0.96393   0.76477   0.00000  Uiso   1.00
N993   N     0.71426   0.83334   0.75001   0.00000  Uiso   1.00
N994   N     0.95239   0.83331   0.75000   0.00000  Uiso   1.00
O995   O     0.79512   0.89442   0.75000   0.00000  Uiso   1.00
O996   O     0.87157   0.89441   0.75000   0.00000  Uiso   1.00
O997   O     0.77613   0.83333   0.82681   0.00000  Uiso   1.00
O998   O     0.85258   0.83332   0.82681   0.00000  Uiso   1.00
O999   O     0.79510   0.77226   0.74999   0.00000  Uiso   1.00
O1000  O     0.87154   0.77225   0.74999   0.00000  Uiso   1.00
O1001  O     0.81409   0.83335   0.67319   0.00000  Uiso   1.00
O1002  O     0.89053   0.83334   0.67319   0.00000  Uiso   1.00
Zn1003 Zn    0.78229   0.83334   0.75000   0.00000  Uiso   1.00
Zn1004 Zn    0.88438   0.83333   0.75000   0.00000  Uiso   1.00
I1005  I     0.98546   0.82949   0.57916   0.00000  Uiso   1.00
I1006  I     0.97172   0.91292   0.67781   0.00000  Uiso   1.00
Cl1007 Cl    0.77769   0.74749   0.55408   0.00000  Uiso   1.00
I1008  I     0.85197   0.92380   0.87841   0.00000  Uiso   1.00
loop_
_geom_bond_atom_site_label_1
_geom_bond_atom_site_label_2
_geom_bond_distance
_geom_bond_site_symmetry_2
_ccdc_geom_bond_type
C1     O44     1.290   .     A
C1     C17     1.423   .     S
C1     O43     1.283   .     A
C2     C3      1.417   .     A
C2     C508    1.414   .     S
C2     C532    1.427   .     S
C3     C10     1.411   .     A
C3     C7      1.419   .     A
C4     C8      1.388   .     A
C4     C506    1.414   1_554 S
C4     C509    1.413   1_554 S
C5     C6      1.388   .     A
C5     C508    1.413   .     S
C5     C528    1.398   .     S
C6     C7      1.388   .     A
C6     H35     1.084   .     S
C7     I56     2.117   .     S
C8     C25     1.398   .     A
C8     H37     1.080   .     S
C9     C24     1.394   .     A
C9     C25     1.412   .     A
C9     I53     2.115   .     S
C10    C26     1.399   .     A
C10    C12     1.463   .     S
C11    H40     1.081   .     S
C11    C17     1.395   .     A
C11    C181    1.367   .     S
C12    O46     1.296   .     A
C12    O45     1.296   .     A
C13    C14     1.398   .     A
C13    H29     1.084   .     S
C13    C347    1.367   1_545 S
C14    C22     1.419   .     S
C14    C15     1.396   .     A
C15    H30     1.084   .     S
C15    C352    1.372   1_545 S
C16    H31     1.084   .     S
C16    C17     1.400   .     A
C16    C183    1.372   .     S
C18    N42     1.367   .     A
C18    H32     1.082   .     S
C18    C75     1.419   .     S
C19    H33     1.082   .     S
C19    N41     1.368   .     A
C19    C130    1.419   1_455 S
C20    H34     1.082   .     S
C20    N41     1.355   .     A
C20    C133    1.410   1_455 S
C21    I54     2.117   .     S
C21    N42     1.384   .     A
C21    C76     1.410   .     S
C22    O48     1.284   .     A
C22    O47     1.288   .     A
C23    C25     1.466   .     S
C23    O49     1.299   .     A
C23    O50     1.295   .     A
C24    C509    1.398   1_554 S
C24    H540    1.084   1_554 S
C26    H38     1.084   .     S
C26    C27     1.386   .     A
C27    H39     1.083   .     S
C27    C532    1.394   .     S
C28    Cl55    1.767   .     S
C28    C506    1.427   1_554 S
C28    C531    1.394   1_554 S
H36    C528    1.084   .     S
N41    Zn51    2.016   .     S
N42    Zn52    2.016   .     S
O43    Zn51    1.995   .     S
O44    Zn52    2.006   .     S
O45    Zn51    1.976   .     S
O46    Zn52    1.925   .     S
O47    Zn51    2.006   .     S
O48    Zn52    1.995   .     S
O49    Zn51    1.925   .     S
O50    Zn52    1.976   .     S
C57    O100    1.290   .     A
C57    C73     1.423   .     S
C57    O99     1.283   .     A
C58    C59     1.417   .     A
C58    C564    1.414   .     S
C58    C588    1.427   .     S
C59    C66     1.411   .     A
C59    C63     1.419   .     A
C60    C64     1.388   .     A
C60    C562    1.414   1_554 S
C60    C565    1.413   1_554 S
C61    C62     1.388   .     A
C61    C564    1.413   .     S
C61    C584    1.398   .     S
C62    C63     1.388   .     A
C62    H91     1.084   .     S
C63    I112    2.117   .     S
C64    C81     1.398   .     A
C64    H93     1.080   .     S
C65    C80     1.394   .     A
C65    C81     1.412   .     A
C65    I109    2.115   .     S
C66    C82     1.399   .     A
C66    C68     1.463   .     S
C67    H96     1.081   .     S
C67    C73     1.395   .     A
C67    C237    1.367   .     S
C68    O102    1.296   .     A
C68    O101    1.296   .     A
C69    C70     1.398   .     A
C69    H85     1.084   .     S
C69    C403    1.367   1_545 S
C70    C78     1.419   .     S
C70    C71     1.396   .     A
C71    H86     1.084   .     S
C71    C408    1.372   1_545 S
C72    H87     1.084   .     S
C72    C73     1.400   .     A
C72    C239    1.372   .     S
C74    N98     1.367   .     A
C74    H88     1.082   .     S
C74    C131    1.419   .     S
C75    H89     1.082   .     S
C75    N97     1.368   .     A
C76    H90     1.082   .     S
C76    N97     1.355   .     A
C77    I110    2.117   .     S
C77    N98     1.384   .     A
C77    C132    1.410   .     S
C78    O104    1.284   .     A
C78    O103    1.288   .     A
C79    C81     1.466   .     S
C79    O105    1.299   .     A
C79    O106    1.295   .     A
C80    C565    1.398   1_554 S
C80    H596    1.084   1_554 S
C82    H94     1.084   .     S
C82    C83     1.386   .     A
C83    H95     1.083   .     S
C83    C588    1.394   .     S
C84    Cl111   1.767   .     S
C84    C562    1.427   1_554 S
C84    C587    1.394   1_554 S
H92    C584    1.084   .     S
N97    Zn107   2.016   .     S
N98    Zn108   2.016   .     S
O99    Zn107   1.995   .     S
O100   Zn108   2.006   .     S
O101   Zn107   1.976   .     S
O102   Zn108   1.925   .     S
O103   Zn107   2.006   .     S
O104   Zn108   1.995   .     S
O105   Zn107   1.925   .     S
O106   Zn108   1.976   .     S
C113   O156    1.290   .     A
C113   C129    1.423   .     S
C113   O155    1.283   .     A
C114   C115    1.417   .     A
C114   C620    1.414   .     S
C114   C644    1.427   .     S
C115   C122    1.411   .     A
C115   C119    1.419   .     A
C116   C120    1.388   .     A
C116   C618    1.414   1_554 S
C116   C621    1.413   1_554 S
C117   C118    1.388   .     A
C117   C620    1.413   .     S
C117   C640    1.398   .     S
C118   C119    1.388   .     A
C118   H147    1.084   .     S
C119   I168    2.117   .     S
C120   C137    1.398   .     A
C120   H149    1.080   .     S
C121   C136    1.394   .     A
C121   C137    1.412   .     A
C121   I165    2.115   .     S
C122   C138    1.399   .     A
C122   C124    1.463   .     S
C123   H152    1.081   .     S
C123   C129    1.395   .     A
C123   C293    1.367   .     S
C124   O158    1.296   .     A
C124   O157    1.296   .     A
C125   C126    1.398   .     A
C125   H141    1.084   .     S
C125   C459    1.367   1_545 S
C126   C134    1.419   .     S
C126   C127    1.396   .     A
C127   H142    1.084   .     S
C127   C464    1.372   1_545 S
C128   H143    1.084   .     S
C128   C129    1.400   .     A
C128   C295    1.372   .     S
C130   N154    1.367   .     A
C130   H144    1.082   .     S
C130   C19     1.419   1_655 S
C131   H145    1.082   .     S
C131   N153    1.368   .     A
C132   H146    1.082   .     S
C132   N153    1.355   .     A
C133   I166    2.117   .     S
C133   N154    1.384   .     A
C133   C20     1.410   1_655 S
C134   O160    1.284   .     A
C134   O159    1.288   .     A
C135   C137    1.466   .     S
C135   O161    1.299   .     A
C135   O162    1.295   .     A
C136   C621    1.398   1_554 S
C136   H652    1.084   1_554 S
C138   H150    1.084   .     S
C138   C139    1.386   .     A
C139   H151    1.083   .     S
C139   C644    1.394   .     S
C140   Cl167   1.767   .     S
C140   C618    1.427   1_554 S
C140   C643    1.394   1_554 S
H148   C640    1.084   .     S
N153   Zn163   2.016   .     S
N154   Zn164   2.016   .     S
O155   Zn163   1.995   .     S
O156   Zn164   2.006   .     S
O157   Zn163   1.976   .     S
O158   Zn164   1.925   .     S
O159   Zn163   2.006   .     S
O160   Zn164   1.995   .     S
O161   Zn163   1.925   .     S
O162   Zn164   1.976   .     S
C169   O212    1.290   .     A
C169   C185    1.423   .     S
C169   O211    1.283   .     A
C170   C171    1.417   .     A
C170   C676    1.414   .     S
C170   C700    1.427   .     S
C171   C178    1.411   .     A
C171   C175    1.419   .     A
C172   C176    1.388   .     A
C172   C674    1.414   1_554 S
C172   C677    1.413   1_554 S
C173   C174    1.388   .     A
C173   C676    1.413   .     S
C173   C696    1.398   .     S
C174   C175    1.388   .     A
C174   H203    1.084   .     S
C175   I224    2.117   .     S
C176   C193    1.398   .     A
C176   H205    1.080   .     S
C177   C192    1.394   .     A
C177   C193    1.412   .     A
C177   I221    2.115   .     S
C178   C194    1.399   .     A
C178   C180    1.463   .     S
C179   H208    1.081   .     S
C179   C185    1.395   .     A
C179   C349    1.367   .     S
C180   O214    1.296   .     A
C180   O213    1.296   .     A
C181   C182    1.398   .     A
C181   H197    1.084   .     S
C182   C190    1.419   .     S
C182   C183    1.396   .     A
C183   H198    1.084   .     S
C184   H199    1.084   .     S
C184   C185    1.400   .     A
C184   C351    1.372   .     S
C186   N210    1.367   .     A
C186   H200    1.082   .     S
C186   C243    1.419   .     S
C187   H201    1.082   .     S
C187   N209    1.368   .     A
C187   C298    1.419   1_455 S
C188   H202    1.082   .     S
C188   N209    1.355   .     A
C188   C301    1.410   1_455 S
C189   I222    2.117   .     S
C189   N210    1.384   .     A
C189   C244    1.410   .     S
C190   O216    1.284   .     A
C190   O215    1.288   .     A
C191   C193    1.466   .     S
C191   O217    1.299   .     A
C191   O218    1.295   .     A
C192   C677    1.398   1_554 S
C192   H708    1.084   1_554 S
C194   H206    1.084   .     S
C194   C195    1.386   .     A
C195   H207    1.083   .     S
C195   C700    1.394   .     S
C196   Cl223   1.767   .     S
C196   C674    1.427   1_554 S
C196   C699    1.394   1_554 S
H204   C696    1.084   .     S
N209   Zn219   2.016   .     S
N210   Zn220   2.016   .     S
O211   Zn219   1.995   .     S
O212   Zn220   2.006   .     S
O213   Zn219   1.976   .     S
O214   Zn220   1.925   .     S
O215   Zn219   2.006   .     S
O216   Zn220   1.995   .     S
O217   Zn219   1.925   .     S
O218   Zn220   1.976   .     S
C225   O268    1.290   .     A
C225   C241    1.423   .     S
C225   O267    1.283   .     A
C226   C227    1.417   .     A
C226   C732    1.414   .     S
C226   C756    1.427   .     S
C227   C234    1.411   .     A
C227   C231    1.419   .     A
C228   C232    1.388   .     A
C228   C730    1.414   1_554 S
C228   C733    1.413   1_554 S
C229   C230    1.388   .     A
C229   C732    1.413   .     S
C229   C752    1.398   .     S
C230   C231    1.388   .     A
C230   H259    1.084   .     S
C231   I280    2.117   .     S
C232   C249    1.398   .     A
C232   H261    1.080   .     S
C233   C248    1.394   .     A
C233   C249    1.412   .     A
C233   I277    2.115   .     S
C234   C250    1.399   .     A
C234   C236    1.463   .     S
C235   H264    1.081   .     S
C235   C241    1.395   .     A
C235   C405    1.367   .     S
C236   O270    1.296   .     A
C236   O269    1.296   .     A
C237   C238    1.398   .     A
C237   H253    1.084   .     S
C238   C246    1.419   .     S
C238   C239    1.396   .     A
C239   H254    1.084   .     S
C240   H255    1.084   .     S
C240   C241    1.400   .     A
C240   C407    1.372   .     S
C242   N266    1.367   .     A
C242   H256    1.082   .     S
C242   C299    1.419   .     S
C243   H257    1.082   .     S
C243   N265    1.368   .     A
C244   H258    1.082   .     S
C244   N265    1.355   .     A
C245   I278    2.117   .     S
C245   N266    1.384   .     A
C245   C300    1.410   .     S
C246   O272    1.284   .     A
C246   O271    1.288   .     A
C247   C249    1.466   .     S
C247   O273    1.299   .     A
C247   O274    1.295   .     A
C248   C733    1.398   1_554 S
C248   H764    1.084   1_554 S
C250   H262    1.084   .     S
C250   C251    1.386   .     A
C251   H263    1.083   .     S
C251   C756    1.394   .     S
C252   Cl279   1.767   .     S
C252   C730    1.427   1_554 S
C252   C755    1.394   1_554 S
H260   C752    1.084   .     S
N265   Zn275   2.016   .     S
N266   Zn276   2.016   .     S
O267   Zn275   1.995   .     S
O268   Zn276   2.006   .     S
O269   Zn275   1.976   .     S
O270   Zn276   1.925   .     S
O271   Zn275   2.006   .     S
O272   Zn276   1.995   .     S
O273   Zn275   1.925   .     S
O274   Zn276   1.976   .     S
C281   O324    1.290   .     A
C281   C297    1.423   .     S
C281   O323    1.283   .     A
C282   C283    1.417   .     A
C282   C788    1.414   .     S
C282   C812    1.427   .     S
C283   C290    1.411   .     A
C283   C287    1.419   .     A
C284   C288    1.388   .     A
C284   C786    1.414   1_554 S
C284   C789    1.413   1_554 S
C285   C286    1.388   .     A
C285   C788    1.413   .     S
C285   C808    1.398   .     S
C286   C287    1.388   .     A
C286   H315    1.084   .     S
C287   I336    2.117   .     S
C288   C305    1.398   .     A
C288   H317    1.080   .     S
C289   C304    1.394   .     A
C289   C305    1.412   .     A
C289   I333    2.115   .     S
C290   C306    1.399   .     A
C290   C292    1.463   .     S
C291   H320    1.081   .     S
C291   C297    1.395   .     A
C291   C461    1.367   .     S
C292   O326    1.296   .     A
C292   O325    1.296   .     A
C293   C294    1.398   .     A
C293   H309    1.084   .     S
C294   C302    1.419   .     S
C294   C295    1.396   .     A
C295   H310    1.084   .     S
C296   H311    1.084   .     S
C296   C297    1.400   .     A
C296   C463    1.372   .     S
C298   N322    1.367   .     A
C298   H312    1.082   .     S
C298   C187    1.419   1_655 S
C299   H313    1.082   .     S
C299   N321    1.368   .     A
C300   H314    1.082   .     S
C300   N321    1.355   .     A
C301   I334    2.117   .     S
C301   N322    1.384   .     A
C301   C188    1.410   1_655 S
C302   O328    1.284   .     A
C302   O327    1.288   .     A
C303   C305    1.466   .     S
C303   O329    1.299   .     A
C303   O330    1.295   .     A
C304   C789    1.398   1_554 S
C304   H820    1.084   1_554 S
C306   H318    1.084   .     S
C306   C307    1.386   .     A
C307   H319    1.083   .     S
C307   C812    1.394   .     S
C308   Cl335   1.767   .     S
C308   C786    1.427   1_554 S
C308   C811    1.394   1_554 S
H316   C808    1.084   .     S
N321   Zn331   2.016   .     S
N322   Zn332   2.016   .     S
O323   Zn331   1.995   .     S
O324   Zn332   2.006   .     S
O325   Zn331   1.976   .     S
O326   Zn332   1.925   .     S
O327   Zn331   2.006   .     S
O328   Zn332   1.995   .     S
O329   Zn331   1.925   .     S
O330   Zn332   1.976   .     S
C337   O380    1.290   .     A
C337   C353    1.423   .     S
C337   O379    1.283   .     A
C338   C339    1.417   .     A
C338   C844    1.414   .     S
C338   C868    1.427   .     S
C339   C346    1.411   .     A
C339   C343    1.419   .     A
C340   C344    1.388   .     A
C340   C842    1.414   1_554 S
C340   C845    1.413   1_554 S
C341   C342    1.388   .     A
C341   C844    1.413   .     S
C341   C864    1.398   .     S
C342   C343    1.388   .     A
C342   H371    1.084   .     S
C343   I392    2.117   .     S
C344   C361    1.398   .     A
C344   H373    1.080   .     S
C345   C360    1.394   .     A
C345   C361    1.412   .     A
C345   I389    2.115   .     S
C346   C362    1.399   .     A
C346   C348    1.463   .     S
C347   H376    1.081   .     S
C347   C353    1.395   .     A
C347   C13     1.367   1_565 S
C348   O382    1.296   .     A
C348   O381    1.296   .     A
C349   C350    1.398   .     A
C349   H365    1.084   .     S
C350   C358    1.419   .     S
C350   C351    1.396   .     A
C351   H366    1.084   .     S
C352   H367    1.084   .     S
C352   C353    1.400   .     A
C352   C15     1.372   1_565 S
C354   N378    1.367   .     A
C354   H368    1.082   .     S
C354   C411    1.419   .     S
C355   H369    1.082   .     S
C355   N377    1.368   .     A
C355   C466    1.419   1_455 S
C356   H370    1.082   .     S
C356   N377    1.355   .     A
C356   C469    1.410   1_455 S
C357   I390    2.117   .     S
C357   N378    1.384   .     A
C357   C412    1.410   .     S
C358   O384    1.284   .     A
C358   O383    1.288   .     A
C359   C361    1.466   .     S
C359   O385    1.299   .     A
C359   O386    1.295   .     A
C360   C845    1.398   1_554 S
C360   H876    1.084   1_554 S
C362   H374    1.084   .     S
C362   C363    1.386   .     A
C363   H375    1.083   .     S
C363   C868    1.394   .     S
C364   Cl391   1.767   .     S
C364   C842    1.427   1_554 S
C364   C867    1.394   1_554 S
H372   C864    1.084   .     S
N377   Zn387   2.016   .     S
N378   Zn388   2.016   .     S
O379   Zn387   1.995   .     S
O380   Zn388   2.006   .     S
O381   Zn387   1.976   .     S
O382   Zn388   1.925   .     S
O383   Zn387   2.006   .     S
O384   Zn388   1.995   .     S
O385   Zn387   1.925   .     S
O386   Zn388   1.976   .     S
C393   O436    1.290   .     A
C393   C409    1.423   .     S
C393   O435    1.283   .     A
C394   C395    1.417   .     A
C394   C900    1.414   .     S
C394   C924    1.427   .     S
C395   C402    1.411   .     A
C395   C399    1.419   .     A
C396   C400    1.388   .     A
C396   C898    1.414   1_554 S
C396   C901    1.413   1_554 S
C397   C398    1.388   .     A
C397   C900    1.413   .     S
C397   C920    1.398   .     S
C398   C399    1.388   .     A
C398   H427    1.084   .     S
C399   I448    2.117   .     S
C400   C417    1.398   .     A
C400   H429    1.080   .     S
C401   C416    1.394   .     A
C401   C417    1.412   .     A
C401   I445    2.115   .     S
C402   C418    1.399   .     A
C402   C404    1.463   .     S
C403   H432    1.081   .     S
C403   C409    1.395   .     A
C403   C69     1.367   1_565 S
C404   O438    1.296   .     A
C404   O437    1.296   .     A
C405   C406    1.398   .     A
C405   H421    1.084   .     S
C406   C414    1.419   .     S
C406   C407    1.396   .     A
C407   H422    1.084   .     S
C408   H423    1.084   .     S
C408   C409    1.400   .     A
C408   C71     1.372   1_565 S
C410   N434    1.367   .     A
C410   H424    1.082   .     S
C410   C467    1.419   .     S
C411   H425    1.082   .     S
C411   N433    1.368   .     A
C412   H426    1.082   .     S
C412   N433    1.355   .     A
C413   I446    2.117   .     S
C413   N434    1.384   .     A
C413   C468    1.410   .     S
C414   O440    1.284   .     A
C414   O439    1.288   .     A
C415   C417    1.466   .     S
C415   O441    1.299   .     A
C415   O442    1.295   .     A
C416   C901    1.398   1_554 S
C416   H932    1.084   1_554 S
C418   H430    1.084   .     S
C418   C419    1.386   .     A
C419   H431    1.083   .     S
C419   C924    1.394   .     S
C420   Cl447   1.767   .     S
C420   C898    1.427   1_554 S
C420   C923    1.394   1_554 S
H428   C920    1.084   .     S
N433   Zn443   2.016   .     S
N434   Zn444   2.016   .     S
O435   Zn443   1.995   .     S
O436   Zn444   2.006   .     S
O437   Zn443   1.976   .     S
O438   Zn444   1.925   .     S
O439   Zn443   2.006   .     S
O440   Zn444   1.995   .     S
O441   Zn443   1.925   .     S
O442   Zn444   1.976   .     S
C449   O492    1.290   .     A
C449   C465    1.423   .     S
C449   O491    1.283   .     A
C450   C451    1.417   .     A
C450   C956    1.414   .     S
C450   C980    1.427   .     S
C451   C458    1.411   .     A
C451   C455    1.419   .     A
C452   C456    1.388   .     A
C452   C954    1.414   1_554 S
C452   C957    1.413   1_554 S
C453   C454    1.388   .     A
C453   C956    1.413   .     S
C453   C976    1.398   .     S
C454   C455    1.388   .     A
C454   H483    1.084   .     S
C455   I504    2.117   .     S
C456   C473    1.398   .     A
C456   H485    1.080   .     S
C457   C472    1.394   .     A
C457   C473    1.412   .     A
C457   I501    2.115   .     S
C458   C474    1.399   .     A
C458   C460    1.463   .     S
C459   H488    1.081   .     S
C459   C465    1.395   .     A
C459   C125    1.367   1_565 S
C460   O494    1.296   .     A
C460   O493    1.296   .     A
C461   C462    1.398   .     A
C461   H477    1.084   .     S
C462   C470    1.419   .     S
C462   C463    1.396   .     A
C463   H478    1.084   .     S
C464   H479    1.084   .     S
C464   C465    1.400   .     A
C464   C127    1.372   1_565 S
C466   N490    1.367   .     A
C466   H480    1.082   .     S
C466   C355    1.419   1_655 S
C467   H481    1.082   .     S
C467   N489    1.368   .     A
C468   H482    1.082   .     S
C468   N489    1.355   .     A
C469   I502    2.117   .     S
C469   N490    1.384   .     A
C469   C356    1.410   1_655 S
C470   O496    1.284   .     A
C470   O495    1.288   .     A
C471   C473    1.466   .     S
C471   O497    1.299   .     A
C471   O498    1.295   .     A
C472   C957    1.398   1_554 S
C472   H988    1.084   1_554 S
C474   H486    1.084   .     S
C474   C475    1.386   .     A
C475   H487    1.083   .     S
C475   C980    1.394   .     S
C476   Cl503   1.767   .     S
C476   C954    1.427   1_554 S
C476   C979    1.394   1_554 S
H484   C976    1.084   .     S
N489   Zn499   2.016   .     S
N490   Zn500   2.016   .     S
O491   Zn499   1.995   .     S
O492   Zn500   2.006   .     S
O493   Zn499   1.976   .     S
O494   Zn500   1.925   .     S
O495   Zn499   2.006   .     S
O496   Zn500   1.995   .     S
O497   Zn499   1.925   .     S
O498   Zn500   1.976   .     S
C505   O548    1.290   .     A
C505   C521    1.423   .     S
C505   O547    1.283   .     A
C506   C507    1.417   .     A
C506   C4      1.414   1_556 S
C506   C28     1.427   1_556 S
C507   C514    1.411   .     A
C507   C511    1.419   .     A
C508   C512    1.388   .     A
C509   C510    1.388   .     A
C509   C4      1.413   1_556 S
C509   C24     1.398   1_556 S
C510   C511    1.388   .     A
C510   H539    1.084   .     S
C511   I560    2.117   .     S
C512   C529    1.398   .     A
C512   H541    1.080   .     S
C513   C528    1.394   .     A
C513   C529    1.412   .     A
C513   I557    2.115   .     S
C514   C530    1.399   .     A
C514   C516    1.463   .     S
C515   H544    1.081   .     S
C515   C521    1.395   .     A
C515   C685    1.367   .     S
C516   O550    1.296   .     A
C516   O549    1.296   .     A
C517   C518    1.398   .     A
C517   H533    1.084   .     S
C517   C851    1.367   1_545 S
C518   C526    1.419   .     S
C518   C519    1.396   .     A
C519   H534    1.084   .     S
C519   C856    1.372   1_545 S
C520   H535    1.084   .     S
C520   C521    1.400   .     A
C520   C687    1.372   .     S
C522   N546    1.367   .     A
C522   H536    1.082   .     S
C522   C579    1.419   .     S
C523   H537    1.082   .     S
C523   N545    1.368   .     A
C523   C634    1.419   1_455 S
C524   H538    1.082   .     S
C524   N545    1.355   .     A
C524   C637    1.410   1_455 S
C525   I558    2.117   .     S
C525   N546    1.384   .     A
C525   C580    1.410   .     S
C526   O552    1.284   .     A
C526   O551    1.288   .     A
C527   C529    1.466   .     S
C527   O553    1.299   .     A
C527   O554    1.295   .     A
C530   H542    1.084   .     S
C530   C531    1.386   .     A
C531   H543    1.083   .     S
C531   C28     1.394   1_556 S
C532   Cl559   1.767   .     S
H540   C24     1.084   1_556 S
N545   Zn555   2.016   .     S
N546   Zn556   2.016   .     S
O547   Zn555   1.995   .     S
O548   Zn556   2.006   .     S
O549   Zn555   1.976   .     S
O550   Zn556   1.925   .     S
O551   Zn555   2.006   .     S
O552   Zn556   1.995   .     S
O553   Zn555   1.925   .     S
O554   Zn556   1.976   .     S
C561   O604    1.290   .     A
C561   C577    1.423   .     S
C561   O603    1.283   .     A
C562   C563    1.417   .     A
C562   C60     1.414   1_556 S
C562   C84     1.427   1_556 S
C563   C570    1.411   .     A
C563   C567    1.419   .     A
C564   C568    1.388   .     A
C565   C566    1.388   .     A
C565   C60     1.413   1_556 S
C565   C80     1.398   1_556 S
C566   C567    1.388   .     A
C566   H595    1.084   .     S
C567   I616    2.117   .     S
C568   C585    1.398   .     A
C568   H597    1.080   .     S
C569   C584    1.394   .     A
C569   C585    1.412   .     A
C569   I613    2.115   .     S
C570   C586    1.399   .     A
C570   C572    1.463   .     S
C571   H600    1.081   .     S
C571   C577    1.395   .     A
C571   C741    1.367   .     S
C572   O606    1.296   .     A
C572   O605    1.296   .     A
C573   C574    1.398   .     A
C573   H589    1.084   .     S
C573   C907    1.367   1_545 S
C574   C582    1.419   .     S
C574   C575    1.396   .     A
C575   H590    1.084   .     S
C575   C912    1.372   1_545 S
C576   H591    1.084   .     S
C576   C577    1.400   .     A
C576   C743    1.372   .     S
C578   N602    1.367   .     A
C578   H592    1.082   .     S
C578   C635    1.419   .     S
C579   H593    1.082   .     S
C579   N601    1.368   .     A
C580   H594    1.082   .     S
C580   N601    1.355   .     A
C581   I614    2.117   .     S
C581   N602    1.384   .     A
C581   C636    1.410   .     S
C582   O608    1.284   .     A
C582   O607    1.288   .     A
C583   C585    1.466   .     S
C583   O609    1.299   .     A
C583   O610    1.295   .     A
C586   H598    1.084   .     S
C586   C587    1.386   .     A
C587   H599    1.083   .     S
C587   C84     1.394   1_556 S
C588   Cl615   1.767   .     S
H596   C80     1.084   1_556 S
N601   Zn611   2.016   .     S
N602   Zn612   2.016   .     S
O603   Zn611   1.995   .     S
O604   Zn612   2.006   .     S
O605   Zn611   1.976   .     S
O606   Zn612   1.925   .     S
O607   Zn611   2.006   .     S
O608   Zn612   1.995   .     S
O609   Zn611   1.925   .     S
O610   Zn612   1.976   .     S
C617   O660    1.290   .     A
C617   C633    1.423   .     S
C617   O659    1.283   .     A
C618   C619    1.417   .     A
C618   C116    1.414   1_556 S
C618   C140    1.427   1_556 S
C619   C626    1.411   .     A
C619   C623    1.419   .     A
C620   C624    1.388   .     A
C621   C622    1.388   .     A
C621   C116    1.413   1_556 S
C621   C136    1.398   1_556 S
C622   C623    1.388   .     A
C622   H651    1.084   .     S
C623   I672    2.117   .     S
C624   C641    1.398   .     A
C624   H653    1.080   .     S
C625   C640    1.394   .     A
C625   C641    1.412   .     A
C625   I669    2.115   .     S
C626   C642    1.399   .     A
C626   C628    1.463   .     S
C627   H656    1.081   .     S
C627   C633    1.395   .     A
C627   C797    1.367   .     S
C628   O662    1.296   .     A
C628   O661    1.296   .     A
C629   C630    1.398   .     A
C629   H645    1.084   .     S
C629   C963    1.367   1_545 S
C630   C638    1.419   .     S
C630   C631    1.396   .     A
C631   H646    1.084   .     S
C631   C968    1.372   1_545 S
C632   H647    1.084   .     S
C632   C633    1.400   .     A
C632   C799    1.372   .     S
C634   N658    1.367   .     A
C634   H648    1.082   .     S
C634   C523    1.419   1_655 S
C635   H649    1.082   .     S
C635   N657    1.368   .     A
C636   H650    1.082   .     S
C636   N657    1.355   .     A
C637   I670    2.117   .     S
C637   N658    1.384   .     A
C637   C524    1.410   1_655 S
C638   O664    1.284   .     A
C638   O663    1.288   .     A
C639   C641    1.466   .     S
C639   O665    1.299   .     A
C639   O666    1.295   .     A
C642   H654    1.084   .     S
C642   C643    1.386   .     A
C643   H655    1.083   .     S
C643   C140    1.394   1_556 S
C644   Cl671   1.767   .     S
H652   C136    1.084   1_556 S
N657   Zn667   2.016   .     S
N658   Zn668   2.016   .     S
O659   Zn667   1.995   .     S
O660   Zn668   2.006   .     S
O661   Zn667   1.976   .     S
O662   Zn668   1.925   .     S
O663   Zn667   2.006   .     S
O664   Zn668   1.995   .     S
O665   Zn667   1.925   .     S
O666   Zn668   1.976   .     S
C673   O716    1.290   .     A
C673   C689    1.423   .     S
C673   O715    1.283   .     A
C674   C675    1.417   .     A
C674   C172    1.414   1_556 S
C674   C196    1.427   1_556 S
C675   C682    1.411   .     A
C675   C679    1.419   .     A
C676   C680    1.388   .     A
C677   C678    1.388   .     A
C677   C172    1.413   1_556 S
C677   C192    1.398   1_556 S
C678   C679    1.388   .     A
C678   H707    1.084   .     S
C679   I728    2.117   .     S
C680   C697    1.398   .     A
C680   H709    1.080   .     S
C681   C696    1.394   .     A
C681   C697    1.412   .     A
C681   I725    2.115   .     S
C682   C698    1.399   .     A
C682   C684    1.463   .     S
C683   H712    1.081   .     S
C683   C689    1.395   .     A
C683   C853    1.367   .     S
C684   O718    1.296   .     A
C684   O717    1.296   .     A
C685   C686    1.398   .     A
C685   H701    1.084   .     S
C686   C694    1.419   .     S
C686   C687    1.396   .     A
C687   H702    1.084   .     S
C688   H703    1.084   .     S
C688   C689    1.400   .     A
C688   C855    1.372   .     S
C690   N714    1.367   .     A
C690   H704    1.082   .     S
C690   C747    1.419   .     S
C691   H705    1.082   .     S
C691   N713    1.368   .     A
C691   C802    1.419   1_455 S
C692   H706    1.082   .     S
C692   N713    1.355   .     A
C692   C805    1.410   1_455 S
C693   I726    2.117   .     S
C693   N714    1.384   .     A
C693   C748    1.410   .     S
C694   O720    1.284   .     A
C694   O719    1.288   .     A
C695   C697    1.466   .     S
C695   O721    1.299   .     A
C695   O722    1.295   .     A
C698   H710    1.084   .     S
C698   C699    1.386   .     A
C699   H711    1.083   .     S
C699   C196    1.394   1_556 S
C700   Cl727   1.767   .     S
H708   C192    1.084   1_556 S
N713   Zn723   2.016   .     S
N714   Zn724   2.016   .     S
O715   Zn723   1.995   .     S
O716   Zn724   2.006   .     S
O717   Zn723   1.976   .     S
O718   Zn724   1.925   .     S
O719   Zn723   2.006   .     S
O720   Zn724   1.995   .     S
O721   Zn723   1.925   .     S
O722   Zn724   1.976   .     S
C729   O772    1.290   .     A
C729   C745    1.423   .     S
C729   O771    1.283   .     A
C730   C731    1.417   .     A
C730   C228    1.414   1_556 S
C730   C252    1.427   1_556 S
C731   C738    1.411   .     A
C731   C735    1.419   .     A
C732   C736    1.388   .     A
C733   C734    1.388   .     A
C733   C228    1.413   1_556 S
C733   C248    1.398   1_556 S
C734   C735    1.388   .     A
C734   H763    1.084   .     S
C735   I784    2.117   .     S
C736   C753    1.398   .     A
C736   H765    1.080   .     S
C737   C752    1.394   .     A
C737   C753    1.412   .     A
C737   I781    2.115   .     S
C738   C754    1.399   .     A
C738   C740    1.463   .     S
C739   H768    1.081   .     S
C739   C745    1.395   .     A
C739   C909    1.367   .     S
C740   O774    1.296   .     A
C740   O773    1.296   .     A
C741   C742    1.398   .     A
C741   H757    1.084   .     S
C742   C750    1.419   .     S
C742   C743    1.396   .     A
C743   H758    1.084   .     S
C744   H759    1.084   .     S
C744   C745    1.400   .     A
C744   C911    1.372   .     S
C746   N770    1.367   .     A
C746   H760    1.082   .     S
C746   C803    1.419   .     S
C747   H761    1.082   .     S
C747   N769    1.368   .     A
C748   H762    1.082   .     S
C748   N769    1.355   .     A
C749   I782    2.117   .     S
C749   N770    1.384   .     A
C749   C804    1.410   .     S
C750   O776    1.284   .     A
C750   O775    1.288   .     A
C751   C753    1.466   .     S
C751   O777    1.299   .     A
C751   O778    1.295   .     A
C754   H766    1.084   .     S
C754   C755    1.386   .     A
C755   H767    1.083   .     S
C755   C252    1.394   1_556 S
C756   Cl783   1.767   .     S
H764   C248    1.084   1_556 S
N769   Zn779   2.016   .     S
N770   Zn780   2.016   .     S
O771   Zn779   1.995   .     S
O772   Zn780   2.006   .     S
O773   Zn779   1.976   .     S
O774   Zn780   1.925   .     S
O775   Zn779   2.006   .     S
O776   Zn780   1.995   .     S
O777   Zn779   1.925   .     S
O778   Zn780   1.976   .     S
C785   O828    1.290   .     A
C785   C801    1.423   .     S
C785   O827    1.283   .     A
C786   C787    1.417   .     A
C786   C284    1.414   1_556 S
C786   C308    1.427   1_556 S
C787   C794    1.411   .     A
C787   C791    1.419   .     A
C788   C792    1.388   .     A
C789   C790    1.388   .     A
C789   C284    1.413   1_556 S
C789   C304    1.398   1_556 S
C790   C791    1.388   .     A
C790   H819    1.084   .     S
C791   I840    2.117   .     S
C792   C809    1.398   .     A
C792   H821    1.080   .     S
C793   C808    1.394   .     A
C793   C809    1.412   .     A
C793   I837    2.115   .     S
C794   C810    1.399   .     A
C794   C796    1.463   .     S
C795   H824    1.081   .     S
C795   C801    1.395   .     A
C795   C965    1.367   .     S
C796   O830    1.296   .     A
C796   O829    1.296   .     A
C797   C798    1.398   .     A
C797   H813    1.084   .     S
C798   C806    1.419   .     S
C798   C799    1.396   .     A
C799   H814    1.084   .     S
C800   H815    1.084   .     S
C800   C801    1.400   .     A
C800   C967    1.372   .     S
C802   N826    1.367   .     A
C802   H816    1.082   .     S
C802   C691    1.419   1_655 S
C803   H817    1.082   .     S
C803   N825    1.368   .     A
C804   H818    1.082   .     S
C804   N825    1.355   .     A
C805   I838    2.117   .     S
C805   N826    1.384   .     A
C805   C692    1.410   1_655 S
C806   O832    1.284   .     A
C806   O831    1.288   .     A
C807   C809    1.466   .     S
C807   O833    1.299   .     A
C807   O834    1.295   .     A
C810   H822    1.084   .     S
C810   C811    1.386   .     A
C811   H823    1.083   .     S
C811   C308    1.394   1_556 S
C812   Cl839   1.767   .     S
H820   C304    1.084   1_556 S
N825   Zn835   2.016   .     S
N826   Zn836   2.016   .     S
O827   Zn835   1.995   .     S
O828   Zn836   2.006   .     S
O829   Zn835   1.976   .     S
O830   Zn836   1.925   .     S
O831   Zn835   2.006   .     S
O832   Zn836   1.995   .     S
O833   Zn835   1.925   .     S
O834   Zn836   1.976   .     S
C841   O884    1.290   .     A
C841   C857    1.423   .     S
C841   O883    1.283   .     A
C842   C843    1.417   .     A
C842   C340    1.414   1_556 S
C842   C364    1.427   1_556 S
C843   C850    1.411   .     A
C843   C847    1.419   .     A
C844   C848    1.388   .     A
C845   C846    1.388   .     A
C845   C340    1.413   1_556 S
C845   C360    1.398   1_556 S
C846   C847    1.388   .     A
C846   H875    1.084   .     S
C847   I896    2.117   .     S
C848   C865    1.398   .     A
C848   H877    1.080   .     S
C849   C864    1.394   .     A
C849   C865    1.412   .     A
C849   I893    2.115   .     S
C850   C866    1.399   .     A
C850   C852    1.463   .     S
C851   H880    1.081   .     S
C851   C857    1.395   .     A
C851   C517    1.367   1_565 S
C852   O886    1.296   .     A
C852   O885    1.296   .     A
C853   C854    1.398   .     A
C853   H869    1.084   .     S
C854   C862    1.419   .     S
C854   C855    1.396   .     A
C855   H870    1.084   .     S
C856   H871    1.084   .     S
C856   C857    1.400   .     A
C856   C519    1.372   1_565 S
C858   N882    1.367   .     A
C858   H872    1.082   .     S
C858   C915    1.419   .     S
C859   H873    1.082   .     S
C859   N881    1.368   .     A
C859   C970    1.419   1_455 S
C860   H874    1.082   .     S
C860   N881    1.355   .     A
C860   C973    1.410   1_455 S
C861   I894    2.117   .     S
C861   N882    1.384   .     A
C861   C916    1.410   .     S
C862   O888    1.284   .     A
C862   O887    1.288   .     A
C863   C865    1.466   .     S
C863   O889    1.299   .     A
C863   O890    1.295   .     A
C866   H878    1.084   .     S
C866   C867    1.386   .     A
C867   H879    1.083   .     S
C867   C364    1.394   1_556 S
C868   Cl895   1.767   .     S
H876   C360    1.084   1_556 S
N881   Zn891   2.016   .     S
N882   Zn892   2.016   .     S
O883   Zn891   1.995   .     S
O884   Zn892   2.006   .     S
O885   Zn891   1.976   .     S
O886   Zn892   1.925   .     S
O887   Zn891   2.006   .     S
O888   Zn892   1.995   .     S
O889   Zn891   1.925   .     S
O890   Zn892   1.976   .     S
C897   O940    1.290   .     A
C897   C913    1.423   .     S
C897   O939    1.283   .     A
C898   C899    1.417   .     A
C898   C396    1.414   1_556 S
C898   C420    1.427   1_556 S
C899   C906    1.411   .     A
C899   C903    1.419   .     A
C900   C904    1.388   .     A
C901   C902    1.388   .     A
C901   C396    1.413   1_556 S
C901   C416    1.398   1_556 S
C902   C903    1.388   .     A
C902   H931    1.084   .     S
C903   I952    2.117   .     S
C904   C921    1.398   .     A
C904   H933    1.080   .     S
C905   C920    1.394   .     A
C905   C921    1.412   .     A
C905   I949    2.115   .     S
C906   C922    1.399   .     A
C906   C908    1.463   .     S
C907   H936    1.081   .     S
C907   C913    1.395   .     A
C907   C573    1.367   1_565 S
C908   O942    1.296   .     A
C908   O941    1.296   .     A
C909   C910    1.398   .     A
C909   H925    1.084   .     S
C910   C918    1.419   .     S
C910   C911    1.396   .     A
C911   H926    1.084   .     S
C912   H927    1.084   .     S
C912   C913    1.400   .     A
C912   C575    1.372   1_565 S
C914   N938    1.367   .     A
C914   H928    1.082   .     S
C914   C971    1.419   .     S
C915   H929    1.082   .     S
C915   N937    1.368   .     A
C916   H930    1.082   .     S
C916   N937    1.355   .     A
C917   I950    2.117   .     S
C917   N938    1.384   .     A
C917   C972    1.410   .     S
C918   O944    1.284   .     A
C918   O943    1.288   .     A
C919   C921    1.466   .     S
C919   O945    1.299   .     A
C919   O946    1.295   .     A
C922   H934    1.084   .     S
C922   C923    1.386   .     A
C923   H935    1.083   .     S
C923   C420    1.394   1_556 S
C924   Cl951   1.767   .     S
H932   C416    1.084   1_556 S
N937   Zn947   2.016   .     S
N938   Zn948   2.016   .     S
O939   Zn947   1.995   .     S
O940   Zn948   2.006   .     S
O941   Zn947   1.976   .     S
O942   Zn948   1.925   .     S
O943   Zn947   2.006   .     S
O944   Zn948   1.995   .     S
O945   Zn947   1.925   .     S
O946   Zn948   1.976   .     S
C953   O996    1.290   .     A
C953   C969    1.423   .     S
C953   O995    1.283   .     A
C954   C955    1.417   .     A
C954   C452    1.414   1_556 S
C954   C476    1.427   1_556 S
C955   C962    1.411   .     A
C955   C959    1.419   .     A
C956   C960    1.388   .     A
C957   C958    1.388   .     A
C957   C452    1.413   1_556 S
C957   C472    1.398   1_556 S
C958   C959    1.388   .     A
C958   H987    1.084   .     S
C959   I1008   2.117   .     S
C960   C977    1.398   .     A
C960   H989    1.080   .     S
C961   C976    1.394   .     A
C961   C977    1.412   .     A
C961   I1005   2.115   .     S
C962   C978    1.399   .     A
C962   C964    1.463   .     S
C963   H992    1.081   .     S
C963   C969    1.395   .     A
C963   C629    1.367   1_565 S
C964   O998    1.296   .     A
C964   O997    1.296   .     A
C965   C966    1.398   .     A
C965   H981    1.084   .     S
C966   C974    1.419   .     S
C966   C967    1.396   .     A
C967   H982    1.084   .     S
C968   H983    1.084   .     S
C968   C969    1.400   .     A
C968   C631    1.372   1_565 S
C970   N994    1.367   .     A
C970   H984    1.082   .     S
C970   C859    1.419   1_655 S
C971   H985    1.082   .     S
C971   N993    1.368   .     A
C972   H986    1.082   .     S
C972   N993    1.355   .     A
C973   I1006   2.117   .     S
C973   N994    1.384   .     A
C973   C860    1.410   1_655 S
C974   O1000   1.284   .     A
C974   O999    1.288   .     A
C975   C977    1.466   .     S
C975   O1001   1.299   .     A
C975   O1002   1.295   .     A
C978   H990    1.084   .     S
C978   C979    1.386   .     A
C979   H991    1.083   .     S
C979   C476    1.394   1_556 S
C980   Cl1007  1.767   .     S
H988   C472    1.084   1_556 S
N993   Zn1003  2.016   .     S
N994   Zn1004  2.016   .     S
O995   Zn1003  1.995   .     S
O996   Zn1004  2.006   .     S
O997   Zn1003  1.976   .     S
O998   Zn1004  1.925   .     S
O999   Zn1003  2.006   .     S
O1000  Zn1004  1.995   .     S
O1001  Zn1003  1.925   .     S
O1002  Zn1004  1.976   .     S
