data_str_m3_o1_o18_pcu_sym.2
_audit_creation_date              2020-01-03
_audit_creation_method            'Materials Studio'
_symmetry_space_group_name_H-M    'P1'
_symmetry_Int_Tables_number       1
_symmetry_cell_setting            triclinic
loop_
_symmetry_equiv_pos_as_xyz
  x,y,z
_cell_length_a                    30.0802
_cell_length_b                    31.7507
_cell_length_c                    30.7092
_cell_angle_alpha                 92.6953
_cell_angle_beta                  69.8319
_cell_angle_gamma                 89.6568
loop_
_atom_site_label
_atom_site_type_symbol
_atom_site_fract_x
_atom_site_fract_y
_atom_site_fract_z
_atom_site_U_iso_or_equiv
_atom_site_adp_type
_atom_site_occupancy
C1     C     0.16870   0.24614   0.24378   0.00000  Uiso   1.00
C2     C     0.12937   0.31320   0.23985   0.00000  Uiso   1.00
C3     C     0.16362   0.04173   0.26191   0.00000  Uiso   1.00
C4     C     0.17141   0.29082   0.23499   0.00000  Uiso   1.00
C5     C     0.31755   0.13482   0.22692   0.00000  Uiso   1.00
C6     C     0.01590   0.19923   0.27158   0.00000  Uiso   1.00
C7     C     0.03156   0.13411   0.22846   0.00000  Uiso   1.00
C8     C     0.30141   0.19877   0.27214   0.00000  Uiso   1.00
C9     C     0.13717   0.16621   0.33799   0.00000  Uiso   1.00
C10    C     0.19605   0.16907   0.16216   0.00000  Uiso   1.00
C11    C     0.12008   0.17235   0.38918   0.00000  Uiso   1.00
C12    C     0.16507   0.08689   0.25531   0.00000  Uiso   1.00
C13    C     0.21207   0.18294   0.11356   0.00000  Uiso   1.00
C14    C     0.06067   0.20435   0.45798   0.00000  Uiso   1.00
C15    C     0.26886   0.21910   0.05007   0.00000  Uiso   1.00
C16    C     0.07238   0.18360   0.41448   0.00000  Uiso   1.00
C17    C     0.25733   0.20066   0.09290   0.00000  Uiso   1.00
C18    C     0.15366   0.17444   0.41202   0.00000  Uiso   1.00
C19    C     0.17948   0.18444   0.08947   0.00000  Uiso   1.00
C20    C     0.14235   0.19884   0.45422   0.00000  Uiso   1.00
C21    C     0.19168   0.20458   0.04721   0.00000  Uiso   1.00
C22    C     0.09507   0.21313   0.47794   0.00000  Uiso   1.00
C23    C     0.11261   0.22414   0.04849   0.00000  Uiso   1.00
C24    C     0.23784   0.21871   0.02518   0.00000  Uiso   1.00
C25    C     0.17547   0.20664   0.47629   0.00000  Uiso   1.00
C26    C     0.15904   0.20949   0.02468   0.00000  Uiso   1.00
C27    C     0.04433   0.26329   0.04378   0.00000  Uiso   1.00
C28    C     0.29339   0.25473   0.45431   0.00000  Uiso   1.00
C29    C     0.13551   0.15976   0.10369   0.00000  Uiso   1.00
C30    C     0.19524   0.14427   0.39723   0.00000  Uiso   1.00
C31    C     0.29387   0.19934   0.11352   0.00000  Uiso   1.00
C32    C     0.03409   0.17071   0.39890   0.00000  Uiso   1.00
C33    C     0.25996   0.29409   0.20603   0.00000  Uiso   1.00
C34    C     0.22203   0.21868   0.45273   0.00000  Uiso   1.00
C35    C     0.07450   0.03569   0.29081   0.00000  Uiso   1.00
C36    C     0.23962   0.03567   0.27903   0.00000  Uiso   1.00
C37    C     0.09695   0.29664   0.21585   0.00000  Uiso   1.00
C38    C     0.30323   0.10316   0.19727   0.00000  Uiso   1.00
C39    C     0.03008   0.23546   0.29556   0.00000  Uiso   1.00
C40    C     0.06272   0.09711   0.20783   0.00000  Uiso   1.00
C41    C     0.26873   0.23381   0.29688   0.00000  Uiso   1.00
C42    C     0.08284   0.23168   0.02352   0.00000  Uiso   1.00
C43    C     0.25140   0.22999   0.47806   0.00000  Uiso   1.00
C44    C     0.21226   0.31219   0.23472   0.00000  Uiso   1.00
C45    C     0.12303   0.02013   0.26141   0.00000  Uiso   1.00
C46    C     0.20643   0.01951   0.25562   0.00000  Uiso   1.00
H47    H     0.02422   0.21139   0.47703   0.00000  Uiso   1.00
H48    H     0.04332   0.01947   0.28970   0.00000  Uiso   1.00
H49    H     0.23360   0.06623   0.29740   0.00000  Uiso   1.00
H50    H     0.10454   0.26644   0.19645   0.00000  Uiso   1.00
H51    H     0.27734   0.11125   0.18205   0.00000  Uiso   1.00
H52    H     0.02044   0.26730   0.29040   0.00000  Uiso   1.00
H53    H     0.05149   0.06623   0.22008   0.00000  Uiso   1.00
H54    H     0.27697   0.26574   0.28647   0.00000  Uiso   1.00
H55    H     0.30243   0.23319   0.03621   0.00000  Uiso   1.00
H56    H     0.10213   0.23493   0.08475   0.00000  Uiso   1.00
H57    H     0.23333   0.22396   0.41596   0.00000  Uiso   1.00
H58    H     0.02750   0.26753   0.08117   0.00000  Uiso   1.00
H59    H     0.31182   0.24945   0.41724   0.00000  Uiso   1.00
H60    H     0.10462   0.17117   0.13255   0.00000  Uiso   1.00
H61    H     0.22582   0.14937   0.40746   0.00000  Uiso   1.00
H62    H     0.26354   0.26245   0.19030   0.00000  Uiso   1.00
N63    N     0.04759   0.16668   0.25001   0.00000  Uiso   1.00
N64    N     0.28574   0.16666   0.24999   0.00000  Uiso   1.00
N65    N     0.32318   0.19804   0.12992   0.00000  Uiso   1.00
N66    N     0.00333   0.16016   0.38667   0.00000  Uiso   1.00
O67    O     0.12846   0.22775   0.25001   0.00000  Uiso   1.00
O68    O     0.30530   0.28372   0.47497   0.00000  Uiso   1.00
O69    O     0.13309   0.12749   0.08146   0.00000  Uiso   1.00
O70    O     0.19440   0.11132   0.37540   0.00000  Uiso   1.00
O71    O     0.29551   0.31515   0.19638   0.00000  Uiso   1.00
O72    O     0.06870   0.06526   0.31929   0.00000  Uiso   1.00
O73    O     0.27218   0.01390   0.28142   0.00000  Uiso   1.00
O74    O     0.06328   0.31744   0.21444   0.00000  Uiso   1.00
O75    O     0.32017   0.06747   0.18888   0.00000  Uiso   1.00
O76    O     0.04970   0.23041   0.32362   0.00000  Uiso   1.00
O77    O     0.10001   0.10016   0.17595   0.00000  Uiso   1.00
O78    O     0.20488   0.10558   0.25000   0.00000  Uiso   1.00
O79    O     0.23389   0.22776   0.33064   0.00000  Uiso   1.00
O80    O     0.20490   0.22774   0.25000   0.00000  Uiso   1.00
O81    O     0.12843   0.10559   0.25000   0.00000  Uiso   1.00
O82    O     0.10661   0.16667   0.31613   0.00000  Uiso   1.00
O83    O     0.22672   0.16666   0.18387   0.00000  Uiso   1.00
O84    O     0.18305   0.16666   0.31612   0.00000  Uiso   1.00
O85    O     0.15028   0.16667   0.18388   0.00000  Uiso   1.00
O86    O     0.03394   0.28760   0.01906   0.00000  Uiso   1.00
Zn87   Zn    0.11562   0.16667   0.25000   0.00000  Uiso   1.00
Zn88   Zn    0.21771   0.16666   0.25000   0.00000  Uiso   1.00
C89    C     0.50204   0.24614   0.24378   0.00000  Uiso   1.00
C90    C     0.46270   0.31320   0.23985   0.00000  Uiso   1.00
C91    C     0.49696   0.04173   0.26191   0.00000  Uiso   1.00
C92    C     0.50474   0.29082   0.23499   0.00000  Uiso   1.00
C93    C     0.65088   0.13482   0.22692   0.00000  Uiso   1.00
C94    C     0.34923   0.19923   0.27158   0.00000  Uiso   1.00
C95    C     0.36489   0.13411   0.22846   0.00000  Uiso   1.00
C96    C     0.63474   0.19877   0.27214   0.00000  Uiso   1.00
C97    C     0.47051   0.16621   0.33799   0.00000  Uiso   1.00
C98    C     0.52938   0.16907   0.16216   0.00000  Uiso   1.00
C99    C     0.45341   0.17235   0.38918   0.00000  Uiso   1.00
C100   C     0.49840   0.08689   0.25531   0.00000  Uiso   1.00
C101   C     0.54540   0.18294   0.11356   0.00000  Uiso   1.00
C102   C     0.39400   0.20435   0.45798   0.00000  Uiso   1.00
C103   C     0.60219   0.21910   0.05007   0.00000  Uiso   1.00
C104   C     0.40571   0.18360   0.41448   0.00000  Uiso   1.00
C105   C     0.59067   0.20066   0.09290   0.00000  Uiso   1.00
C106   C     0.48699   0.17444   0.41202   0.00000  Uiso   1.00
C107   C     0.51282   0.18444   0.08947   0.00000  Uiso   1.00
C108   C     0.47569   0.19884   0.45422   0.00000  Uiso   1.00
C109   C     0.52502   0.20458   0.04721   0.00000  Uiso   1.00
C110   C     0.42840   0.21313   0.47794   0.00000  Uiso   1.00
C111   C     0.44594   0.22414   0.04849   0.00000  Uiso   1.00
C112   C     0.57118   0.21871   0.02518   0.00000  Uiso   1.00
C113   C     0.50880   0.20664   0.47629   0.00000  Uiso   1.00
C114   C     0.49237   0.20949   0.02468   0.00000  Uiso   1.00
C115   C     0.37766   0.26329   0.04378   0.00000  Uiso   1.00
C116   C     0.62672   0.25473   0.45431   0.00000  Uiso   1.00
C117   C     0.46884   0.15976   0.10369   0.00000  Uiso   1.00
C118   C     0.52857   0.14427   0.39723   0.00000  Uiso   1.00
C119   C     0.62720   0.19934   0.11352   0.00000  Uiso   1.00
C120   C     0.36742   0.17071   0.39890   0.00000  Uiso   1.00
C121   C     0.59330   0.29409   0.20603   0.00000  Uiso   1.00
C122   C     0.55536   0.21868   0.45273   0.00000  Uiso   1.00
C123   C     0.40783   0.03569   0.29081   0.00000  Uiso   1.00
C124   C     0.57295   0.03567   0.27903   0.00000  Uiso   1.00
C125   C     0.43028   0.29664   0.21585   0.00000  Uiso   1.00
C126   C     0.63656   0.10316   0.19727   0.00000  Uiso   1.00
C127   C     0.36342   0.23546   0.29556   0.00000  Uiso   1.00
C128   C     0.39605   0.09711   0.20783   0.00000  Uiso   1.00
C129   C     0.60206   0.23381   0.29688   0.00000  Uiso   1.00
C130   C     0.41617   0.23168   0.02352   0.00000  Uiso   1.00
C131   C     0.58473   0.22999   0.47806   0.00000  Uiso   1.00
C132   C     0.54559   0.31219   0.23472   0.00000  Uiso   1.00
C133   C     0.45636   0.02013   0.26141   0.00000  Uiso   1.00
C134   C     0.53976   0.01951   0.25562   0.00000  Uiso   1.00
H135   H     0.35756   0.21139   0.47703   0.00000  Uiso   1.00
H136   H     0.37665   0.01947   0.28970   0.00000  Uiso   1.00
H137   H     0.56693   0.06623   0.29740   0.00000  Uiso   1.00
H138   H     0.43787   0.26644   0.19645   0.00000  Uiso   1.00
H139   H     0.61067   0.11125   0.18205   0.00000  Uiso   1.00
H140   H     0.35378   0.26730   0.29040   0.00000  Uiso   1.00
H141   H     0.38482   0.06623   0.22008   0.00000  Uiso   1.00
H142   H     0.61030   0.26574   0.28647   0.00000  Uiso   1.00
H143   H     0.63576   0.23319   0.03621   0.00000  Uiso   1.00
H144   H     0.43546   0.23493   0.08475   0.00000  Uiso   1.00
H145   H     0.56666   0.22396   0.41596   0.00000  Uiso   1.00
H146   H     0.36083   0.26753   0.08117   0.00000  Uiso   1.00
H147   H     0.64515   0.24945   0.41724   0.00000  Uiso   1.00
H148   H     0.43796   0.17117   0.13255   0.00000  Uiso   1.00
H149   H     0.55916   0.14937   0.40746   0.00000  Uiso   1.00
H150   H     0.59688   0.26245   0.19030   0.00000  Uiso   1.00
N151   N     0.38093   0.16668   0.25001   0.00000  Uiso   1.00
N152   N     0.61907   0.16666   0.24999   0.00000  Uiso   1.00
N153   N     0.65651   0.19804   0.12992   0.00000  Uiso   1.00
N154   N     0.33667   0.16016   0.38667   0.00000  Uiso   1.00
O155   O     0.46179   0.22775   0.25001   0.00000  Uiso   1.00
O156   O     0.63863   0.28372   0.47497   0.00000  Uiso   1.00
O157   O     0.46642   0.12749   0.08146   0.00000  Uiso   1.00
O158   O     0.52774   0.11132   0.37540   0.00000  Uiso   1.00
O159   O     0.62885   0.31515   0.19638   0.00000  Uiso   1.00
O160   O     0.40204   0.06526   0.31929   0.00000  Uiso   1.00
O161   O     0.60552   0.01390   0.28142   0.00000  Uiso   1.00
O162   O     0.39661   0.31744   0.21444   0.00000  Uiso   1.00
O163   O     0.65350   0.06747   0.18888   0.00000  Uiso   1.00
O164   O     0.38303   0.23041   0.32362   0.00000  Uiso   1.00
O165   O     0.43334   0.10016   0.17595   0.00000  Uiso   1.00
O166   O     0.53821   0.10558   0.25000   0.00000  Uiso   1.00
O167   O     0.56722   0.22776   0.33064   0.00000  Uiso   1.00
O168   O     0.53823   0.22774   0.25000   0.00000  Uiso   1.00
O169   O     0.46177   0.10559   0.25000   0.00000  Uiso   1.00
O170   O     0.43994   0.16667   0.31613   0.00000  Uiso   1.00
O171   O     0.56006   0.16666   0.18387   0.00000  Uiso   1.00
O172   O     0.51639   0.16666   0.31612   0.00000  Uiso   1.00
O173   O     0.48361   0.16667   0.18388   0.00000  Uiso   1.00
O174   O     0.36727   0.28760   0.01906   0.00000  Uiso   1.00
Zn175  Zn    0.44896   0.16667   0.25000   0.00000  Uiso   1.00
Zn176  Zn    0.55104   0.16666   0.25000   0.00000  Uiso   1.00
C177   C     0.83537   0.24614   0.24378   0.00000  Uiso   1.00
C178   C     0.79603   0.31320   0.23985   0.00000  Uiso   1.00
C179   C     0.83029   0.04173   0.26191   0.00000  Uiso   1.00
C180   C     0.83808   0.29082   0.23499   0.00000  Uiso   1.00
C181   C     0.98422   0.13482   0.22692   0.00000  Uiso   1.00
C182   C     0.68257   0.19923   0.27158   0.00000  Uiso   1.00
C183   C     0.69823   0.13411   0.22846   0.00000  Uiso   1.00
C184   C     0.96807   0.19877   0.27214   0.00000  Uiso   1.00
C185   C     0.80384   0.16621   0.33799   0.00000  Uiso   1.00
C186   C     0.86272   0.16907   0.16216   0.00000  Uiso   1.00
C187   C     0.78675   0.17235   0.38918   0.00000  Uiso   1.00
C188   C     0.83173   0.08689   0.25531   0.00000  Uiso   1.00
C189   C     0.87874   0.18294   0.11356   0.00000  Uiso   1.00
C190   C     0.72733   0.20435   0.45798   0.00000  Uiso   1.00
C191   C     0.93552   0.21910   0.05007   0.00000  Uiso   1.00
C192   C     0.73904   0.18360   0.41448   0.00000  Uiso   1.00
C193   C     0.92400   0.20066   0.09290   0.00000  Uiso   1.00
C194   C     0.82033   0.17444   0.41202   0.00000  Uiso   1.00
C195   C     0.84615   0.18444   0.08947   0.00000  Uiso   1.00
C196   C     0.80902   0.19884   0.45422   0.00000  Uiso   1.00
C197   C     0.85835   0.20458   0.04721   0.00000  Uiso   1.00
C198   C     0.76174   0.21313   0.47794   0.00000  Uiso   1.00
C199   C     0.77927   0.22414   0.04849   0.00000  Uiso   1.00
C200   C     0.90451   0.21871   0.02518   0.00000  Uiso   1.00
C201   C     0.84214   0.20664   0.47629   0.00000  Uiso   1.00
C202   C     0.82570   0.20949   0.02468   0.00000  Uiso   1.00
C203   C     0.71099   0.26329   0.04378   0.00000  Uiso   1.00
C204   C     0.96006   0.25473   0.45431   0.00000  Uiso   1.00
C205   C     0.80218   0.15976   0.10369   0.00000  Uiso   1.00
C206   C     0.86191   0.14427   0.39723   0.00000  Uiso   1.00
C207   C     0.96053   0.19934   0.11352   0.00000  Uiso   1.00
C208   C     0.70075   0.17071   0.39890   0.00000  Uiso   1.00
C209   C     0.92663   0.29409   0.20603   0.00000  Uiso   1.00
C210   C     0.88870   0.21868   0.45273   0.00000  Uiso   1.00
C211   C     0.74117   0.03569   0.29081   0.00000  Uiso   1.00
C212   C     0.90629   0.03567   0.27903   0.00000  Uiso   1.00
C213   C     0.76361   0.29664   0.21585   0.00000  Uiso   1.00
C214   C     0.96990   0.10316   0.19727   0.00000  Uiso   1.00
C215   C     0.69675   0.23546   0.29556   0.00000  Uiso   1.00
C216   C     0.72938   0.09711   0.20783   0.00000  Uiso   1.00
C217   C     0.93540   0.23381   0.29688   0.00000  Uiso   1.00
C218   C     0.74951   0.23168   0.02352   0.00000  Uiso   1.00
C219   C     0.91806   0.22999   0.47806   0.00000  Uiso   1.00
C220   C     0.87893   0.31219   0.23472   0.00000  Uiso   1.00
C221   C     0.78970   0.02013   0.26141   0.00000  Uiso   1.00
C222   C     0.87310   0.01951   0.25562   0.00000  Uiso   1.00
H223   H     0.69089   0.21139   0.47703   0.00000  Uiso   1.00
H224   H     0.70999   0.01947   0.28970   0.00000  Uiso   1.00
H225   H     0.90026   0.06623   0.29740   0.00000  Uiso   1.00
H226   H     0.77121   0.26644   0.19645   0.00000  Uiso   1.00
H227   H     0.94401   0.11125   0.18205   0.00000  Uiso   1.00
H228   H     0.68711   0.26730   0.29040   0.00000  Uiso   1.00
H229   H     0.71816   0.06623   0.22008   0.00000  Uiso   1.00
H230   H     0.94363   0.26574   0.28647   0.00000  Uiso   1.00
H231   H     0.96909   0.23319   0.03621   0.00000  Uiso   1.00
H232   H     0.76879   0.23493   0.08475   0.00000  Uiso   1.00
H233   H     0.89999   0.22396   0.41596   0.00000  Uiso   1.00
H234   H     0.69416   0.26753   0.08117   0.00000  Uiso   1.00
H235   H     0.97848   0.24945   0.41724   0.00000  Uiso   1.00
H236   H     0.77129   0.17117   0.13255   0.00000  Uiso   1.00
H237   H     0.89249   0.14937   0.40746   0.00000  Uiso   1.00
H238   H     0.93021   0.26245   0.19030   0.00000  Uiso   1.00
N239   N     0.71426   0.16668   0.25001   0.00000  Uiso   1.00
N240   N     0.95241   0.16666   0.24999   0.00000  Uiso   1.00
N241   N     0.98984   0.19804   0.12992   0.00000  Uiso   1.00
N242   N     0.67000   0.16016   0.38667   0.00000  Uiso   1.00
O243   O     0.79512   0.22775   0.25001   0.00000  Uiso   1.00
O244   O     0.97197   0.28372   0.47497   0.00000  Uiso   1.00
O245   O     0.79975   0.12749   0.08146   0.00000  Uiso   1.00
O246   O     0.86107   0.11132   0.37540   0.00000  Uiso   1.00
O247   O     0.96218   0.31515   0.19638   0.00000  Uiso   1.00
O248   O     0.73537   0.06526   0.31929   0.00000  Uiso   1.00
O249   O     0.93885   0.01390   0.28142   0.00000  Uiso   1.00
O250   O     0.72995   0.31744   0.21444   0.00000  Uiso   1.00
O251   O     0.98684   0.06747   0.18888   0.00000  Uiso   1.00
O252   O     0.71636   0.23041   0.32362   0.00000  Uiso   1.00
O253   O     0.76668   0.10016   0.17595   0.00000  Uiso   1.00
O254   O     0.87154   0.10558   0.25000   0.00000  Uiso   1.00
O255   O     0.90056   0.22776   0.33064   0.00000  Uiso   1.00
O256   O     0.87157   0.22774   0.25000   0.00000  Uiso   1.00
O257   O     0.79510   0.10559   0.25000   0.00000  Uiso   1.00
O258   O     0.77328   0.16667   0.31613   0.00000  Uiso   1.00
O259   O     0.89339   0.16666   0.18387   0.00000  Uiso   1.00
O260   O     0.84972   0.16666   0.31612   0.00000  Uiso   1.00
O261   O     0.81695   0.16667   0.18388   0.00000  Uiso   1.00
O262   O     0.70061   0.28760   0.01906   0.00000  Uiso   1.00
Zn263  Zn    0.78229   0.16667   0.25000   0.00000  Uiso   1.00
Zn264  Zn    0.88438   0.16666   0.25000   0.00000  Uiso   1.00
C265   C     0.16870   0.57947   0.24378   0.00000  Uiso   1.00
C266   C     0.12937   0.64654   0.23985   0.00000  Uiso   1.00
C267   C     0.16362   0.37507   0.26191   0.00000  Uiso   1.00
C268   C     0.17141   0.62415   0.23499   0.00000  Uiso   1.00
C269   C     0.31755   0.46815   0.22692   0.00000  Uiso   1.00
C270   C     0.01590   0.53256   0.27158   0.00000  Uiso   1.00
C271   C     0.03156   0.46744   0.22846   0.00000  Uiso   1.00
C272   C     0.30141   0.53210   0.27214   0.00000  Uiso   1.00
C273   C     0.13717   0.49954   0.33799   0.00000  Uiso   1.00
C274   C     0.19605   0.50240   0.16216   0.00000  Uiso   1.00
C275   C     0.12008   0.50569   0.38918   0.00000  Uiso   1.00
C276   C     0.16507   0.42022   0.25531   0.00000  Uiso   1.00
C277   C     0.21207   0.51628   0.11356   0.00000  Uiso   1.00
C278   C     0.06067   0.53769   0.45798   0.00000  Uiso   1.00
C279   C     0.26886   0.55243   0.05007   0.00000  Uiso   1.00
C280   C     0.07238   0.51694   0.41448   0.00000  Uiso   1.00
C281   C     0.25733   0.53399   0.09290   0.00000  Uiso   1.00
C282   C     0.15366   0.50777   0.41202   0.00000  Uiso   1.00
C283   C     0.17948   0.51777   0.08947   0.00000  Uiso   1.00
C284   C     0.14235   0.53217   0.45422   0.00000  Uiso   1.00
C285   C     0.19168   0.53792   0.04721   0.00000  Uiso   1.00
C286   C     0.09507   0.54647   0.47794   0.00000  Uiso   1.00
C287   C     0.11261   0.55748   0.04849   0.00000  Uiso   1.00
C288   C     0.23784   0.55205   0.02518   0.00000  Uiso   1.00
C289   C     0.17547   0.53998   0.47629   0.00000  Uiso   1.00
C290   C     0.15904   0.54283   0.02468   0.00000  Uiso   1.00
C291   C     0.04433   0.59663   0.04378   0.00000  Uiso   1.00
C292   C     0.29339   0.58806   0.45431   0.00000  Uiso   1.00
C293   C     0.13551   0.49309   0.10369   0.00000  Uiso   1.00
C294   C     0.19524   0.47760   0.39723   0.00000  Uiso   1.00
C295   C     0.29387   0.53267   0.11352   0.00000  Uiso   1.00
C296   C     0.03409   0.50404   0.39890   0.00000  Uiso   1.00
C297   C     0.25996   0.62742   0.20603   0.00000  Uiso   1.00
C298   C     0.22203   0.55201   0.45273   0.00000  Uiso   1.00
C299   C     0.07450   0.36903   0.29081   0.00000  Uiso   1.00
C300   C     0.23962   0.36900   0.27903   0.00000  Uiso   1.00
C301   C     0.09695   0.62997   0.21585   0.00000  Uiso   1.00
C302   C     0.30323   0.43649   0.19727   0.00000  Uiso   1.00
C303   C     0.03008   0.56879   0.29556   0.00000  Uiso   1.00
C304   C     0.06272   0.43045   0.20783   0.00000  Uiso   1.00
C305   C     0.26873   0.56715   0.29688   0.00000  Uiso   1.00
C306   C     0.08284   0.56501   0.02352   0.00000  Uiso   1.00
C307   C     0.25140   0.56332   0.47806   0.00000  Uiso   1.00
C308   C     0.21226   0.64552   0.23472   0.00000  Uiso   1.00
C309   C     0.12303   0.35347   0.26141   0.00000  Uiso   1.00
C310   C     0.20643   0.35285   0.25562   0.00000  Uiso   1.00
H311   H     0.02422   0.54473   0.47703   0.00000  Uiso   1.00
H312   H     0.04332   0.35280   0.28970   0.00000  Uiso   1.00
H313   H     0.23360   0.39956   0.29740   0.00000  Uiso   1.00
H314   H     0.10454   0.59978   0.19645   0.00000  Uiso   1.00
H315   H     0.27734   0.44458   0.18205   0.00000  Uiso   1.00
H316   H     0.02044   0.60064   0.29040   0.00000  Uiso   1.00
H317   H     0.05149   0.39956   0.22008   0.00000  Uiso   1.00
H318   H     0.27697   0.59908   0.28647   0.00000  Uiso   1.00
H319   H     0.30243   0.56652   0.03621   0.00000  Uiso   1.00
H320   H     0.10213   0.56826   0.08475   0.00000  Uiso   1.00
H321   H     0.23333   0.55729   0.41596   0.00000  Uiso   1.00
H322   H     0.02750   0.60087   0.08117   0.00000  Uiso   1.00
H323   H     0.31182   0.58278   0.41724   0.00000  Uiso   1.00
H324   H     0.10462   0.50450   0.13255   0.00000  Uiso   1.00
H325   H     0.22582   0.48270   0.40746   0.00000  Uiso   1.00
H326   H     0.26354   0.59579   0.19030   0.00000  Uiso   1.00
N327   N     0.04759   0.50001   0.25001   0.00000  Uiso   1.00
N328   N     0.28574   0.49999   0.24999   0.00000  Uiso   1.00
N329   N     0.32318   0.53138   0.12992   0.00000  Uiso   1.00
N330   N     0.00333   0.49349   0.38667   0.00000  Uiso   1.00
O331   O     0.12846   0.56108   0.25001   0.00000  Uiso   1.00
O332   O     0.30530   0.61706   0.47497   0.00000  Uiso   1.00
O333   O     0.13309   0.46082   0.08146   0.00000  Uiso   1.00
O334   O     0.19440   0.44466   0.37540   0.00000  Uiso   1.00
O335   O     0.29551   0.64849   0.19638   0.00000  Uiso   1.00
O336   O     0.06870   0.39859   0.31929   0.00000  Uiso   1.00
O337   O     0.27218   0.34724   0.28142   0.00000  Uiso   1.00
O338   O     0.06328   0.65077   0.21444   0.00000  Uiso   1.00
O339   O     0.32017   0.40080   0.18888   0.00000  Uiso   1.00
O340   O     0.04970   0.56374   0.32362   0.00000  Uiso   1.00
O341   O     0.10001   0.43349   0.17595   0.00000  Uiso   1.00
O342   O     0.20488   0.43892   0.25000   0.00000  Uiso   1.00
O343   O     0.23389   0.56109   0.33064   0.00000  Uiso   1.00
O344   O     0.20490   0.56107   0.25000   0.00000  Uiso   1.00
O345   O     0.12843   0.43893   0.25000   0.00000  Uiso   1.00
O346   O     0.10661   0.50001   0.31613   0.00000  Uiso   1.00
O347   O     0.22672   0.49999   0.18387   0.00000  Uiso   1.00
O348   O     0.18305   0.50000   0.31612   0.00000  Uiso   1.00
O349   O     0.15028   0.50000   0.18388   0.00000  Uiso   1.00
O350   O     0.03394   0.62093   0.01906   0.00000  Uiso   1.00
Zn351  Zn    0.11562   0.50001   0.25000   0.00000  Uiso   1.00
Zn352  Zn    0.21771   0.49999   0.25000   0.00000  Uiso   1.00
C353   C     0.50204   0.57947   0.24378   0.00000  Uiso   1.00
C354   C     0.46270   0.64654   0.23985   0.00000  Uiso   1.00
C355   C     0.49696   0.37507   0.26191   0.00000  Uiso   1.00
C356   C     0.50474   0.62415   0.23499   0.00000  Uiso   1.00
C357   C     0.65088   0.46815   0.22692   0.00000  Uiso   1.00
C358   C     0.34923   0.53256   0.27158   0.00000  Uiso   1.00
C359   C     0.36489   0.46744   0.22846   0.00000  Uiso   1.00
C360   C     0.63474   0.53210   0.27214   0.00000  Uiso   1.00
C361   C     0.47051   0.49954   0.33799   0.00000  Uiso   1.00
C362   C     0.52938   0.50240   0.16216   0.00000  Uiso   1.00
C363   C     0.45341   0.50569   0.38918   0.00000  Uiso   1.00
C364   C     0.49840   0.42022   0.25531   0.00000  Uiso   1.00
C365   C     0.54540   0.51628   0.11356   0.00000  Uiso   1.00
C366   C     0.39400   0.53769   0.45798   0.00000  Uiso   1.00
C367   C     0.60219   0.55243   0.05007   0.00000  Uiso   1.00
C368   C     0.40571   0.51694   0.41448   0.00000  Uiso   1.00
C369   C     0.59067   0.53399   0.09290   0.00000  Uiso   1.00
C370   C     0.48699   0.50777   0.41202   0.00000  Uiso   1.00
C371   C     0.51282   0.51777   0.08947   0.00000  Uiso   1.00
C372   C     0.47569   0.53217   0.45422   0.00000  Uiso   1.00
C373   C     0.52502   0.53792   0.04721   0.00000  Uiso   1.00
C374   C     0.42840   0.54647   0.47794   0.00000  Uiso   1.00
C375   C     0.44594   0.55748   0.04849   0.00000  Uiso   1.00
C376   C     0.57118   0.55205   0.02518   0.00000  Uiso   1.00
C377   C     0.50880   0.53998   0.47629   0.00000  Uiso   1.00
C378   C     0.49237   0.54283   0.02468   0.00000  Uiso   1.00
C379   C     0.37766   0.59663   0.04378   0.00000  Uiso   1.00
C380   C     0.62672   0.58806   0.45431   0.00000  Uiso   1.00
C381   C     0.46884   0.49309   0.10369   0.00000  Uiso   1.00
C382   C     0.52857   0.47760   0.39723   0.00000  Uiso   1.00
C383   C     0.62720   0.53267   0.11352   0.00000  Uiso   1.00
C384   C     0.36742   0.50404   0.39890   0.00000  Uiso   1.00
C385   C     0.59330   0.62742   0.20603   0.00000  Uiso   1.00
C386   C     0.55536   0.55201   0.45273   0.00000  Uiso   1.00
C387   C     0.40783   0.36903   0.29081   0.00000  Uiso   1.00
C388   C     0.57295   0.36900   0.27903   0.00000  Uiso   1.00
C389   C     0.43028   0.62997   0.21585   0.00000  Uiso   1.00
C390   C     0.63656   0.43649   0.19727   0.00000  Uiso   1.00
C391   C     0.36342   0.56879   0.29556   0.00000  Uiso   1.00
C392   C     0.39605   0.43045   0.20783   0.00000  Uiso   1.00
C393   C     0.60206   0.56715   0.29688   0.00000  Uiso   1.00
C394   C     0.41617   0.56501   0.02352   0.00000  Uiso   1.00
C395   C     0.58473   0.56332   0.47806   0.00000  Uiso   1.00
C396   C     0.54559   0.64552   0.23472   0.00000  Uiso   1.00
C397   C     0.45636   0.35347   0.26141   0.00000  Uiso   1.00
C398   C     0.53976   0.35285   0.25562   0.00000  Uiso   1.00
H399   H     0.35756   0.54473   0.47703   0.00000  Uiso   1.00
H400   H     0.37665   0.35280   0.28970   0.00000  Uiso   1.00
H401   H     0.56693   0.39956   0.29740   0.00000  Uiso   1.00
H402   H     0.43787   0.59978   0.19645   0.00000  Uiso   1.00
H403   H     0.61067   0.44458   0.18205   0.00000  Uiso   1.00
H404   H     0.35378   0.60064   0.29040   0.00000  Uiso   1.00
H405   H     0.38482   0.39956   0.22008   0.00000  Uiso   1.00
H406   H     0.61030   0.59908   0.28647   0.00000  Uiso   1.00
H407   H     0.63576   0.56652   0.03621   0.00000  Uiso   1.00
H408   H     0.43546   0.56826   0.08475   0.00000  Uiso   1.00
H409   H     0.56666   0.55729   0.41596   0.00000  Uiso   1.00
H410   H     0.36083   0.60087   0.08117   0.00000  Uiso   1.00
H411   H     0.64515   0.58278   0.41724   0.00000  Uiso   1.00
H412   H     0.43796   0.50450   0.13255   0.00000  Uiso   1.00
H413   H     0.55916   0.48270   0.40746   0.00000  Uiso   1.00
H414   H     0.59688   0.59579   0.19030   0.00000  Uiso   1.00
N415   N     0.38093   0.50001   0.25001   0.00000  Uiso   1.00
N416   N     0.61907   0.49999   0.24999   0.00000  Uiso   1.00
N417   N     0.65651   0.53138   0.12992   0.00000  Uiso   1.00
N418   N     0.33667   0.49349   0.38667   0.00000  Uiso   1.00
O419   O     0.46179   0.56108   0.25001   0.00000  Uiso   1.00
O420   O     0.63863   0.61706   0.47497   0.00000  Uiso   1.00
O421   O     0.46642   0.46082   0.08146   0.00000  Uiso   1.00
O422   O     0.52774   0.44466   0.37540   0.00000  Uiso   1.00
O423   O     0.62885   0.64849   0.19638   0.00000  Uiso   1.00
O424   O     0.40204   0.39859   0.31929   0.00000  Uiso   1.00
O425   O     0.60552   0.34724   0.28142   0.00000  Uiso   1.00
O426   O     0.39661   0.65077   0.21444   0.00000  Uiso   1.00
O427   O     0.65350   0.40080   0.18888   0.00000  Uiso   1.00
O428   O     0.38303   0.56374   0.32362   0.00000  Uiso   1.00
O429   O     0.43334   0.43349   0.17595   0.00000  Uiso   1.00
O430   O     0.53821   0.43892   0.25000   0.00000  Uiso   1.00
O431   O     0.56722   0.56109   0.33064   0.00000  Uiso   1.00
O432   O     0.53823   0.56107   0.25000   0.00000  Uiso   1.00
O433   O     0.46177   0.43893   0.25000   0.00000  Uiso   1.00
O434   O     0.43994   0.50001   0.31613   0.00000  Uiso   1.00
O435   O     0.56006   0.49999   0.18387   0.00000  Uiso   1.00
O436   O     0.51639   0.50000   0.31612   0.00000  Uiso   1.00
O437   O     0.48361   0.50000   0.18388   0.00000  Uiso   1.00
O438   O     0.36727   0.62093   0.01906   0.00000  Uiso   1.00
Zn439  Zn    0.44896   0.50001   0.25000   0.00000  Uiso   1.00
Zn440  Zn    0.55104   0.49999   0.25000   0.00000  Uiso   1.00
C441   C     0.83537   0.57947   0.24378   0.00000  Uiso   1.00
C442   C     0.79603   0.64654   0.23985   0.00000  Uiso   1.00
C443   C     0.83029   0.37507   0.26191   0.00000  Uiso   1.00
C444   C     0.83808   0.62415   0.23499   0.00000  Uiso   1.00
C445   C     0.98422   0.46815   0.22692   0.00000  Uiso   1.00
C446   C     0.68257   0.53256   0.27158   0.00000  Uiso   1.00
C447   C     0.69823   0.46744   0.22846   0.00000  Uiso   1.00
C448   C     0.96807   0.53210   0.27214   0.00000  Uiso   1.00
C449   C     0.80384   0.49954   0.33799   0.00000  Uiso   1.00
C450   C     0.86272   0.50240   0.16216   0.00000  Uiso   1.00
C451   C     0.78675   0.50569   0.38918   0.00000  Uiso   1.00
C452   C     0.83173   0.42022   0.25531   0.00000  Uiso   1.00
C453   C     0.87874   0.51628   0.11356   0.00000  Uiso   1.00
C454   C     0.72733   0.53769   0.45798   0.00000  Uiso   1.00
C455   C     0.93552   0.55243   0.05007   0.00000  Uiso   1.00
C456   C     0.73904   0.51694   0.41448   0.00000  Uiso   1.00
C457   C     0.92400   0.53399   0.09290   0.00000  Uiso   1.00
C458   C     0.82033   0.50777   0.41202   0.00000  Uiso   1.00
C459   C     0.84615   0.51777   0.08947   0.00000  Uiso   1.00
C460   C     0.80902   0.53217   0.45422   0.00000  Uiso   1.00
C461   C     0.85835   0.53792   0.04721   0.00000  Uiso   1.00
C462   C     0.76174   0.54647   0.47794   0.00000  Uiso   1.00
C463   C     0.77927   0.55748   0.04849   0.00000  Uiso   1.00
C464   C     0.90451   0.55205   0.02518   0.00000  Uiso   1.00
C465   C     0.84214   0.53998   0.47629   0.00000  Uiso   1.00
C466   C     0.82570   0.54283   0.02468   0.00000  Uiso   1.00
C467   C     0.71099   0.59663   0.04378   0.00000  Uiso   1.00
C468   C     0.96006   0.58806   0.45431   0.00000  Uiso   1.00
C469   C     0.80218   0.49309   0.10369   0.00000  Uiso   1.00
C470   C     0.86191   0.47760   0.39723   0.00000  Uiso   1.00
C471   C     0.96053   0.53267   0.11352   0.00000  Uiso   1.00
C472   C     0.70075   0.50404   0.39890   0.00000  Uiso   1.00
C473   C     0.92663   0.62742   0.20603   0.00000  Uiso   1.00
C474   C     0.88870   0.55201   0.45273   0.00000  Uiso   1.00
C475   C     0.74117   0.36903   0.29081   0.00000  Uiso   1.00
C476   C     0.90629   0.36900   0.27903   0.00000  Uiso   1.00
C477   C     0.76361   0.62997   0.21585   0.00000  Uiso   1.00
C478   C     0.96990   0.43649   0.19727   0.00000  Uiso   1.00
C479   C     0.69675   0.56879   0.29556   0.00000  Uiso   1.00
C480   C     0.72938   0.43045   0.20783   0.00000  Uiso   1.00
C481   C     0.93540   0.56715   0.29688   0.00000  Uiso   1.00
C482   C     0.74951   0.56501   0.02352   0.00000  Uiso   1.00
C483   C     0.91806   0.56332   0.47806   0.00000  Uiso   1.00
C484   C     0.87893   0.64552   0.23472   0.00000  Uiso   1.00
C485   C     0.78970   0.35347   0.26141   0.00000  Uiso   1.00
C486   C     0.87310   0.35285   0.25562   0.00000  Uiso   1.00
H487   H     0.69089   0.54473   0.47703   0.00000  Uiso   1.00
H488   H     0.70999   0.35280   0.28970   0.00000  Uiso   1.00
H489   H     0.90026   0.39956   0.29740   0.00000  Uiso   1.00
H490   H     0.77121   0.59978   0.19645   0.00000  Uiso   1.00
H491   H     0.94401   0.44458   0.18205   0.00000  Uiso   1.00
H492   H     0.68711   0.60064   0.29040   0.00000  Uiso   1.00
H493   H     0.71816   0.39956   0.22008   0.00000  Uiso   1.00
H494   H     0.94363   0.59908   0.28647   0.00000  Uiso   1.00
H495   H     0.96909   0.56652   0.03621   0.00000  Uiso   1.00
H496   H     0.76879   0.56826   0.08475   0.00000  Uiso   1.00
H497   H     0.89999   0.55729   0.41596   0.00000  Uiso   1.00
H498   H     0.69416   0.60087   0.08117   0.00000  Uiso   1.00
H499   H     0.97848   0.58278   0.41724   0.00000  Uiso   1.00
H500   H     0.77129   0.50450   0.13255   0.00000  Uiso   1.00
H501   H     0.89249   0.48270   0.40746   0.00000  Uiso   1.00
H502   H     0.93021   0.59579   0.19030   0.00000  Uiso   1.00
N503   N     0.71426   0.50001   0.25001   0.00000  Uiso   1.00
N504   N     0.95241   0.49999   0.24999   0.00000  Uiso   1.00
N505   N     0.98984   0.53138   0.12992   0.00000  Uiso   1.00
N506   N     0.67000   0.49349   0.38667   0.00000  Uiso   1.00
O507   O     0.79512   0.56108   0.25001   0.00000  Uiso   1.00
O508   O     0.97197   0.61706   0.47497   0.00000  Uiso   1.00
O509   O     0.79975   0.46082   0.08146   0.00000  Uiso   1.00
O510   O     0.86107   0.44466   0.37540   0.00000  Uiso   1.00
O511   O     0.96218   0.64849   0.19638   0.00000  Uiso   1.00
O512   O     0.73537   0.39859   0.31929   0.00000  Uiso   1.00
O513   O     0.93885   0.34724   0.28142   0.00000  Uiso   1.00
O514   O     0.72995   0.65077   0.21444   0.00000  Uiso   1.00
O515   O     0.98684   0.40080   0.18888   0.00000  Uiso   1.00
O516   O     0.71636   0.56374   0.32362   0.00000  Uiso   1.00
O517   O     0.76668   0.43349   0.17595   0.00000  Uiso   1.00
O518   O     0.87154   0.43892   0.25000   0.00000  Uiso   1.00
O519   O     0.90056   0.56109   0.33064   0.00000  Uiso   1.00
O520   O     0.87157   0.56107   0.25000   0.00000  Uiso   1.00
O521   O     0.79510   0.43893   0.25000   0.00000  Uiso   1.00
O522   O     0.77328   0.50001   0.31613   0.00000  Uiso   1.00
O523   O     0.89339   0.49999   0.18387   0.00000  Uiso   1.00
O524   O     0.84972   0.50000   0.31612   0.00000  Uiso   1.00
O525   O     0.81695   0.50000   0.18388   0.00000  Uiso   1.00
O526   O     0.70061   0.62093   0.01906   0.00000  Uiso   1.00
Zn527  Zn    0.78229   0.50001   0.25000   0.00000  Uiso   1.00
Zn528  Zn    0.88438   0.49999   0.25000   0.00000  Uiso   1.00
C529   C     0.16870   0.91281   0.24378   0.00000  Uiso   1.00
C530   C     0.12937   0.97987   0.23985   0.00000  Uiso   1.00
C531   C     0.16362   0.70840   0.26191   0.00000  Uiso   1.00
C532   C     0.17141   0.95749   0.23499   0.00000  Uiso   1.00
C533   C     0.31755   0.80148   0.22692   0.00000  Uiso   1.00
C534   C     0.01590   0.86589   0.27158   0.00000  Uiso   1.00
C535   C     0.03156   0.80078   0.22846   0.00000  Uiso   1.00
C536   C     0.30141   0.86544   0.27214   0.00000  Uiso   1.00
C537   C     0.13717   0.83288   0.33799   0.00000  Uiso   1.00
C538   C     0.19605   0.83573   0.16216   0.00000  Uiso   1.00
C539   C     0.12008   0.83902   0.38918   0.00000  Uiso   1.00
C540   C     0.16507   0.75355   0.25531   0.00000  Uiso   1.00
C541   C     0.21207   0.84961   0.11356   0.00000  Uiso   1.00
C542   C     0.06067   0.87102   0.45798   0.00000  Uiso   1.00
C543   C     0.26886   0.88577   0.05007   0.00000  Uiso   1.00
C544   C     0.07238   0.85027   0.41448   0.00000  Uiso   1.00
C545   C     0.25733   0.86733   0.09290   0.00000  Uiso   1.00
C546   C     0.15366   0.84110   0.41202   0.00000  Uiso   1.00
C547   C     0.17948   0.85111   0.08947   0.00000  Uiso   1.00
C548   C     0.14235   0.86550   0.45422   0.00000  Uiso   1.00
C549   C     0.19168   0.87125   0.04721   0.00000  Uiso   1.00
C550   C     0.09507   0.87980   0.47794   0.00000  Uiso   1.00
C551   C     0.11261   0.89081   0.04849   0.00000  Uiso   1.00
C552   C     0.23784   0.88538   0.02518   0.00000  Uiso   1.00
C553   C     0.17547   0.87331   0.47629   0.00000  Uiso   1.00
C554   C     0.15904   0.87616   0.02468   0.00000  Uiso   1.00
C555   C     0.04433   0.92996   0.04378   0.00000  Uiso   1.00
C556   C     0.29339   0.92139   0.45431   0.00000  Uiso   1.00
C557   C     0.13551   0.82642   0.10369   0.00000  Uiso   1.00
C558   C     0.19524   0.81094   0.39723   0.00000  Uiso   1.00
C559   C     0.29387   0.86600   0.11352   0.00000  Uiso   1.00
C560   C     0.03409   0.83738   0.39890   0.00000  Uiso   1.00
C561   C     0.25996   0.96076   0.20603   0.00000  Uiso   1.00
C562   C     0.22203   0.88535   0.45273   0.00000  Uiso   1.00
C563   C     0.07450   0.70236   0.29081   0.00000  Uiso   1.00
C564   C     0.23962   0.70233   0.27903   0.00000  Uiso   1.00
C565   C     0.09695   0.96331   0.21585   0.00000  Uiso   1.00
C566   C     0.30323   0.76983   0.19727   0.00000  Uiso   1.00
C567   C     0.03008   0.90213   0.29556   0.00000  Uiso   1.00
C568   C     0.06272   0.76378   0.20783   0.00000  Uiso   1.00
C569   C     0.26873   0.90048   0.29688   0.00000  Uiso   1.00
C570   C     0.08284   0.89834   0.02352   0.00000  Uiso   1.00
C571   C     0.25140   0.89666   0.47806   0.00000  Uiso   1.00
C572   C     0.21226   0.97885   0.23472   0.00000  Uiso   1.00
C573   C     0.12303   0.68680   0.26141   0.00000  Uiso   1.00
C574   C     0.20643   0.68618   0.25562   0.00000  Uiso   1.00
H575   H     0.02422   0.87806   0.47703   0.00000  Uiso   1.00
H576   H     0.04332   0.68613   0.28970   0.00000  Uiso   1.00
H577   H     0.23360   0.73290   0.29740   0.00000  Uiso   1.00
H578   H     0.10454   0.93311   0.19645   0.00000  Uiso   1.00
H579   H     0.27734   0.77791   0.18205   0.00000  Uiso   1.00
H580   H     0.02044   0.93397   0.29040   0.00000  Uiso   1.00
H581   H     0.05149   0.73290   0.22008   0.00000  Uiso   1.00
H582   H     0.27697   0.93241   0.28647   0.00000  Uiso   1.00
H583   H     0.30243   0.89986   0.03621   0.00000  Uiso   1.00
H584   H     0.10213   0.90159   0.08475   0.00000  Uiso   1.00
H585   H     0.23333   0.89063   0.41596   0.00000  Uiso   1.00
H586   H     0.02750   0.93420   0.08117   0.00000  Uiso   1.00
H587   H     0.31182   0.91611   0.41724   0.00000  Uiso   1.00
H588   H     0.10462   0.83783   0.13255   0.00000  Uiso   1.00
H589   H     0.22582   0.81603   0.40746   0.00000  Uiso   1.00
H590   H     0.26354   0.92912   0.19030   0.00000  Uiso   1.00
N591   N     0.04759   0.83334   0.25001   0.00000  Uiso   1.00
N592   N     0.28574   0.83332   0.24999   0.00000  Uiso   1.00
N593   N     0.32318   0.86471   0.12992   0.00000  Uiso   1.00
N594   N     0.00333   0.82682   0.38667   0.00000  Uiso   1.00
O595   O     0.12846   0.89442   0.25001   0.00000  Uiso   1.00
O596   O     0.30530   0.95039   0.47497   0.00000  Uiso   1.00
O597   O     0.13309   0.79416   0.08146   0.00000  Uiso   1.00
O598   O     0.19440   0.77799   0.37540   0.00000  Uiso   1.00
O599   O     0.29551   0.98182   0.19638   0.00000  Uiso   1.00
O600   O     0.06870   0.73193   0.31929   0.00000  Uiso   1.00
O601   O     0.27218   0.68057   0.28142   0.00000  Uiso   1.00
O602   O     0.06328   0.98410   0.21444   0.00000  Uiso   1.00
O603   O     0.32017   0.73414   0.18888   0.00000  Uiso   1.00
O604   O     0.04970   0.89708   0.32362   0.00000  Uiso   1.00
O605   O     0.10001   0.76683   0.17595   0.00000  Uiso   1.00
O606   O     0.20488   0.77225   0.25000   0.00000  Uiso   1.00
O607   O     0.23389   0.89442   0.33064   0.00000  Uiso   1.00
O608   O     0.20490   0.89441   0.25000   0.00000  Uiso   1.00
O609   O     0.12843   0.77226   0.25000   0.00000  Uiso   1.00
O610   O     0.10661   0.83334   0.31613   0.00000  Uiso   1.00
O611   O     0.22672   0.83333   0.18387   0.00000  Uiso   1.00
O612   O     0.18305   0.83333   0.31612   0.00000  Uiso   1.00
O613   O     0.15028   0.83334   0.18388   0.00000  Uiso   1.00
O614   O     0.03394   0.95426   0.01906   0.00000  Uiso   1.00
Zn615  Zn    0.11562   0.83334   0.25000   0.00000  Uiso   1.00
Zn616  Zn    0.21771   0.83333   0.25000   0.00000  Uiso   1.00
C617   C     0.50204   0.91281   0.24378   0.00000  Uiso   1.00
C618   C     0.46270   0.97987   0.23985   0.00000  Uiso   1.00
C619   C     0.49696   0.70840   0.26191   0.00000  Uiso   1.00
C620   C     0.50474   0.95749   0.23499   0.00000  Uiso   1.00
C621   C     0.65088   0.80148   0.22692   0.00000  Uiso   1.00
C622   C     0.34923   0.86589   0.27158   0.00000  Uiso   1.00
C623   C     0.36489   0.80078   0.22846   0.00000  Uiso   1.00
C624   C     0.63474   0.86544   0.27214   0.00000  Uiso   1.00
C625   C     0.47051   0.83288   0.33799   0.00000  Uiso   1.00
C626   C     0.52938   0.83573   0.16216   0.00000  Uiso   1.00
C627   C     0.45341   0.83902   0.38918   0.00000  Uiso   1.00
C628   C     0.49840   0.75355   0.25531   0.00000  Uiso   1.00
C629   C     0.54540   0.84961   0.11356   0.00000  Uiso   1.00
C630   C     0.39400   0.87102   0.45798   0.00000  Uiso   1.00
C631   C     0.60219   0.88577   0.05007   0.00000  Uiso   1.00
C632   C     0.40571   0.85027   0.41448   0.00000  Uiso   1.00
C633   C     0.59067   0.86733   0.09290   0.00000  Uiso   1.00
C634   C     0.48699   0.84110   0.41202   0.00000  Uiso   1.00
C635   C     0.51282   0.85111   0.08947   0.00000  Uiso   1.00
C636   C     0.47569   0.86550   0.45422   0.00000  Uiso   1.00
C637   C     0.52502   0.87125   0.04721   0.00000  Uiso   1.00
C638   C     0.42840   0.87980   0.47794   0.00000  Uiso   1.00
C639   C     0.44594   0.89081   0.04849   0.00000  Uiso   1.00
C640   C     0.57118   0.88538   0.02518   0.00000  Uiso   1.00
C641   C     0.50880   0.87331   0.47629   0.00000  Uiso   1.00
C642   C     0.49237   0.87616   0.02468   0.00000  Uiso   1.00
C643   C     0.37766   0.92996   0.04378   0.00000  Uiso   1.00
C644   C     0.62672   0.92139   0.45431   0.00000  Uiso   1.00
C645   C     0.46884   0.82642   0.10369   0.00000  Uiso   1.00
C646   C     0.52857   0.81094   0.39723   0.00000  Uiso   1.00
C647   C     0.62720   0.86600   0.11352   0.00000  Uiso   1.00
C648   C     0.36742   0.83738   0.39890   0.00000  Uiso   1.00
C649   C     0.59330   0.96076   0.20603   0.00000  Uiso   1.00
C650   C     0.55536   0.88535   0.45273   0.00000  Uiso   1.00
C651   C     0.40783   0.70236   0.29081   0.00000  Uiso   1.00
C652   C     0.57295   0.70233   0.27903   0.00000  Uiso   1.00
C653   C     0.43028   0.96331   0.21585   0.00000  Uiso   1.00
C654   C     0.63656   0.76983   0.19727   0.00000  Uiso   1.00
C655   C     0.36342   0.90213   0.29556   0.00000  Uiso   1.00
C656   C     0.39605   0.76378   0.20783   0.00000  Uiso   1.00
C657   C     0.60206   0.90048   0.29688   0.00000  Uiso   1.00
C658   C     0.41617   0.89834   0.02352   0.00000  Uiso   1.00
C659   C     0.58473   0.89666   0.47806   0.00000  Uiso   1.00
C660   C     0.54559   0.97885   0.23472   0.00000  Uiso   1.00
C661   C     0.45636   0.68680   0.26141   0.00000  Uiso   1.00
C662   C     0.53976   0.68618   0.25562   0.00000  Uiso   1.00
H663   H     0.35756   0.87806   0.47703   0.00000  Uiso   1.00
H664   H     0.37665   0.68613   0.28970   0.00000  Uiso   1.00
H665   H     0.56693   0.73290   0.29740   0.00000  Uiso   1.00
H666   H     0.43787   0.93311   0.19645   0.00000  Uiso   1.00
H667   H     0.61067   0.77791   0.18205   0.00000  Uiso   1.00
H668   H     0.35378   0.93397   0.29040   0.00000  Uiso   1.00
H669   H     0.38482   0.73290   0.22008   0.00000  Uiso   1.00
H670   H     0.61030   0.93241   0.28647   0.00000  Uiso   1.00
H671   H     0.63576   0.89986   0.03621   0.00000  Uiso   1.00
H672   H     0.43546   0.90159   0.08475   0.00000  Uiso   1.00
H673   H     0.56666   0.89063   0.41596   0.00000  Uiso   1.00
H674   H     0.36083   0.93420   0.08117   0.00000  Uiso   1.00
H675   H     0.64515   0.91611   0.41724   0.00000  Uiso   1.00
H676   H     0.43796   0.83783   0.13255   0.00000  Uiso   1.00
H677   H     0.55916   0.81603   0.40746   0.00000  Uiso   1.00
H678   H     0.59688   0.92912   0.19030   0.00000  Uiso   1.00
N679   N     0.38093   0.83334   0.25001   0.00000  Uiso   1.00
N680   N     0.61907   0.83332   0.24999   0.00000  Uiso   1.00
N681   N     0.65651   0.86471   0.12992   0.00000  Uiso   1.00
N682   N     0.33667   0.82682   0.38667   0.00000  Uiso   1.00
O683   O     0.46179   0.89442   0.25001   0.00000  Uiso   1.00
O684   O     0.63863   0.95039   0.47497   0.00000  Uiso   1.00
O685   O     0.46642   0.79416   0.08146   0.00000  Uiso   1.00
O686   O     0.52774   0.77799   0.37540   0.00000  Uiso   1.00
O687   O     0.62885   0.98182   0.19638   0.00000  Uiso   1.00
O688   O     0.40204   0.73193   0.31929   0.00000  Uiso   1.00
O689   O     0.60552   0.68057   0.28142   0.00000  Uiso   1.00
O690   O     0.39661   0.98410   0.21444   0.00000  Uiso   1.00
O691   O     0.65350   0.73414   0.18888   0.00000  Uiso   1.00
O692   O     0.38303   0.89708   0.32362   0.00000  Uiso   1.00
O693   O     0.43334   0.76683   0.17595   0.00000  Uiso   1.00
O694   O     0.53821   0.77225   0.25000   0.00000  Uiso   1.00
O695   O     0.56722   0.89442   0.33064   0.00000  Uiso   1.00
O696   O     0.53823   0.89441   0.25000   0.00000  Uiso   1.00
O697   O     0.46177   0.77226   0.25000   0.00000  Uiso   1.00
O698   O     0.43994   0.83334   0.31613   0.00000  Uiso   1.00
O699   O     0.56006   0.83333   0.18387   0.00000  Uiso   1.00
O700   O     0.51639   0.83333   0.31612   0.00000  Uiso   1.00
O701   O     0.48361   0.83334   0.18388   0.00000  Uiso   1.00
O702   O     0.36727   0.95426   0.01906   0.00000  Uiso   1.00
Zn703  Zn    0.44896   0.83334   0.25000   0.00000  Uiso   1.00
Zn704  Zn    0.55104   0.83333   0.25000   0.00000  Uiso   1.00
C705   C     0.83537   0.91281   0.24378   0.00000  Uiso   1.00
C706   C     0.79603   0.97987   0.23985   0.00000  Uiso   1.00
C707   C     0.83029   0.70840   0.26191   0.00000  Uiso   1.00
C708   C     0.83808   0.95749   0.23499   0.00000  Uiso   1.00
C709   C     0.98422   0.80148   0.22692   0.00000  Uiso   1.00
C710   C     0.68257   0.86589   0.27158   0.00000  Uiso   1.00
C711   C     0.69823   0.80078   0.22846   0.00000  Uiso   1.00
C712   C     0.96807   0.86544   0.27214   0.00000  Uiso   1.00
C713   C     0.80384   0.83288   0.33799   0.00000  Uiso   1.00
C714   C     0.86272   0.83573   0.16216   0.00000  Uiso   1.00
C715   C     0.78675   0.83902   0.38918   0.00000  Uiso   1.00
C716   C     0.83173   0.75355   0.25531   0.00000  Uiso   1.00
C717   C     0.87874   0.84961   0.11356   0.00000  Uiso   1.00
C718   C     0.72733   0.87102   0.45798   0.00000  Uiso   1.00
C719   C     0.93552   0.88577   0.05007   0.00000  Uiso   1.00
C720   C     0.73904   0.85027   0.41448   0.00000  Uiso   1.00
C721   C     0.92400   0.86733   0.09290   0.00000  Uiso   1.00
C722   C     0.82033   0.84110   0.41202   0.00000  Uiso   1.00
C723   C     0.84615   0.85111   0.08947   0.00000  Uiso   1.00
C724   C     0.80902   0.86550   0.45422   0.00000  Uiso   1.00
C725   C     0.85835   0.87125   0.04721   0.00000  Uiso   1.00
C726   C     0.76174   0.87980   0.47794   0.00000  Uiso   1.00
C727   C     0.77927   0.89081   0.04849   0.00000  Uiso   1.00
C728   C     0.90451   0.88538   0.02518   0.00000  Uiso   1.00
C729   C     0.84214   0.87331   0.47629   0.00000  Uiso   1.00
C730   C     0.82570   0.87616   0.02468   0.00000  Uiso   1.00
C731   C     0.71099   0.92996   0.04378   0.00000  Uiso   1.00
C732   C     0.96006   0.92139   0.45431   0.00000  Uiso   1.00
C733   C     0.80218   0.82642   0.10369   0.00000  Uiso   1.00
C734   C     0.86191   0.81094   0.39723   0.00000  Uiso   1.00
C735   C     0.96053   0.86600   0.11352   0.00000  Uiso   1.00
C736   C     0.70075   0.83738   0.39890   0.00000  Uiso   1.00
C737   C     0.92663   0.96076   0.20603   0.00000  Uiso   1.00
C738   C     0.88870   0.88535   0.45273   0.00000  Uiso   1.00
C739   C     0.74117   0.70236   0.29081   0.00000  Uiso   1.00
C740   C     0.90629   0.70233   0.27903   0.00000  Uiso   1.00
C741   C     0.76361   0.96331   0.21585   0.00000  Uiso   1.00
C742   C     0.96990   0.76983   0.19727   0.00000  Uiso   1.00
C743   C     0.69675   0.90213   0.29556   0.00000  Uiso   1.00
C744   C     0.72938   0.76378   0.20783   0.00000  Uiso   1.00
C745   C     0.93540   0.90048   0.29688   0.00000  Uiso   1.00
C746   C     0.74951   0.89834   0.02352   0.00000  Uiso   1.00
C747   C     0.91806   0.89666   0.47806   0.00000  Uiso   1.00
C748   C     0.87893   0.97885   0.23472   0.00000  Uiso   1.00
C749   C     0.78970   0.68680   0.26141   0.00000  Uiso   1.00
C750   C     0.87310   0.68618   0.25562   0.00000  Uiso   1.00
H751   H     0.69089   0.87806   0.47703   0.00000  Uiso   1.00
H752   H     0.70999   0.68613   0.28970   0.00000  Uiso   1.00
H753   H     0.90026   0.73290   0.29740   0.00000  Uiso   1.00
H754   H     0.77121   0.93311   0.19645   0.00000  Uiso   1.00
H755   H     0.94401   0.77791   0.18205   0.00000  Uiso   1.00
H756   H     0.68711   0.93397   0.29040   0.00000  Uiso   1.00
H757   H     0.71816   0.73290   0.22008   0.00000  Uiso   1.00
H758   H     0.94363   0.93241   0.28647   0.00000  Uiso   1.00
H759   H     0.96909   0.89986   0.03621   0.00000  Uiso   1.00
H760   H     0.76879   0.90159   0.08475   0.00000  Uiso   1.00
H761   H     0.89999   0.89063   0.41596   0.00000  Uiso   1.00
H762   H     0.69416   0.93420   0.08117   0.00000  Uiso   1.00
H763   H     0.97848   0.91611   0.41724   0.00000  Uiso   1.00
H764   H     0.77129   0.83783   0.13255   0.00000  Uiso   1.00
H765   H     0.89249   0.81603   0.40746   0.00000  Uiso   1.00
H766   H     0.93021   0.92912   0.19030   0.00000  Uiso   1.00
N767   N     0.71426   0.83334   0.25001   0.00000  Uiso   1.00
N768   N     0.95241   0.83332   0.24999   0.00000  Uiso   1.00
N769   N     0.98984   0.86471   0.12992   0.00000  Uiso   1.00
N770   N     0.67000   0.82682   0.38667   0.00000  Uiso   1.00
O771   O     0.79512   0.89442   0.25001   0.00000  Uiso   1.00
O772   O     0.97197   0.95039   0.47497   0.00000  Uiso   1.00
O773   O     0.79975   0.79416   0.08146   0.00000  Uiso   1.00
O774   O     0.86107   0.77799   0.37540   0.00000  Uiso   1.00
O775   O     0.96218   0.98182   0.19638   0.00000  Uiso   1.00
O776   O     0.73537   0.73193   0.31929   0.00000  Uiso   1.00
O777   O     0.93885   0.68057   0.28142   0.00000  Uiso   1.00
O778   O     0.72995   0.98410   0.21444   0.00000  Uiso   1.00
O779   O     0.98684   0.73414   0.18888   0.00000  Uiso   1.00
O780   O     0.71636   0.89708   0.32362   0.00000  Uiso   1.00
O781   O     0.76668   0.76683   0.17595   0.00000  Uiso   1.00
O782   O     0.87154   0.77225   0.25000   0.00000  Uiso   1.00
O783   O     0.90056   0.89442   0.33064   0.00000  Uiso   1.00
O784   O     0.87157   0.89441   0.25000   0.00000  Uiso   1.00
O785   O     0.79510   0.77226   0.25000   0.00000  Uiso   1.00
O786   O     0.77328   0.83334   0.31613   0.00000  Uiso   1.00
O787   O     0.89339   0.83333   0.18387   0.00000  Uiso   1.00
O788   O     0.84972   0.83333   0.31612   0.00000  Uiso   1.00
O789   O     0.81695   0.83334   0.18388   0.00000  Uiso   1.00
O790   O     0.70061   0.95426   0.01906   0.00000  Uiso   1.00
Zn791  Zn    0.78229   0.83334   0.25000   0.00000  Uiso   1.00
Zn792  Zn    0.88438   0.83333   0.25000   0.00000  Uiso   1.00
C793   C     0.16870   0.24614   0.74378   0.00000  Uiso   1.00
C794   C     0.12937   0.31320   0.73985   0.00000  Uiso   1.00
C795   C     0.16362   0.04173   0.76191   0.00000  Uiso   1.00
C796   C     0.17141   0.29082   0.73499   0.00000  Uiso   1.00
C797   C     0.31755   0.13482   0.72692   0.00000  Uiso   1.00
C798   C     0.01590   0.19923   0.77158   0.00000  Uiso   1.00
C799   C     0.03156   0.13411   0.72846   0.00000  Uiso   1.00
C800   C     0.30141   0.19877   0.77214   0.00000  Uiso   1.00
C801   C     0.13717   0.16621   0.83799   0.00000  Uiso   1.00
C802   C     0.19605   0.16907   0.66216   0.00000  Uiso   1.00
C803   C     0.12008   0.17235   0.88918   0.00000  Uiso   1.00
C804   C     0.16507   0.08689   0.75531   0.00000  Uiso   1.00
C805   C     0.21207   0.18294   0.61356   0.00000  Uiso   1.00
C806   C     0.06067   0.20435   0.95798   0.00000  Uiso   1.00
C807   C     0.26886   0.21910   0.55007   0.00000  Uiso   1.00
C808   C     0.07238   0.18360   0.91448   0.00000  Uiso   1.00
C809   C     0.25733   0.20066   0.59290   0.00000  Uiso   1.00
C810   C     0.15366   0.17444   0.91202   0.00000  Uiso   1.00
C811   C     0.17948   0.18444   0.58947   0.00000  Uiso   1.00
C812   C     0.14235   0.19884   0.95422   0.00000  Uiso   1.00
C813   C     0.19168   0.20458   0.54721   0.00000  Uiso   1.00
C814   C     0.09507   0.21313   0.97794   0.00000  Uiso   1.00
C815   C     0.11261   0.22414   0.54849   0.00000  Uiso   1.00
C816   C     0.23784   0.21871   0.52518   0.00000  Uiso   1.00
C817   C     0.17547   0.20664   0.97629   0.00000  Uiso   1.00
C818   C     0.15904   0.20949   0.52468   0.00000  Uiso   1.00
C819   C     0.04433   0.26329   0.54378   0.00000  Uiso   1.00
C820   C     0.29339   0.25473   0.95431   0.00000  Uiso   1.00
C821   C     0.13551   0.15976   0.60369   0.00000  Uiso   1.00
C822   C     0.19524   0.14427   0.89723   0.00000  Uiso   1.00
C823   C     0.29387   0.19934   0.61352   0.00000  Uiso   1.00
C824   C     0.03409   0.17071   0.89890   0.00000  Uiso   1.00
C825   C     0.25996   0.29409   0.70603   0.00000  Uiso   1.00
C826   C     0.22203   0.21868   0.95273   0.00000  Uiso   1.00
C827   C     0.07450   0.03569   0.79081   0.00000  Uiso   1.00
C828   C     0.23962   0.03567   0.77903   0.00000  Uiso   1.00
C829   C     0.09695   0.29664   0.71585   0.00000  Uiso   1.00
C830   C     0.30323   0.10316   0.69727   0.00000  Uiso   1.00
C831   C     0.03008   0.23546   0.79556   0.00000  Uiso   1.00
C832   C     0.06272   0.09711   0.70783   0.00000  Uiso   1.00
C833   C     0.26873   0.23381   0.79688   0.00000  Uiso   1.00
C834   C     0.08284   0.23168   0.52352   0.00000  Uiso   1.00
C835   C     0.25140   0.22999   0.97806   0.00000  Uiso   1.00
C836   C     0.21226   0.31219   0.73472   0.00000  Uiso   1.00
C837   C     0.12303   0.02013   0.76141   0.00000  Uiso   1.00
C838   C     0.20643   0.01951   0.75562   0.00000  Uiso   1.00
H839   H     0.02422   0.21139   0.97703   0.00000  Uiso   1.00
H840   H     0.04332   0.01947   0.78970   0.00000  Uiso   1.00
H841   H     0.23360   0.06623   0.79740   0.00000  Uiso   1.00
H842   H     0.10454   0.26644   0.69645   0.00000  Uiso   1.00
H843   H     0.27734   0.11125   0.68205   0.00000  Uiso   1.00
H844   H     0.02044   0.26730   0.79040   0.00000  Uiso   1.00
H845   H     0.05149   0.06623   0.72008   0.00000  Uiso   1.00
H846   H     0.27697   0.26574   0.78647   0.00000  Uiso   1.00
H847   H     0.30243   0.23319   0.53621   0.00000  Uiso   1.00
H848   H     0.10213   0.23493   0.58475   0.00000  Uiso   1.00
H849   H     0.23333   0.22396   0.91596   0.00000  Uiso   1.00
H850   H     0.02750   0.26753   0.58117   0.00000  Uiso   1.00
H851   H     0.31182   0.24945   0.91724   0.00000  Uiso   1.00
H852   H     0.10462   0.17117   0.63255   0.00000  Uiso   1.00
H853   H     0.22582   0.14937   0.90746   0.00000  Uiso   1.00
H854   H     0.26354   0.26245   0.69030   0.00000  Uiso   1.00
N855   N     0.04759   0.16668   0.75001   0.00000  Uiso   1.00
N856   N     0.28574   0.16666   0.74999   0.00000  Uiso   1.00
N857   N     0.32318   0.19804   0.62992   0.00000  Uiso   1.00
N858   N     0.00333   0.16016   0.88667   0.00000  Uiso   1.00
O859   O     0.12846   0.22775   0.75001   0.00000  Uiso   1.00
O860   O     0.30530   0.28372   0.97497   0.00000  Uiso   1.00
O861   O     0.13309   0.12749   0.58146   0.00000  Uiso   1.00
O862   O     0.19440   0.11132   0.87540   0.00000  Uiso   1.00
O863   O     0.29551   0.31515   0.69638   0.00000  Uiso   1.00
O864   O     0.06870   0.06526   0.81929   0.00000  Uiso   1.00
O865   O     0.27218   0.01390   0.78142   0.00000  Uiso   1.00
O866   O     0.06328   0.31744   0.71444   0.00000  Uiso   1.00
O867   O     0.32017   0.06747   0.68888   0.00000  Uiso   1.00
O868   O     0.04970   0.23041   0.82362   0.00000  Uiso   1.00
O869   O     0.10001   0.10016   0.67595   0.00000  Uiso   1.00
O870   O     0.20488   0.10558   0.75000   0.00000  Uiso   1.00
O871   O     0.23389   0.22776   0.83064   0.00000  Uiso   1.00
O872   O     0.20490   0.22774   0.75000   0.00000  Uiso   1.00
O873   O     0.12843   0.10559   0.75000   0.00000  Uiso   1.00
O874   O     0.10661   0.16667   0.81613   0.00000  Uiso   1.00
O875   O     0.22672   0.16666   0.68387   0.00000  Uiso   1.00
O876   O     0.18305   0.16666   0.81612   0.00000  Uiso   1.00
O877   O     0.15028   0.16667   0.68388   0.00000  Uiso   1.00
O878   O     0.03394   0.28760   0.51906   0.00000  Uiso   1.00
Zn879  Zn    0.11562   0.16667   0.75000   0.00000  Uiso   1.00
Zn880  Zn    0.21771   0.16666   0.75000   0.00000  Uiso   1.00
C881   C     0.50204   0.24614   0.74378   0.00000  Uiso   1.00
C882   C     0.46270   0.31320   0.73985   0.00000  Uiso   1.00
C883   C     0.49696   0.04173   0.76191   0.00000  Uiso   1.00
C884   C     0.50474   0.29082   0.73499   0.00000  Uiso   1.00
C885   C     0.65088   0.13482   0.72692   0.00000  Uiso   1.00
C886   C     0.34923   0.19923   0.77158   0.00000  Uiso   1.00
C887   C     0.36489   0.13411   0.72846   0.00000  Uiso   1.00
C888   C     0.63474   0.19877   0.77214   0.00000  Uiso   1.00
C889   C     0.47051   0.16621   0.83799   0.00000  Uiso   1.00
C890   C     0.52938   0.16907   0.66216   0.00000  Uiso   1.00
C891   C     0.45341   0.17235   0.88918   0.00000  Uiso   1.00
C892   C     0.49840   0.08689   0.75531   0.00000  Uiso   1.00
C893   C     0.54540   0.18294   0.61356   0.00000  Uiso   1.00
C894   C     0.39400   0.20435   0.95798   0.00000  Uiso   1.00
C895   C     0.60219   0.21910   0.55007   0.00000  Uiso   1.00
C896   C     0.40571   0.18360   0.91448   0.00000  Uiso   1.00
C897   C     0.59067   0.20066   0.59290   0.00000  Uiso   1.00
C898   C     0.48699   0.17444   0.91202   0.00000  Uiso   1.00
C899   C     0.51282   0.18444   0.58947   0.00000  Uiso   1.00
C900   C     0.47569   0.19884   0.95422   0.00000  Uiso   1.00
C901   C     0.52502   0.20458   0.54721   0.00000  Uiso   1.00
C902   C     0.42840   0.21313   0.97794   0.00000  Uiso   1.00
C903   C     0.44594   0.22414   0.54849   0.00000  Uiso   1.00
C904   C     0.57118   0.21871   0.52518   0.00000  Uiso   1.00
C905   C     0.50880   0.20664   0.97629   0.00000  Uiso   1.00
C906   C     0.49237   0.20949   0.52468   0.00000  Uiso   1.00
C907   C     0.37766   0.26329   0.54378   0.00000  Uiso   1.00
C908   C     0.62672   0.25473   0.95431   0.00000  Uiso   1.00
C909   C     0.46884   0.15976   0.60369   0.00000  Uiso   1.00
C910   C     0.52857   0.14427   0.89723   0.00000  Uiso   1.00
C911   C     0.62720   0.19934   0.61352   0.00000  Uiso   1.00
C912   C     0.36742   0.17071   0.89890   0.00000  Uiso   1.00
C913   C     0.59330   0.29409   0.70603   0.00000  Uiso   1.00
C914   C     0.55536   0.21868   0.95273   0.00000  Uiso   1.00
C915   C     0.40783   0.03569   0.79081   0.00000  Uiso   1.00
C916   C     0.57295   0.03567   0.77903   0.00000  Uiso   1.00
C917   C     0.43028   0.29664   0.71585   0.00000  Uiso   1.00
C918   C     0.63656   0.10316   0.69727   0.00000  Uiso   1.00
C919   C     0.36342   0.23546   0.79556   0.00000  Uiso   1.00
C920   C     0.39605   0.09711   0.70783   0.00000  Uiso   1.00
C921   C     0.60206   0.23381   0.79688   0.00000  Uiso   1.00
C922   C     0.41617   0.23168   0.52352   0.00000  Uiso   1.00
C923   C     0.58473   0.22999   0.97806   0.00000  Uiso   1.00
C924   C     0.54559   0.31219   0.73472   0.00000  Uiso   1.00
C925   C     0.45636   0.02013   0.76141   0.00000  Uiso   1.00
C926   C     0.53976   0.01951   0.75562   0.00000  Uiso   1.00
H927   H     0.35756   0.21139   0.97703   0.00000  Uiso   1.00
H928   H     0.37665   0.01947   0.78970   0.00000  Uiso   1.00
H929   H     0.56693   0.06623   0.79740   0.00000  Uiso   1.00
H930   H     0.43787   0.26644   0.69645   0.00000  Uiso   1.00
H931   H     0.61067   0.11125   0.68205   0.00000  Uiso   1.00
H932   H     0.35378   0.26730   0.79040   0.00000  Uiso   1.00
H933   H     0.38482   0.06623   0.72008   0.00000  Uiso   1.00
H934   H     0.61030   0.26574   0.78647   0.00000  Uiso   1.00
H935   H     0.63576   0.23319   0.53621   0.00000  Uiso   1.00
H936   H     0.43546   0.23493   0.58475   0.00000  Uiso   1.00
H937   H     0.56666   0.22396   0.91596   0.00000  Uiso   1.00
H938   H     0.36083   0.26753   0.58117   0.00000  Uiso   1.00
H939   H     0.64515   0.24945   0.91724   0.00000  Uiso   1.00
H940   H     0.43796   0.17117   0.63255   0.00000  Uiso   1.00
H941   H     0.55916   0.14937   0.90746   0.00000  Uiso   1.00
H942   H     0.59688   0.26245   0.69030   0.00000  Uiso   1.00
N943   N     0.38093   0.16668   0.75001   0.00000  Uiso   1.00
N944   N     0.61907   0.16666   0.74999   0.00000  Uiso   1.00
N945   N     0.65651   0.19804   0.62992   0.00000  Uiso   1.00
N946   N     0.33667   0.16016   0.88667   0.00000  Uiso   1.00
O947   O     0.46179   0.22775   0.75001   0.00000  Uiso   1.00
O948   O     0.63863   0.28372   0.97497   0.00000  Uiso   1.00
O949   O     0.46642   0.12749   0.58146   0.00000  Uiso   1.00
O950   O     0.52774   0.11132   0.87540   0.00000  Uiso   1.00
O951   O     0.62885   0.31515   0.69638   0.00000  Uiso   1.00
O952   O     0.40204   0.06526   0.81929   0.00000  Uiso   1.00
O953   O     0.60552   0.01390   0.78142   0.00000  Uiso   1.00
O954   O     0.39661   0.31744   0.71444   0.00000  Uiso   1.00
O955   O     0.65350   0.06747   0.68888   0.00000  Uiso   1.00
O956   O     0.38303   0.23041   0.82362   0.00000  Uiso   1.00
O957   O     0.43334   0.10016   0.67595   0.00000  Uiso   1.00
O958   O     0.53821   0.10558   0.75000   0.00000  Uiso   1.00
O959   O     0.56722   0.22776   0.83064   0.00000  Uiso   1.00
O960   O     0.53823   0.22774   0.75000   0.00000  Uiso   1.00
O961   O     0.46177   0.10559   0.75000   0.00000  Uiso   1.00
O962   O     0.43994   0.16667   0.81613   0.00000  Uiso   1.00
O963   O     0.56006   0.16666   0.68387   0.00000  Uiso   1.00
O964   O     0.51639   0.16666   0.81612   0.00000  Uiso   1.00
O965   O     0.48361   0.16667   0.68388   0.00000  Uiso   1.00
O966   O     0.36727   0.28760   0.51906   0.00000  Uiso   1.00
Zn967  Zn    0.44896   0.16667   0.75000   0.00000  Uiso   1.00
Zn968  Zn    0.55104   0.16666   0.75000   0.00000  Uiso   1.00
C969   C     0.83537   0.24614   0.74378   0.00000  Uiso   1.00
C970   C     0.79603   0.31320   0.73985   0.00000  Uiso   1.00
C971   C     0.83029   0.04173   0.76191   0.00000  Uiso   1.00
C972   C     0.83808   0.29082   0.73499   0.00000  Uiso   1.00
C973   C     0.98422   0.13482   0.72692   0.00000  Uiso   1.00
C974   C     0.68257   0.19923   0.77158   0.00000  Uiso   1.00
C975   C     0.69823   0.13411   0.72846   0.00000  Uiso   1.00
C976   C     0.96807   0.19877   0.77214   0.00000  Uiso   1.00
C977   C     0.80384   0.16621   0.83799   0.00000  Uiso   1.00
C978   C     0.86272   0.16907   0.66216   0.00000  Uiso   1.00
C979   C     0.78675   0.17235   0.88918   0.00000  Uiso   1.00
C980   C     0.83173   0.08689   0.75531   0.00000  Uiso   1.00
C981   C     0.87874   0.18294   0.61356   0.00000  Uiso   1.00
C982   C     0.72733   0.20435   0.95798   0.00000  Uiso   1.00
C983   C     0.93552   0.21910   0.55007   0.00000  Uiso   1.00
C984   C     0.73904   0.18360   0.91448   0.00000  Uiso   1.00
C985   C     0.92400   0.20066   0.59290   0.00000  Uiso   1.00
C986   C     0.82033   0.17444   0.91202   0.00000  Uiso   1.00
C987   C     0.84615   0.18444   0.58947   0.00000  Uiso   1.00
C988   C     0.80902   0.19884   0.95422   0.00000  Uiso   1.00
C989   C     0.85835   0.20458   0.54721   0.00000  Uiso   1.00
C990   C     0.76174   0.21313   0.97794   0.00000  Uiso   1.00
C991   C     0.77927   0.22414   0.54849   0.00000  Uiso   1.00
C992   C     0.90451   0.21871   0.52518   0.00000  Uiso   1.00
C993   C     0.84214   0.20664   0.97629   0.00000  Uiso   1.00
C994   C     0.82570   0.20949   0.52468   0.00000  Uiso   1.00
C995   C     0.71099   0.26329   0.54378   0.00000  Uiso   1.00
C996   C     0.96006   0.25473   0.95431   0.00000  Uiso   1.00
C997   C     0.80218   0.15976   0.60369   0.00000  Uiso   1.00
C998   C     0.86191   0.14427   0.89723   0.00000  Uiso   1.00
C999   C     0.96053   0.19934   0.61352   0.00000  Uiso   1.00
C1000  C     0.70075   0.17071   0.89890   0.00000  Uiso   1.00
C1001  C     0.92663   0.29409   0.70603   0.00000  Uiso   1.00
C1002  C     0.88870   0.21868   0.95273   0.00000  Uiso   1.00
C1003  C     0.74117   0.03569   0.79081   0.00000  Uiso   1.00
C1004  C     0.90629   0.03567   0.77903   0.00000  Uiso   1.00
C1005  C     0.76361   0.29664   0.71585   0.00000  Uiso   1.00
C1006  C     0.96990   0.10316   0.69727   0.00000  Uiso   1.00
C1007  C     0.69675   0.23546   0.79556   0.00000  Uiso   1.00
C1008  C     0.72938   0.09711   0.70783   0.00000  Uiso   1.00
C1009  C     0.93540   0.23381   0.79688   0.00000  Uiso   1.00
C1010  C     0.74951   0.23168   0.52352   0.00000  Uiso   1.00
C1011  C     0.91806   0.22999   0.97806   0.00000  Uiso   1.00
C1012  C     0.87893   0.31219   0.73472   0.00000  Uiso   1.00
C1013  C     0.78970   0.02013   0.76141   0.00000  Uiso   1.00
C1014  C     0.87310   0.01951   0.75562   0.00000  Uiso   1.00
H1015  H     0.69089   0.21139   0.97703   0.00000  Uiso   1.00
H1016  H     0.70999   0.01947   0.78970   0.00000  Uiso   1.00
H1017  H     0.90026   0.06623   0.79740   0.00000  Uiso   1.00
H1018  H     0.77121   0.26644   0.69645   0.00000  Uiso   1.00
H1019  H     0.94401   0.11125   0.68205   0.00000  Uiso   1.00
H1020  H     0.68711   0.26730   0.79040   0.00000  Uiso   1.00
H1021  H     0.71816   0.06623   0.72008   0.00000  Uiso   1.00
H1022  H     0.94363   0.26574   0.78647   0.00000  Uiso   1.00
H1023  H     0.96909   0.23319   0.53621   0.00000  Uiso   1.00
H1024  H     0.76879   0.23493   0.58475   0.00000  Uiso   1.00
H1025  H     0.89999   0.22396   0.91596   0.00000  Uiso   1.00
H1026  H     0.69416   0.26753   0.58117   0.00000  Uiso   1.00
H1027  H     0.97848   0.24945   0.91724   0.00000  Uiso   1.00
H1028  H     0.77129   0.17117   0.63255   0.00000  Uiso   1.00
H1029  H     0.89249   0.14937   0.90746   0.00000  Uiso   1.00
H1030  H     0.93021   0.26245   0.69030   0.00000  Uiso   1.00
N1031  N     0.71426   0.16668   0.75001   0.00000  Uiso   1.00
N1032  N     0.95241   0.16666   0.74999   0.00000  Uiso   1.00
N1033  N     0.98984   0.19804   0.62992   0.00000  Uiso   1.00
N1034  N     0.67000   0.16016   0.88667   0.00000  Uiso   1.00
O1035  O     0.79512   0.22775   0.75001   0.00000  Uiso   1.00
O1036  O     0.97197   0.28372   0.97497   0.00000  Uiso   1.00
O1037  O     0.79975   0.12749   0.58146   0.00000  Uiso   1.00
O1038  O     0.86107   0.11132   0.87540   0.00000  Uiso   1.00
O1039  O     0.96218   0.31515   0.69638   0.00000  Uiso   1.00
O1040  O     0.73537   0.06526   0.81929   0.00000  Uiso   1.00
O1041  O     0.93885   0.01390   0.78142   0.00000  Uiso   1.00
O1042  O     0.72995   0.31744   0.71444   0.00000  Uiso   1.00
O1043  O     0.98684   0.06747   0.68888   0.00000  Uiso   1.00
O1044  O     0.71636   0.23041   0.82362   0.00000  Uiso   1.00
O1045  O     0.76668   0.10016   0.67595   0.00000  Uiso   1.00
O1046  O     0.87154   0.10558   0.75000   0.00000  Uiso   1.00
O1047  O     0.90056   0.22776   0.83064   0.00000  Uiso   1.00
O1048  O     0.87157   0.22774   0.75000   0.00000  Uiso   1.00
O1049  O     0.79510   0.10559   0.75000   0.00000  Uiso   1.00
O1050  O     0.77328   0.16667   0.81613   0.00000  Uiso   1.00
O1051  O     0.89339   0.16666   0.68387   0.00000  Uiso   1.00
O1052  O     0.84972   0.16666   0.81612   0.00000  Uiso   1.00
O1053  O     0.81695   0.16667   0.68388   0.00000  Uiso   1.00
O1054  O     0.70061   0.28760   0.51906   0.00000  Uiso   1.00
Zn1055 Zn    0.78229   0.16667   0.75000   0.00000  Uiso   1.00
Zn1056 Zn    0.88438   0.16666   0.75000   0.00000  Uiso   1.00
C1057  C     0.16870   0.57947   0.74378   0.00000  Uiso   1.00
C1058  C     0.12937   0.64654   0.73985   0.00000  Uiso   1.00
C1059  C     0.16362   0.37507   0.76191   0.00000  Uiso   1.00
C1060  C     0.17141   0.62415   0.73499   0.00000  Uiso   1.00
C1061  C     0.31755   0.46815   0.72692   0.00000  Uiso   1.00
C1062  C     0.01590   0.53256   0.77158   0.00000  Uiso   1.00
C1063  C     0.03156   0.46744   0.72846   0.00000  Uiso   1.00
C1064  C     0.30141   0.53210   0.77214   0.00000  Uiso   1.00
C1065  C     0.13717   0.49954   0.83799   0.00000  Uiso   1.00
C1066  C     0.19605   0.50240   0.66216   0.00000  Uiso   1.00
C1067  C     0.12008   0.50569   0.88918   0.00000  Uiso   1.00
C1068  C     0.16507   0.42022   0.75531   0.00000  Uiso   1.00
C1069  C     0.21207   0.51628   0.61356   0.00000  Uiso   1.00
C1070  C     0.06067   0.53769   0.95798   0.00000  Uiso   1.00
C1071  C     0.26886   0.55243   0.55007   0.00000  Uiso   1.00
C1072  C     0.07238   0.51694   0.91448   0.00000  Uiso   1.00
C1073  C     0.25733   0.53399   0.59290   0.00000  Uiso   1.00
C1074  C     0.15366   0.50777   0.91202   0.00000  Uiso   1.00
C1075  C     0.17948   0.51777   0.58947   0.00000  Uiso   1.00
C1076  C     0.14235   0.53217   0.95422   0.00000  Uiso   1.00
C1077  C     0.19168   0.53792   0.54721   0.00000  Uiso   1.00
C1078  C     0.09507   0.54647   0.97794   0.00000  Uiso   1.00
C1079  C     0.11261   0.55748   0.54849   0.00000  Uiso   1.00
C1080  C     0.23784   0.55205   0.52518   0.00000  Uiso   1.00
C1081  C     0.17547   0.53998   0.97629   0.00000  Uiso   1.00
C1082  C     0.15904   0.54283   0.52468   0.00000  Uiso   1.00
C1083  C     0.04433   0.59663   0.54378   0.00000  Uiso   1.00
C1084  C     0.29339   0.58806   0.95431   0.00000  Uiso   1.00
C1085  C     0.13551   0.49309   0.60369   0.00000  Uiso   1.00
C1086  C     0.19524   0.47760   0.89723   0.00000  Uiso   1.00
C1087  C     0.29387   0.53267   0.61352   0.00000  Uiso   1.00
C1088  C     0.03409   0.50404   0.89890   0.00000  Uiso   1.00
C1089  C     0.25996   0.62742   0.70603   0.00000  Uiso   1.00
C1090  C     0.22203   0.55201   0.95273   0.00000  Uiso   1.00
C1091  C     0.07450   0.36903   0.79081   0.00000  Uiso   1.00
C1092  C     0.23962   0.36900   0.77903   0.00000  Uiso   1.00
C1093  C     0.09695   0.62997   0.71585   0.00000  Uiso   1.00
C1094  C     0.30323   0.43649   0.69727   0.00000  Uiso   1.00
C1095  C     0.03008   0.56879   0.79556   0.00000  Uiso   1.00
C1096  C     0.06272   0.43045   0.70783   0.00000  Uiso   1.00
C1097  C     0.26873   0.56715   0.79688   0.00000  Uiso   1.00
C1098  C     0.08284   0.56501   0.52352   0.00000  Uiso   1.00
C1099  C     0.25140   0.56332   0.97806   0.00000  Uiso   1.00
C1100  C     0.21226   0.64552   0.73472   0.00000  Uiso   1.00
C1101  C     0.12303   0.35347   0.76141   0.00000  Uiso   1.00
C1102  C     0.20643   0.35285   0.75562   0.00000  Uiso   1.00
H1103  H     0.02422   0.54473   0.97703   0.00000  Uiso   1.00
H1104  H     0.04332   0.35280   0.78970   0.00000  Uiso   1.00
H1105  H     0.23360   0.39956   0.79740   0.00000  Uiso   1.00
H1106  H     0.10454   0.59978   0.69645   0.00000  Uiso   1.00
H1107  H     0.27734   0.44458   0.68205   0.00000  Uiso   1.00
H1108  H     0.02044   0.60064   0.79040   0.00000  Uiso   1.00
H1109  H     0.05149   0.39956   0.72008   0.00000  Uiso   1.00
H1110  H     0.27697   0.59908   0.78647   0.00000  Uiso   1.00
H1111  H     0.30243   0.56652   0.53621   0.00000  Uiso   1.00
H1112  H     0.10213   0.56826   0.58475   0.00000  Uiso   1.00
H1113  H     0.23333   0.55729   0.91596   0.00000  Uiso   1.00
H1114  H     0.02750   0.60087   0.58117   0.00000  Uiso   1.00
H1115  H     0.31182   0.58278   0.91724   0.00000  Uiso   1.00
H1116  H     0.10462   0.50450   0.63255   0.00000  Uiso   1.00
H1117  H     0.22582   0.48270   0.90746   0.00000  Uiso   1.00
H1118  H     0.26354   0.59579   0.69030   0.00000  Uiso   1.00
N1119  N     0.04759   0.50001   0.75001   0.00000  Uiso   1.00
N1120  N     0.28574   0.49999   0.74999   0.00000  Uiso   1.00
N1121  N     0.32318   0.53138   0.62992   0.00000  Uiso   1.00
N1122  N     0.00333   0.49349   0.88667   0.00000  Uiso   1.00
O1123  O     0.12846   0.56108   0.75001   0.00000  Uiso   1.00
O1124  O     0.30530   0.61706   0.97497   0.00000  Uiso   1.00
O1125  O     0.13309   0.46082   0.58146   0.00000  Uiso   1.00
O1126  O     0.19440   0.44466   0.87540   0.00000  Uiso   1.00
O1127  O     0.29551   0.64849   0.69638   0.00000  Uiso   1.00
O1128  O     0.06870   0.39859   0.81929   0.00000  Uiso   1.00
O1129  O     0.27218   0.34724   0.78142   0.00000  Uiso   1.00
O1130  O     0.06328   0.65077   0.71444   0.00000  Uiso   1.00
O1131  O     0.32017   0.40080   0.68888   0.00000  Uiso   1.00
O1132  O     0.04970   0.56374   0.82362   0.00000  Uiso   1.00
O1133  O     0.10001   0.43349   0.67595   0.00000  Uiso   1.00
O1134  O     0.20488   0.43892   0.75000   0.00000  Uiso   1.00
O1135  O     0.23389   0.56109   0.83064   0.00000  Uiso   1.00
O1136  O     0.20490   0.56107   0.75000   0.00000  Uiso   1.00
O1137  O     0.12843   0.43893   0.75000   0.00000  Uiso   1.00
O1138  O     0.10661   0.50001   0.81613   0.00000  Uiso   1.00
O1139  O     0.22672   0.49999   0.68387   0.00000  Uiso   1.00
O1140  O     0.18305   0.50000   0.81612   0.00000  Uiso   1.00
O1141  O     0.15028   0.50000   0.68388   0.00000  Uiso   1.00
O1142  O     0.03394   0.62093   0.51906   0.00000  Uiso   1.00
Zn1143 Zn    0.11562   0.50001   0.75000   0.00000  Uiso   1.00
Zn1144 Zn    0.21771   0.49999   0.75000   0.00000  Uiso   1.00
C1145  C     0.50204   0.57947   0.74378   0.00000  Uiso   1.00
C1146  C     0.46270   0.64654   0.73985   0.00000  Uiso   1.00
C1147  C     0.49696   0.37507   0.76191   0.00000  Uiso   1.00
C1148  C     0.50474   0.62415   0.73499   0.00000  Uiso   1.00
C1149  C     0.65088   0.46815   0.72692   0.00000  Uiso   1.00
C1150  C     0.34923   0.53256   0.77158   0.00000  Uiso   1.00
C1151  C     0.36489   0.46744   0.72846   0.00000  Uiso   1.00
C1152  C     0.63474   0.53210   0.77214   0.00000  Uiso   1.00
C1153  C     0.47051   0.49954   0.83799   0.00000  Uiso   1.00
C1154  C     0.52938   0.50240   0.66216   0.00000  Uiso   1.00
C1155  C     0.45341   0.50569   0.88918   0.00000  Uiso   1.00
C1156  C     0.49840   0.42022   0.75531   0.00000  Uiso   1.00
C1157  C     0.54540   0.51628   0.61356   0.00000  Uiso   1.00
C1158  C     0.39400   0.53769   0.95798   0.00000  Uiso   1.00
C1159  C     0.60219   0.55243   0.55007   0.00000  Uiso   1.00
C1160  C     0.40571   0.51694   0.91448   0.00000  Uiso   1.00
C1161  C     0.59067   0.53399   0.59290   0.00000  Uiso   1.00
C1162  C     0.48699   0.50777   0.91202   0.00000  Uiso   1.00
C1163  C     0.51282   0.51777   0.58947   0.00000  Uiso   1.00
C1164  C     0.47569   0.53217   0.95422   0.00000  Uiso   1.00
C1165  C     0.52502   0.53792   0.54721   0.00000  Uiso   1.00
C1166  C     0.42840   0.54647   0.97794   0.00000  Uiso   1.00
C1167  C     0.44594   0.55748   0.54849   0.00000  Uiso   1.00
C1168  C     0.57118   0.55205   0.52518   0.00000  Uiso   1.00
C1169  C     0.50880   0.53998   0.97629   0.00000  Uiso   1.00
C1170  C     0.49237   0.54283   0.52468   0.00000  Uiso   1.00
C1171  C     0.37766   0.59663   0.54378   0.00000  Uiso   1.00
C1172  C     0.62672   0.58806   0.95431   0.00000  Uiso   1.00
C1173  C     0.46884   0.49309   0.60369   0.00000  Uiso   1.00
C1174  C     0.52857   0.47760   0.89723   0.00000  Uiso   1.00
C1175  C     0.62720   0.53267   0.61352   0.00000  Uiso   1.00
C1176  C     0.36742   0.50404   0.89890   0.00000  Uiso   1.00
C1177  C     0.59330   0.62742   0.70603   0.00000  Uiso   1.00
C1178  C     0.55536   0.55201   0.95273   0.00000  Uiso   1.00
C1179  C     0.40783   0.36903   0.79081   0.00000  Uiso   1.00
C1180  C     0.57295   0.36900   0.77903   0.00000  Uiso   1.00
C1181  C     0.43028   0.62997   0.71585   0.00000  Uiso   1.00
C1182  C     0.63656   0.43649   0.69727   0.00000  Uiso   1.00
C1183  C     0.36342   0.56879   0.79556   0.00000  Uiso   1.00
C1184  C     0.39605   0.43045   0.70783   0.00000  Uiso   1.00
C1185  C     0.60206   0.56715   0.79688   0.00000  Uiso   1.00
C1186  C     0.41617   0.56501   0.52352   0.00000  Uiso   1.00
C1187  C     0.58473   0.56332   0.97806   0.00000  Uiso   1.00
C1188  C     0.54559   0.64552   0.73472   0.00000  Uiso   1.00
C1189  C     0.45636   0.35347   0.76141   0.00000  Uiso   1.00
C1190  C     0.53976   0.35285   0.75562   0.00000  Uiso   1.00
H1191  H     0.35756   0.54473   0.97703   0.00000  Uiso   1.00
H1192  H     0.37665   0.35280   0.78970   0.00000  Uiso   1.00
H1193  H     0.56693   0.39956   0.79740   0.00000  Uiso   1.00
H1194  H     0.43787   0.59978   0.69645   0.00000  Uiso   1.00
H1195  H     0.61067   0.44458   0.68205   0.00000  Uiso   1.00
H1196  H     0.35378   0.60064   0.79040   0.00000  Uiso   1.00
H1197  H     0.38482   0.39956   0.72008   0.00000  Uiso   1.00
H1198  H     0.61030   0.59908   0.78647   0.00000  Uiso   1.00
H1199  H     0.63576   0.56652   0.53621   0.00000  Uiso   1.00
H1200  H     0.43546   0.56826   0.58475   0.00000  Uiso   1.00
H1201  H     0.56666   0.55729   0.91596   0.00000  Uiso   1.00
H1202  H     0.36083   0.60087   0.58117   0.00000  Uiso   1.00
H1203  H     0.64515   0.58278   0.91724   0.00000  Uiso   1.00
H1204  H     0.43796   0.50450   0.63255   0.00000  Uiso   1.00
H1205  H     0.55916   0.48270   0.90746   0.00000  Uiso   1.00
H1206  H     0.59688   0.59579   0.69030   0.00000  Uiso   1.00
N1207  N     0.38093   0.50001   0.75001   0.00000  Uiso   1.00
N1208  N     0.61907   0.49999   0.74999   0.00000  Uiso   1.00
N1209  N     0.65651   0.53138   0.62992   0.00000  Uiso   1.00
N1210  N     0.33667   0.49349   0.88667   0.00000  Uiso   1.00
O1211  O     0.46179   0.56108   0.75001   0.00000  Uiso   1.00
O1212  O     0.63863   0.61706   0.97497   0.00000  Uiso   1.00
O1213  O     0.46642   0.46082   0.58146   0.00000  Uiso   1.00
O1214  O     0.52774   0.44466   0.87540   0.00000  Uiso   1.00
O1215  O     0.62885   0.64849   0.69638   0.00000  Uiso   1.00
O1216  O     0.40204   0.39859   0.81929   0.00000  Uiso   1.00
O1217  O     0.60552   0.34724   0.78142   0.00000  Uiso   1.00
O1218  O     0.39661   0.65077   0.71444   0.00000  Uiso   1.00
O1219  O     0.65350   0.40080   0.68888   0.00000  Uiso   1.00
O1220  O     0.38303   0.56374   0.82362   0.00000  Uiso   1.00
O1221  O     0.43334   0.43349   0.67595   0.00000  Uiso   1.00
O1222  O     0.53821   0.43892   0.75000   0.00000  Uiso   1.00
O1223  O     0.56722   0.56109   0.83064   0.00000  Uiso   1.00
O1224  O     0.53823   0.56107   0.75000   0.00000  Uiso   1.00
O1225  O     0.46177   0.43893   0.75000   0.00000  Uiso   1.00
O1226  O     0.43994   0.50001   0.81613   0.00000  Uiso   1.00
O1227  O     0.56006   0.49999   0.68387   0.00000  Uiso   1.00
O1228  O     0.51639   0.50000   0.81612   0.00000  Uiso   1.00
O1229  O     0.48361   0.50000   0.68388   0.00000  Uiso   1.00
O1230  O     0.36727   0.62093   0.51906   0.00000  Uiso   1.00
Zn1231 Zn    0.44896   0.50001   0.75000   0.00000  Uiso   1.00
Zn1232 Zn    0.55104   0.49999   0.75000   0.00000  Uiso   1.00
C1233  C     0.83537   0.57947   0.74378   0.00000  Uiso   1.00
C1234  C     0.79603   0.64654   0.73985   0.00000  Uiso   1.00
C1235  C     0.83029   0.37507   0.76191   0.00000  Uiso   1.00
C1236  C     0.83808   0.62415   0.73499   0.00000  Uiso   1.00
C1237  C     0.98422   0.46815   0.72692   0.00000  Uiso   1.00
C1238  C     0.68257   0.53256   0.77158   0.00000  Uiso   1.00
C1239  C     0.69823   0.46744   0.72846   0.00000  Uiso   1.00
C1240  C     0.96807   0.53210   0.77214   0.00000  Uiso   1.00
C1241  C     0.80384   0.49954   0.83799   0.00000  Uiso   1.00
C1242  C     0.86272   0.50240   0.66216   0.00000  Uiso   1.00
C1243  C     0.78675   0.50569   0.88918   0.00000  Uiso   1.00
C1244  C     0.83173   0.42022   0.75531   0.00000  Uiso   1.00
C1245  C     0.87874   0.51628   0.61356   0.00000  Uiso   1.00
C1246  C     0.72733   0.53769   0.95798   0.00000  Uiso   1.00
C1247  C     0.93552   0.55243   0.55007   0.00000  Uiso   1.00
C1248  C     0.73904   0.51694   0.91448   0.00000  Uiso   1.00
C1249  C     0.92400   0.53399   0.59290   0.00000  Uiso   1.00
C1250  C     0.82033   0.50777   0.91202   0.00000  Uiso   1.00
C1251  C     0.84615   0.51777   0.58947   0.00000  Uiso   1.00
C1252  C     0.80902   0.53217   0.95422   0.00000  Uiso   1.00
C1253  C     0.85835   0.53792   0.54721   0.00000  Uiso   1.00
C1254  C     0.76174   0.54647   0.97794   0.00000  Uiso   1.00
C1255  C     0.77927   0.55748   0.54849   0.00000  Uiso   1.00
C1256  C     0.90451   0.55205   0.52518   0.00000  Uiso   1.00
C1257  C     0.84214   0.53998   0.97629   0.00000  Uiso   1.00
C1258  C     0.82570   0.54283   0.52468   0.00000  Uiso   1.00
C1259  C     0.71099   0.59663   0.54378   0.00000  Uiso   1.00
C1260  C     0.96006   0.58806   0.95431   0.00000  Uiso   1.00
C1261  C     0.80218   0.49309   0.60369   0.00000  Uiso   1.00
C1262  C     0.86191   0.47760   0.89723   0.00000  Uiso   1.00
C1263  C     0.96053   0.53267   0.61352   0.00000  Uiso   1.00
C1264  C     0.70075   0.50404   0.89890   0.00000  Uiso   1.00
C1265  C     0.92663   0.62742   0.70603   0.00000  Uiso   1.00
C1266  C     0.88870   0.55201   0.95273   0.00000  Uiso   1.00
C1267  C     0.74117   0.36903   0.79081   0.00000  Uiso   1.00
C1268  C     0.90629   0.36900   0.77903   0.00000  Uiso   1.00
C1269  C     0.76361   0.62997   0.71585   0.00000  Uiso   1.00
C1270  C     0.96990   0.43649   0.69727   0.00000  Uiso   1.00
C1271  C     0.69675   0.56879   0.79556   0.00000  Uiso   1.00
C1272  C     0.72938   0.43045   0.70783   0.00000  Uiso   1.00
C1273  C     0.93540   0.56715   0.79688   0.00000  Uiso   1.00
C1274  C     0.74951   0.56501   0.52352   0.00000  Uiso   1.00
C1275  C     0.91806   0.56332   0.97806   0.00000  Uiso   1.00
C1276  C     0.87893   0.64552   0.73472   0.00000  Uiso   1.00
C1277  C     0.78970   0.35347   0.76141   0.00000  Uiso   1.00
C1278  C     0.87310   0.35285   0.75562   0.00000  Uiso   1.00
H1279  H     0.69089   0.54473   0.97703   0.00000  Uiso   1.00
H1280  H     0.70999   0.35280   0.78970   0.00000  Uiso   1.00
H1281  H     0.90026   0.39956   0.79740   0.00000  Uiso   1.00
H1282  H     0.77121   0.59978   0.69645   0.00000  Uiso   1.00
H1283  H     0.94401   0.44458   0.68205   0.00000  Uiso   1.00
H1284  H     0.68711   0.60064   0.79040   0.00000  Uiso   1.00
H1285  H     0.71816   0.39956   0.72008   0.00000  Uiso   1.00
H1286  H     0.94363   0.59908   0.78647   0.00000  Uiso   1.00
H1287  H     0.96909   0.56652   0.53621   0.00000  Uiso   1.00
H1288  H     0.76879   0.56826   0.58475   0.00000  Uiso   1.00
H1289  H     0.89999   0.55729   0.91596   0.00000  Uiso   1.00
H1290  H     0.69416   0.60087   0.58117   0.00000  Uiso   1.00
H1291  H     0.97848   0.58278   0.91724   0.00000  Uiso   1.00
H1292  H     0.77129   0.50450   0.63255   0.00000  Uiso   1.00
H1293  H     0.89249   0.48270   0.90746   0.00000  Uiso   1.00
H1294  H     0.93021   0.59579   0.69030   0.00000  Uiso   1.00
N1295  N     0.71426   0.50001   0.75001   0.00000  Uiso   1.00
N1296  N     0.95241   0.49999   0.74999   0.00000  Uiso   1.00
N1297  N     0.98984   0.53138   0.62992   0.00000  Uiso   1.00
N1298  N     0.67000   0.49349   0.88667   0.00000  Uiso   1.00
O1299  O     0.79512   0.56108   0.75001   0.00000  Uiso   1.00
O1300  O     0.97197   0.61706   0.97497   0.00000  Uiso   1.00
O1301  O     0.79975   0.46082   0.58146   0.00000  Uiso   1.00
O1302  O     0.86107   0.44466   0.87540   0.00000  Uiso   1.00
O1303  O     0.96218   0.64849   0.69638   0.00000  Uiso   1.00
O1304  O     0.73537   0.39859   0.81929   0.00000  Uiso   1.00
O1305  O     0.93885   0.34724   0.78142   0.00000  Uiso   1.00
O1306  O     0.72995   0.65077   0.71444   0.00000  Uiso   1.00
O1307  O     0.98684   0.40080   0.68888   0.00000  Uiso   1.00
O1308  O     0.71636   0.56374   0.82362   0.00000  Uiso   1.00
O1309  O     0.76668   0.43349   0.67595   0.00000  Uiso   1.00
O1310  O     0.87154   0.43892   0.75000   0.00000  Uiso   1.00
O1311  O     0.90056   0.56109   0.83064   0.00000  Uiso   1.00
O1312  O     0.87157   0.56107   0.75000   0.00000  Uiso   1.00
O1313  O     0.79510   0.43893   0.75000   0.00000  Uiso   1.00
O1314  O     0.77328   0.50001   0.81613   0.00000  Uiso   1.00
O1315  O     0.89339   0.49999   0.68387   0.00000  Uiso   1.00
O1316  O     0.84972   0.50000   0.81612   0.00000  Uiso   1.00
O1317  O     0.81695   0.50000   0.68388   0.00000  Uiso   1.00
O1318  O     0.70061   0.62093   0.51906   0.00000  Uiso   1.00
Zn1319 Zn    0.78229   0.50001   0.75000   0.00000  Uiso   1.00
Zn1320 Zn    0.88438   0.49999   0.75000   0.00000  Uiso   1.00
C1321  C     0.16870   0.91281   0.74378   0.00000  Uiso   1.00
C1322  C     0.12937   0.97987   0.73985   0.00000  Uiso   1.00
C1323  C     0.16362   0.70840   0.76191   0.00000  Uiso   1.00
C1324  C     0.17141   0.95749   0.73499   0.00000  Uiso   1.00
C1325  C     0.31755   0.80148   0.72692   0.00000  Uiso   1.00
C1326  C     0.01590   0.86589   0.77158   0.00000  Uiso   1.00
C1327  C     0.03156   0.80078   0.72846   0.00000  Uiso   1.00
C1328  C     0.30141   0.86544   0.77214   0.00000  Uiso   1.00
C1329  C     0.13717   0.83288   0.83799   0.00000  Uiso   1.00
C1330  C     0.19605   0.83573   0.66216   0.00000  Uiso   1.00
C1331  C     0.12008   0.83902   0.88918   0.00000  Uiso   1.00
C1332  C     0.16507   0.75355   0.75531   0.00000  Uiso   1.00
C1333  C     0.21207   0.84961   0.61356   0.00000  Uiso   1.00
C1334  C     0.06067   0.87102   0.95798   0.00000  Uiso   1.00
C1335  C     0.26886   0.88577   0.55007   0.00000  Uiso   1.00
C1336  C     0.07238   0.85027   0.91448   0.00000  Uiso   1.00
C1337  C     0.25733   0.86733   0.59290   0.00000  Uiso   1.00
C1338  C     0.15366   0.84110   0.91202   0.00000  Uiso   1.00
C1339  C     0.17948   0.85111   0.58947   0.00000  Uiso   1.00
C1340  C     0.14235   0.86550   0.95422   0.00000  Uiso   1.00
C1341  C     0.19168   0.87125   0.54721   0.00000  Uiso   1.00
C1342  C     0.09507   0.87980   0.97794   0.00000  Uiso   1.00
C1343  C     0.11261   0.89081   0.54849   0.00000  Uiso   1.00
C1344  C     0.23784   0.88538   0.52518   0.00000  Uiso   1.00
C1345  C     0.17547   0.87331   0.97629   0.00000  Uiso   1.00
C1346  C     0.15904   0.87616   0.52468   0.00000  Uiso   1.00
C1347  C     0.04433   0.92996   0.54378   0.00000  Uiso   1.00
C1348  C     0.29339   0.92139   0.95431   0.00000  Uiso   1.00
C1349  C     0.13551   0.82642   0.60369   0.00000  Uiso   1.00
C1350  C     0.19524   0.81094   0.89723   0.00000  Uiso   1.00
C1351  C     0.29387   0.86600   0.61352   0.00000  Uiso   1.00
C1352  C     0.03409   0.83738   0.89890   0.00000  Uiso   1.00
C1353  C     0.25996   0.96076   0.70603   0.00000  Uiso   1.00
C1354  C     0.22203   0.88535   0.95273   0.00000  Uiso   1.00
C1355  C     0.07450   0.70236   0.79081   0.00000  Uiso   1.00
C1356  C     0.23962   0.70233   0.77903   0.00000  Uiso   1.00
C1357  C     0.09695   0.96331   0.71585   0.00000  Uiso   1.00
C1358  C     0.30323   0.76983   0.69727   0.00000  Uiso   1.00
C1359  C     0.03008   0.90213   0.79556   0.00000  Uiso   1.00
C1360  C     0.06272   0.76378   0.70783   0.00000  Uiso   1.00
C1361  C     0.26873   0.90048   0.79688   0.00000  Uiso   1.00
C1362  C     0.08284   0.89834   0.52352   0.00000  Uiso   1.00
C1363  C     0.25140   0.89666   0.97806   0.00000  Uiso   1.00
C1364  C     0.21226   0.97885   0.73472   0.00000  Uiso   1.00
C1365  C     0.12303   0.68680   0.76141   0.00000  Uiso   1.00
C1366  C     0.20643   0.68618   0.75562   0.00000  Uiso   1.00
H1367  H     0.02422   0.87806   0.97703   0.00000  Uiso   1.00
H1368  H     0.04332   0.68613   0.78970   0.00000  Uiso   1.00
H1369  H     0.23360   0.73290   0.79740   0.00000  Uiso   1.00
H1370  H     0.10454   0.93311   0.69645   0.00000  Uiso   1.00
H1371  H     0.27734   0.77791   0.68205   0.00000  Uiso   1.00
H1372  H     0.02044   0.93397   0.79040   0.00000  Uiso   1.00
H1373  H     0.05149   0.73290   0.72008   0.00000  Uiso   1.00
H1374  H     0.27697   0.93241   0.78647   0.00000  Uiso   1.00
H1375  H     0.30243   0.89986   0.53621   0.00000  Uiso   1.00
H1376  H     0.10213   0.90159   0.58475   0.00000  Uiso   1.00
H1377  H     0.23333   0.89063   0.91596   0.00000  Uiso   1.00
H1378  H     0.02750   0.93420   0.58117   0.00000  Uiso   1.00
H1379  H     0.31182   0.91611   0.91724   0.00000  Uiso   1.00
H1380  H     0.10462   0.83783   0.63255   0.00000  Uiso   1.00
H1381  H     0.22582   0.81603   0.90746   0.00000  Uiso   1.00
H1382  H     0.26354   0.92912   0.69030   0.00000  Uiso   1.00
N1383  N     0.04759   0.83334   0.75001   0.00000  Uiso   1.00
N1384  N     0.28574   0.83332   0.74999   0.00000  Uiso   1.00
N1385  N     0.32318   0.86471   0.62992   0.00000  Uiso   1.00
N1386  N     0.00333   0.82682   0.88667   0.00000  Uiso   1.00
O1387  O     0.12846   0.89442   0.75001   0.00000  Uiso   1.00
O1388  O     0.30530   0.95039   0.97497   0.00000  Uiso   1.00
O1389  O     0.13309   0.79416   0.58146   0.00000  Uiso   1.00
O1390  O     0.19440   0.77799   0.87540   0.00000  Uiso   1.00
O1391  O     0.29551   0.98182   0.69638   0.00000  Uiso   1.00
O1392  O     0.06870   0.73193   0.81929   0.00000  Uiso   1.00
O1393  O     0.27218   0.68057   0.78142   0.00000  Uiso   1.00
O1394  O     0.06328   0.98410   0.71444   0.00000  Uiso   1.00
O1395  O     0.32017   0.73414   0.68888   0.00000  Uiso   1.00
O1396  O     0.04970   0.89708   0.82362   0.00000  Uiso   1.00
O1397  O     0.10001   0.76683   0.67595   0.00000  Uiso   1.00
O1398  O     0.20488   0.77225   0.75000   0.00000  Uiso   1.00
O1399  O     0.23389   0.89442   0.83064   0.00000  Uiso   1.00
O1400  O     0.20490   0.89441   0.75000   0.00000  Uiso   1.00
O1401  O     0.12843   0.77226   0.75000   0.00000  Uiso   1.00
O1402  O     0.10661   0.83334   0.81613   0.00000  Uiso   1.00
O1403  O     0.22672   0.83333   0.68387   0.00000  Uiso   1.00
O1404  O     0.18305   0.83333   0.81612   0.00000  Uiso   1.00
O1405  O     0.15028   0.83334   0.68388   0.00000  Uiso   1.00
O1406  O     0.03394   0.95426   0.51906   0.00000  Uiso   1.00
Zn1407 Zn    0.11562   0.83334   0.75000   0.00000  Uiso   1.00
Zn1408 Zn    0.21771   0.83333   0.75000   0.00000  Uiso   1.00
C1409  C     0.50204   0.91281   0.74378   0.00000  Uiso   1.00
C1410  C     0.46270   0.97987   0.73985   0.00000  Uiso   1.00
C1411  C     0.49696   0.70840   0.76191   0.00000  Uiso   1.00
C1412  C     0.50474   0.95749   0.73499   0.00000  Uiso   1.00
C1413  C     0.65088   0.80148   0.72692   0.00000  Uiso   1.00
C1414  C     0.34923   0.86589   0.77158   0.00000  Uiso   1.00
C1415  C     0.36489   0.80078   0.72846   0.00000  Uiso   1.00
C1416  C     0.63474   0.86544   0.77214   0.00000  Uiso   1.00
C1417  C     0.47051   0.83288   0.83799   0.00000  Uiso   1.00
C1418  C     0.52938   0.83573   0.66216   0.00000  Uiso   1.00
C1419  C     0.45341   0.83902   0.88918   0.00000  Uiso   1.00
C1420  C     0.49840   0.75355   0.75531   0.00000  Uiso   1.00
C1421  C     0.54540   0.84961   0.61356   0.00000  Uiso   1.00
C1422  C     0.39400   0.87102   0.95798   0.00000  Uiso   1.00
C1423  C     0.60219   0.88577   0.55007   0.00000  Uiso   1.00
C1424  C     0.40571   0.85027   0.91448   0.00000  Uiso   1.00
C1425  C     0.59067   0.86733   0.59290   0.00000  Uiso   1.00
C1426  C     0.48699   0.84110   0.91202   0.00000  Uiso   1.00
C1427  C     0.51282   0.85111   0.58947   0.00000  Uiso   1.00
C1428  C     0.47569   0.86550   0.95422   0.00000  Uiso   1.00
C1429  C     0.52502   0.87125   0.54721   0.00000  Uiso   1.00
C1430  C     0.42840   0.87980   0.97794   0.00000  Uiso   1.00
C1431  C     0.44594   0.89081   0.54849   0.00000  Uiso   1.00
C1432  C     0.57118   0.88538   0.52518   0.00000  Uiso   1.00
C1433  C     0.50880   0.87331   0.97629   0.00000  Uiso   1.00
C1434  C     0.49237   0.87616   0.52468   0.00000  Uiso   1.00
C1435  C     0.37766   0.92996   0.54378   0.00000  Uiso   1.00
C1436  C     0.62672   0.92139   0.95431   0.00000  Uiso   1.00
C1437  C     0.46884   0.82642   0.60369   0.00000  Uiso   1.00
C1438  C     0.52857   0.81094   0.89723   0.00000  Uiso   1.00
C1439  C     0.62720   0.86600   0.61352   0.00000  Uiso   1.00
C1440  C     0.36742   0.83738   0.89890   0.00000  Uiso   1.00
C1441  C     0.59330   0.96076   0.70603   0.00000  Uiso   1.00
C1442  C     0.55536   0.88535   0.95273   0.00000  Uiso   1.00
C1443  C     0.40783   0.70236   0.79081   0.00000  Uiso   1.00
C1444  C     0.57295   0.70233   0.77903   0.00000  Uiso   1.00
C1445  C     0.43028   0.96331   0.71585   0.00000  Uiso   1.00
C1446  C     0.63656   0.76983   0.69727   0.00000  Uiso   1.00
C1447  C     0.36342   0.90213   0.79556   0.00000  Uiso   1.00
C1448  C     0.39605   0.76378   0.70783   0.00000  Uiso   1.00
C1449  C     0.60206   0.90048   0.79688   0.00000  Uiso   1.00
C1450  C     0.41617   0.89834   0.52352   0.00000  Uiso   1.00
C1451  C     0.58473   0.89666   0.97806   0.00000  Uiso   1.00
C1452  C     0.54559   0.97885   0.73472   0.00000  Uiso   1.00
C1453  C     0.45636   0.68680   0.76141   0.00000  Uiso   1.00
C1454  C     0.53976   0.68618   0.75562   0.00000  Uiso   1.00
H1455  H     0.35756   0.87806   0.97703   0.00000  Uiso   1.00
H1456  H     0.37665   0.68613   0.78970   0.00000  Uiso   1.00
H1457  H     0.56693   0.73290   0.79740   0.00000  Uiso   1.00
H1458  H     0.43787   0.93311   0.69645   0.00000  Uiso   1.00
H1459  H     0.61067   0.77791   0.68205   0.00000  Uiso   1.00
H1460  H     0.35378   0.93397   0.79040   0.00000  Uiso   1.00
H1461  H     0.38482   0.73290   0.72008   0.00000  Uiso   1.00
H1462  H     0.61030   0.93241   0.78647   0.00000  Uiso   1.00
H1463  H     0.63576   0.89986   0.53621   0.00000  Uiso   1.00
H1464  H     0.43546   0.90159   0.58475   0.00000  Uiso   1.00
H1465  H     0.56666   0.89063   0.91596   0.00000  Uiso   1.00
H1466  H     0.36083   0.93420   0.58117   0.00000  Uiso   1.00
H1467  H     0.64515   0.91611   0.91724   0.00000  Uiso   1.00
H1468  H     0.43796   0.83783   0.63255   0.00000  Uiso   1.00
H1469  H     0.55916   0.81603   0.90746   0.00000  Uiso   1.00
H1470  H     0.59688   0.92912   0.69030   0.00000  Uiso   1.00
N1471  N     0.38093   0.83334   0.75001   0.00000  Uiso   1.00
N1472  N     0.61907   0.83332   0.74999   0.00000  Uiso   1.00
N1473  N     0.65651   0.86471   0.62992   0.00000  Uiso   1.00
N1474  N     0.33667   0.82682   0.88667   0.00000  Uiso   1.00
O1475  O     0.46179   0.89442   0.75001   0.00000  Uiso   1.00
O1476  O     0.63863   0.95039   0.97497   0.00000  Uiso   1.00
O1477  O     0.46642   0.79416   0.58146   0.00000  Uiso   1.00
O1478  O     0.52774   0.77799   0.87540   0.00000  Uiso   1.00
O1479  O     0.62885   0.98182   0.69638   0.00000  Uiso   1.00
O1480  O     0.40204   0.73193   0.81929   0.00000  Uiso   1.00
O1481  O     0.60552   0.68057   0.78142   0.00000  Uiso   1.00
O1482  O     0.39661   0.98410   0.71444   0.00000  Uiso   1.00
O1483  O     0.65350   0.73414   0.68888   0.00000  Uiso   1.00
O1484  O     0.38303   0.89708   0.82362   0.00000  Uiso   1.00
O1485  O     0.43334   0.76683   0.67595   0.00000  Uiso   1.00
O1486  O     0.53821   0.77225   0.75000   0.00000  Uiso   1.00
O1487  O     0.56722   0.89442   0.83064   0.00000  Uiso   1.00
O1488  O     0.53823   0.89441   0.75000   0.00000  Uiso   1.00
O1489  O     0.46177   0.77226   0.75000   0.00000  Uiso   1.00
O1490  O     0.43994   0.83334   0.81613   0.00000  Uiso   1.00
O1491  O     0.56006   0.83333   0.68387   0.00000  Uiso   1.00
O1492  O     0.51639   0.83333   0.81612   0.00000  Uiso   1.00
O1493  O     0.48361   0.83334   0.68388   0.00000  Uiso   1.00
O1494  O     0.36727   0.95426   0.51906   0.00000  Uiso   1.00
Zn1495 Zn    0.44896   0.83334   0.75000   0.00000  Uiso   1.00
Zn1496 Zn    0.55104   0.83333   0.75000   0.00000  Uiso   1.00
C1497  C     0.83537   0.91281   0.74378   0.00000  Uiso   1.00
C1498  C     0.79603   0.97987   0.73985   0.00000  Uiso   1.00
C1499  C     0.83029   0.70840   0.76191   0.00000  Uiso   1.00
C1500  C     0.83808   0.95749   0.73499   0.00000  Uiso   1.00
C1501  C     0.98422   0.80148   0.72692   0.00000  Uiso   1.00
C1502  C     0.68257   0.86589   0.77158   0.00000  Uiso   1.00
C1503  C     0.69823   0.80078   0.72846   0.00000  Uiso   1.00
C1504  C     0.96807   0.86544   0.77214   0.00000  Uiso   1.00
C1505  C     0.80384   0.83288   0.83799   0.00000  Uiso   1.00
C1506  C     0.86272   0.83573   0.66216   0.00000  Uiso   1.00
C1507  C     0.78675   0.83902   0.88918   0.00000  Uiso   1.00
C1508  C     0.83173   0.75355   0.75531   0.00000  Uiso   1.00
C1509  C     0.87874   0.84961   0.61356   0.00000  Uiso   1.00
C1510  C     0.72733   0.87102   0.95798   0.00000  Uiso   1.00
C1511  C     0.93552   0.88577   0.55007   0.00000  Uiso   1.00
C1512  C     0.73904   0.85027   0.91448   0.00000  Uiso   1.00
C1513  C     0.92400   0.86733   0.59290   0.00000  Uiso   1.00
C1514  C     0.82033   0.84110   0.91202   0.00000  Uiso   1.00
C1515  C     0.84615   0.85111   0.58947   0.00000  Uiso   1.00
C1516  C     0.80902   0.86550   0.95422   0.00000  Uiso   1.00
C1517  C     0.85835   0.87125   0.54721   0.00000  Uiso   1.00
C1518  C     0.76174   0.87980   0.97794   0.00000  Uiso   1.00
C1519  C     0.77927   0.89081   0.54849   0.00000  Uiso   1.00
C1520  C     0.90451   0.88538   0.52518   0.00000  Uiso   1.00
C1521  C     0.84214   0.87331   0.97629   0.00000  Uiso   1.00
C1522  C     0.82570   0.87616   0.52468   0.00000  Uiso   1.00
C1523  C     0.71099   0.92996   0.54378   0.00000  Uiso   1.00
C1524  C     0.96006   0.92139   0.95431   0.00000  Uiso   1.00
C1525  C     0.80218   0.82642   0.60369   0.00000  Uiso   1.00
C1526  C     0.86191   0.81094   0.89723   0.00000  Uiso   1.00
C1527  C     0.96053   0.86600   0.61352   0.00000  Uiso   1.00
C1528  C     0.70075   0.83738   0.89890   0.00000  Uiso   1.00
C1529  C     0.92663   0.96076   0.70603   0.00000  Uiso   1.00
C1530  C     0.88870   0.88535   0.95273   0.00000  Uiso   1.00
C1531  C     0.74117   0.70236   0.79081   0.00000  Uiso   1.00
C1532  C     0.90629   0.70233   0.77903   0.00000  Uiso   1.00
C1533  C     0.76361   0.96331   0.71585   0.00000  Uiso   1.00
C1534  C     0.96990   0.76983   0.69727   0.00000  Uiso   1.00
C1535  C     0.69675   0.90213   0.79556   0.00000  Uiso   1.00
C1536  C     0.72938   0.76378   0.70783   0.00000  Uiso   1.00
C1537  C     0.93540   0.90048   0.79688   0.00000  Uiso   1.00
C1538  C     0.74951   0.89834   0.52352   0.00000  Uiso   1.00
C1539  C     0.91806   0.89666   0.97806   0.00000  Uiso   1.00
C1540  C     0.87893   0.97885   0.73472   0.00000  Uiso   1.00
C1541  C     0.78970   0.68680   0.76141   0.00000  Uiso   1.00
C1542  C     0.87310   0.68618   0.75562   0.00000  Uiso   1.00
H1543  H     0.69089   0.87806   0.97703   0.00000  Uiso   1.00
H1544  H     0.70999   0.68613   0.78970   0.00000  Uiso   1.00
H1545  H     0.90026   0.73290   0.79740   0.00000  Uiso   1.00
H1546  H     0.77121   0.93311   0.69645   0.00000  Uiso   1.00
H1547  H     0.94401   0.77791   0.68205   0.00000  Uiso   1.00
H1548  H     0.68711   0.93397   0.79040   0.00000  Uiso   1.00
H1549  H     0.71816   0.73290   0.72008   0.00000  Uiso   1.00
H1550  H     0.94363   0.93241   0.78647   0.00000  Uiso   1.00
H1551  H     0.96909   0.89986   0.53621   0.00000  Uiso   1.00
H1552  H     0.76879   0.90159   0.58475   0.00000  Uiso   1.00
H1553  H     0.89999   0.89063   0.91596   0.00000  Uiso   1.00
H1554  H     0.69416   0.93420   0.58117   0.00000  Uiso   1.00
H1555  H     0.97848   0.91611   0.91724   0.00000  Uiso   1.00
H1556  H     0.77129   0.83783   0.63255   0.00000  Uiso   1.00
H1557  H     0.89249   0.81603   0.90746   0.00000  Uiso   1.00
H1558  H     0.93021   0.92912   0.69030   0.00000  Uiso   1.00
N1559  N     0.71426   0.83334   0.75001   0.00000  Uiso   1.00
N1560  N     0.95241   0.83332   0.74999   0.00000  Uiso   1.00
N1561  N     0.98984   0.86471   0.62992   0.00000  Uiso   1.00
N1562  N     0.67000   0.82682   0.88667   0.00000  Uiso   1.00
O1563  O     0.79512   0.89442   0.75001   0.00000  Uiso   1.00
O1564  O     0.97197   0.95039   0.97497   0.00000  Uiso   1.00
O1565  O     0.79975   0.79416   0.58146   0.00000  Uiso   1.00
O1566  O     0.86107   0.77799   0.87540   0.00000  Uiso   1.00
O1567  O     0.96218   0.98182   0.69638   0.00000  Uiso   1.00
O1568  O     0.73537   0.73193   0.81929   0.00000  Uiso   1.00
O1569  O     0.93885   0.68057   0.78142   0.00000  Uiso   1.00
O1570  O     0.72995   0.98410   0.71444   0.00000  Uiso   1.00
O1571  O     0.98684   0.73414   0.68888   0.00000  Uiso   1.00
O1572  O     0.71636   0.89708   0.82362   0.00000  Uiso   1.00
O1573  O     0.76668   0.76683   0.67595   0.00000  Uiso   1.00
O1574  O     0.87154   0.77225   0.75000   0.00000  Uiso   1.00
O1575  O     0.90056   0.89442   0.83064   0.00000  Uiso   1.00
O1576  O     0.87157   0.89441   0.75000   0.00000  Uiso   1.00
O1577  O     0.79510   0.77226   0.75000   0.00000  Uiso   1.00
O1578  O     0.77328   0.83334   0.81613   0.00000  Uiso   1.00
O1579  O     0.89339   0.83333   0.68387   0.00000  Uiso   1.00
O1580  O     0.84972   0.83333   0.81612   0.00000  Uiso   1.00
O1581  O     0.81695   0.83334   0.68388   0.00000  Uiso   1.00
O1582  O     0.70061   0.95426   0.51906   0.00000  Uiso   1.00
Zn1583 Zn    0.78229   0.83334   0.75000   0.00000  Uiso   1.00
Zn1584 Zn    0.88438   0.83333   0.75000   0.00000  Uiso   1.00
loop_
_geom_bond_atom_site_label_1
_geom_bond_atom_site_label_2
_geom_bond_distance
_geom_bond_site_symmetry_2
_ccdc_geom_bond_type
C1     C4      1.454   .     S
C1     O67     1.305   .     A
C1     O80     1.307   .     A
C2     C4      1.406   .     A
C2     C37     1.495   .     S
C2     C309    1.393   .     S
C3     C12     1.456   .     S
C3     C45     1.408   .     A
C3     C46     1.413   .     A
C4     C44     1.405   .     A
C5     C38     1.488   .     S
C5     N64     1.376   .     A
C5     C95     1.441   .     S
C6     N63     1.380   .     A
C6     C39     1.480   .     S
C6     C184    1.433   1_455 S
C7     C40     1.472   .     S
C7     N63     1.379   .     A
C7     C181    1.441   1_455 S
C8     C41     1.474   .     S
C8     N64     1.373   .     A
C8     C94     1.433   .     S
C9     O82     1.312   .     A
C9     C11     1.479   .     S
C9     O84     1.311   .     A
C10    O85     1.311   .     A
C10    O83     1.315   .     A
C10    C13     1.491   .     S
C11    C18     1.415   .     A
C11    C16     1.410   .     A
C12    O78     1.302   .     A
C12    O81     1.311   .     A
C13    C19     1.419   .     A
C13    C17     1.421   .     A
C14    C16     1.390   .     A
C14    H47     1.066   .     S
C14    C22     1.396   .     A
C15    H55     1.062   .     S
C15    C24     1.395   .     A
C15    C17     1.398   .     A
C16    C32     1.446   .     S
C17    C31     1.446   .     S
C18    C30     1.497   .     S
C18    C20     1.412   .     A
C19    C29     1.484   .     S
C19    C21     1.407   .     A
C20    C25     1.402   .     A
C20    C22     1.416   .     A
C21    C26     1.394   .     A
C21    C24     1.405   .     A
C22    C834    1.417   .     S
C23    H56     1.085   .     S
C23    C42     1.391   .     A
C23    C26     1.399   .     A
C24    C835    1.426   1_554 S
C25    C34     1.402   .     A
C25    C818    1.393   .     S
C26    C817    1.393   1_554 S
C27    C42     1.472   .     S
C27    O86     1.219   .     D
C27    H58     1.085   .     S
C28    O68     1.218   .     D
C28    H59     1.085   .     S
C28    C43     1.475   .     S
C29    O69     1.221   .     D
C29    H60     1.085   .     S
C30    O70     1.221   .     D
C30    H61     1.080   .     S
C31    N65     1.158   .     T
C32    N66     1.158   .     T
C33    H62     1.082   .     S
C33    C44     1.495   .     S
C33    O71     1.220   .     D
C34    H57     1.083   .     S
C34    C43     1.402   .     A
C35    H48     1.083   .     S
C35    O72     1.221   .     D
C35    C45     1.494   .     S
C36    C46     1.498   .     S
C36    O73     1.220   .     D
C36    H49     1.081   .     S
C37    O74     1.220   .     D
C37    H50     1.085   .     S
C38    O75     1.219   .     D
C38    H51     1.073   .     S
C39    O76     1.216   .     D
C39    H52     1.084   .     S
C40    O77     1.216   .     D
C40    H53     1.081   .     S
C41    O79     1.217   .     D
C41    H54     1.082   .     S
C42    C814    1.417   1_554 S
C43    C816    1.426   .     S
C44    C310    1.397   .     S
C45    C530    1.393   1_545 S
C46    C572    1.397   1_545 S
N63    Zn87    2.046   .     S
N64    Zn88    2.046   .     S
O67    Zn87    1.980   .     S
O78    Zn88    1.980   .     S
O80    Zn88    1.975   .     S
O81    Zn87    1.975   .     S
O82    Zn87    1.954   .     S
O83    Zn88    1.954   .     S
O84    Zn88    1.937   .     S
O85    Zn87    1.937   .     S
C89    C92     1.454   .     S
C89    O155    1.305   .     A
C89    O168    1.307   .     A
C90    C92     1.406   .     A
C90    C125    1.495   .     S
C90    C397    1.393   .     S
C91    C100    1.456   .     S
C91    C133    1.408   .     A
C91    C134    1.413   .     A
C92    C132    1.405   .     A
C93    C126    1.488   .     S
C93    N152    1.376   .     A
C93    C183    1.441   .     S
C94    N151    1.380   .     A
C94    C127    1.480   .     S
C95    C128    1.472   .     S
C95    N151    1.379   .     A
C96    C129    1.474   .     S
C96    N152    1.373   .     A
C96    C182    1.433   .     S
C97    O170    1.312   .     A
C97    C99     1.479   .     S
C97    O172    1.311   .     A
C98    O173    1.311   .     A
C98    O171    1.315   .     A
C98    C101    1.491   .     S
C99    C106    1.415   .     A
C99    C104    1.410   .     A
C100   O166    1.302   .     A
C100   O169    1.311   .     A
C101   C107    1.419   .     A
C101   C105    1.421   .     A
C102   C104    1.390   .     A
C102   H135    1.066   .     S
C102   C110    1.396   .     A
C103   H143    1.062   .     S
C103   C112    1.395   .     A
C103   C105    1.398   .     A
C104   C120    1.446   .     S
C105   C119    1.446   .     S
C106   C118    1.497   .     S
C106   C108    1.412   .     A
C107   C117    1.484   .     S
C107   C109    1.407   .     A
C108   C113    1.402   .     A
C108   C110    1.416   .     A
C109   C114    1.394   .     A
C109   C112    1.405   .     A
C110   C922    1.417   .     S
C111   H144    1.085   .     S
C111   C130    1.391   .     A
C111   C114    1.399   .     A
C112   C923    1.426   1_554 S
C113   C122    1.402   .     A
C113   C906    1.393   .     S
C114   C905    1.393   1_554 S
C115   C130    1.472   .     S
C115   O174    1.219   .     D
C115   H146    1.085   .     S
C116   O156    1.218   .     D
C116   H147    1.085   .     S
C116   C131    1.475   .     S
C117   O157    1.221   .     D
C117   H148    1.085   .     S
C118   O158    1.221   .     D
C118   H149    1.080   .     S
C119   N153    1.158   .     T
C120   N154    1.158   .     T
C121   H150    1.082   .     S
C121   C132    1.495   .     S
C121   O159    1.220   .     D
C122   H145    1.083   .     S
C122   C131    1.402   .     A
C123   H136    1.083   .     S
C123   O160    1.221   .     D
C123   C133    1.494   .     S
C124   C134    1.498   .     S
C124   O161    1.220   .     D
C124   H137    1.081   .     S
C125   O162    1.220   .     D
C125   H138    1.085   .     S
C126   O163    1.219   .     D
C126   H139    1.073   .     S
C127   O164    1.216   .     D
C127   H140    1.084   .     S
C128   O165    1.216   .     D
C128   H141    1.081   .     S
C129   O167    1.217   .     D
C129   H142    1.082   .     S
C130   C902    1.417   1_554 S
C131   C904    1.426   .     S
C132   C398    1.397   .     S
C133   C618    1.393   1_545 S
C134   C660    1.397   1_545 S
N151   Zn175   2.046   .     S
N152   Zn176   2.046   .     S
O155   Zn175   1.980   .     S
O166   Zn176   1.980   .     S
O168   Zn176   1.975   .     S
O169   Zn175   1.975   .     S
O170   Zn175   1.954   .     S
O171   Zn176   1.954   .     S
O172   Zn176   1.937   .     S
O173   Zn175   1.937   .     S
C177   C180    1.454   .     S
C177   O243    1.305   .     A
C177   O256    1.307   .     A
C178   C180    1.406   .     A
C178   C213    1.495   .     S
C178   C485    1.393   .     S
C179   C188    1.456   .     S
C179   C221    1.408   .     A
C179   C222    1.413   .     A
C180   C220    1.405   .     A
C181   C214    1.488   .     S
C181   N240    1.376   .     A
C181   C7      1.441   1_655 S
C182   N239    1.380   .     A
C182   C215    1.480   .     S
C183   C216    1.472   .     S
C183   N239    1.379   .     A
C184   C217    1.474   .     S
C184   N240    1.373   .     A
C184   C6      1.433   1_655 S
C185   O258    1.312   .     A
C185   C187    1.479   .     S
C185   O260    1.311   .     A
C186   O261    1.311   .     A
C186   O259    1.315   .     A
C186   C189    1.491   .     S
C187   C194    1.415   .     A
C187   C192    1.410   .     A
C188   O254    1.302   .     A
C188   O257    1.311   .     A
C189   C195    1.419   .     A
C189   C193    1.421   .     A
C190   C192    1.390   .     A
C190   H223    1.066   .     S
C190   C198    1.396   .     A
C191   H231    1.062   .     S
C191   C200    1.395   .     A
C191   C193    1.398   .     A
C192   C208    1.446   .     S
C193   C207    1.446   .     S
C194   C206    1.497   .     S
C194   C196    1.412   .     A
C195   C205    1.484   .     S
C195   C197    1.407   .     A
C196   C201    1.402   .     A
C196   C198    1.416   .     A
C197   C202    1.394   .     A
C197   C200    1.405   .     A
C198   C1010   1.417   .     S
C199   H232    1.085   .     S
C199   C218    1.391   .     A
C199   C202    1.399   .     A
C200   C1011   1.426   1_554 S
C201   C210    1.402   .     A
C201   C994    1.393   .     S
C202   C993    1.393   1_554 S
C203   C218    1.472   .     S
C203   O262    1.219   .     D
C203   H234    1.085   .     S
C204   O244    1.218   .     D
C204   H235    1.085   .     S
C204   C219    1.475   .     S
C205   O245    1.221   .     D
C205   H236    1.085   .     S
C206   O246    1.221   .     D
C206   H237    1.080   .     S
C207   N241    1.158   .     T
C208   N242    1.158   .     T
C209   H238    1.082   .     S
C209   C220    1.495   .     S
C209   O247    1.220   .     D
C210   H233    1.083   .     S
C210   C219    1.402   .     A
C211   H224    1.083   .     S
C211   O248    1.221   .     D
C211   C221    1.494   .     S
C212   C222    1.498   .     S
C212   O249    1.220   .     D
C212   H225    1.081   .     S
C213   O250    1.220   .     D
C213   H226    1.085   .     S
C214   O251    1.219   .     D
C214   H227    1.073   .     S
C215   O252    1.216   .     D
C215   H228    1.084   .     S
C216   O253    1.216   .     D
C216   H229    1.081   .     S
C217   O255    1.217   .     D
C217   H230    1.082   .     S
C218   C990    1.417   1_554 S
C219   C992    1.426   .     S
C220   C486    1.397   .     S
C221   C706    1.393   1_545 S
C222   C748    1.397   1_545 S
N239   Zn263   2.046   .     S
N240   Zn264   2.046   .     S
O243   Zn263   1.980   .     S
O254   Zn264   1.980   .     S
O256   Zn264   1.975   .     S
O257   Zn263   1.975   .     S
O258   Zn263   1.954   .     S
O259   Zn264   1.954   .     S
O260   Zn264   1.937   .     S
O261   Zn263   1.937   .     S
C265   C268    1.454   .     S
C265   O331    1.305   .     A
C265   O344    1.307   .     A
C266   C268    1.406   .     A
C266   C301    1.495   .     S
C266   C573    1.393   .     S
C267   C276    1.456   .     S
C267   C309    1.408   .     A
C267   C310    1.413   .     A
C268   C308    1.405   .     A
C269   C302    1.488   .     S
C269   N328    1.376   .     A
C269   C359    1.441   .     S
C270   N327    1.380   .     A
C270   C303    1.480   .     S
C270   C448    1.433   1_455 S
C271   C304    1.472   .     S
C271   N327    1.379   .     A
C271   C445    1.441   1_455 S
C272   C305    1.474   .     S
C272   N328    1.373   .     A
C272   C358    1.433   .     S
C273   O346    1.312   .     A
C273   C275    1.479   .     S
C273   O348    1.311   .     A
C274   O349    1.311   .     A
C274   O347    1.315   .     A
C274   C277    1.491   .     S
C275   C282    1.415   .     A
C275   C280    1.410   .     A
C276   O342    1.302   .     A
C276   O345    1.311   .     A
C277   C283    1.419   .     A
C277   C281    1.421   .     A
C278   C280    1.390   .     A
C278   H311    1.066   .     S
C278   C286    1.396   .     A
C279   H319    1.062   .     S
C279   C288    1.395   .     A
C279   C281    1.398   .     A
C280   C296    1.446   .     S
C281   C295    1.446   .     S
C282   C294    1.497   .     S
C282   C284    1.412   .     A
C283   C293    1.484   .     S
C283   C285    1.407   .     A
C284   C289    1.402   .     A
C284   C286    1.416   .     A
C285   C290    1.394   .     A
C285   C288    1.405   .     A
C286   C1098   1.417   .     S
C287   H320    1.085   .     S
C287   C306    1.391   .     A
C287   C290    1.399   .     A
C288   C1099   1.426   1_554 S
C289   C298    1.402   .     A
C289   C1082   1.393   .     S
C290   C1081   1.393   1_554 S
C291   C306    1.472   .     S
C291   O350    1.219   .     D
C291   H322    1.085   .     S
C292   O332    1.218   .     D
C292   H323    1.085   .     S
C292   C307    1.475   .     S
C293   O333    1.221   .     D
C293   H324    1.085   .     S
C294   O334    1.221   .     D
C294   H325    1.080   .     S
C295   N329    1.158   .     T
C296   N330    1.158   .     T
C297   H326    1.082   .     S
C297   C308    1.495   .     S
C297   O335    1.220   .     D
C298   H321    1.083   .     S
C298   C307    1.402   .     A
C299   H312    1.083   .     S
C299   O336    1.221   .     D
C299   C309    1.494   .     S
C300   C310    1.498   .     S
C300   O337    1.220   .     D
C300   H313    1.081   .     S
C301   O338    1.220   .     D
C301   H314    1.085   .     S
C302   O339    1.219   .     D
C302   H315    1.073   .     S
C303   O340    1.216   .     D
C303   H316    1.084   .     S
C304   O341    1.216   .     D
C304   H317    1.081   .     S
C305   O343    1.217   .     D
C305   H318    1.082   .     S
C306   C1078   1.417   1_554 S
C307   C1080   1.426   .     S
C308   C574    1.397   .     S
N327   Zn351   2.046   .     S
N328   Zn352   2.046   .     S
O331   Zn351   1.980   .     S
O342   Zn352   1.980   .     S
O344   Zn352   1.975   .     S
O345   Zn351   1.975   .     S
O346   Zn351   1.954   .     S
O347   Zn352   1.954   .     S
O348   Zn352   1.937   .     S
O349   Zn351   1.937   .     S
C353   C356    1.454   .     S
C353   O419    1.305   .     A
C353   O432    1.307   .     A
C354   C356    1.406   .     A
C354   C389    1.495   .     S
C354   C661    1.393   .     S
C355   C364    1.456   .     S
C355   C397    1.408   .     A
C355   C398    1.413   .     A
C356   C396    1.405   .     A
C357   C390    1.488   .     S
C357   N416    1.376   .     A
C357   C447    1.441   .     S
C358   N415    1.380   .     A
C358   C391    1.480   .     S
C359   C392    1.472   .     S
C359   N415    1.379   .     A
C360   C393    1.474   .     S
C360   N416    1.373   .     A
C360   C446    1.433   .     S
C361   O434    1.312   .     A
C361   C363    1.479   .     S
C361   O436    1.311   .     A
C362   O437    1.311   .     A
C362   O435    1.315   .     A
C362   C365    1.491   .     S
C363   C370    1.415   .     A
C363   C368    1.410   .     A
C364   O430    1.302   .     A
C364   O433    1.311   .     A
C365   C371    1.419   .     A
C365   C369    1.421   .     A
C366   C368    1.390   .     A
C366   H399    1.066   .     S
C366   C374    1.396   .     A
C367   H407    1.062   .     S
C367   C376    1.395   .     A
C367   C369    1.398   .     A
C368   C384    1.446   .     S
C369   C383    1.446   .     S
C370   C382    1.497   .     S
C370   C372    1.412   .     A
C371   C381    1.484   .     S
C371   C373    1.407   .     A
C372   C377    1.402   .     A
C372   C374    1.416   .     A
C373   C378    1.394   .     A
C373   C376    1.405   .     A
C374   C1186   1.417   .     S
C375   H408    1.085   .     S
C375   C394    1.391   .     A
C375   C378    1.399   .     A
C376   C1187   1.426   1_554 S
C377   C386    1.402   .     A
C377   C1170   1.393   .     S
C378   C1169   1.393   1_554 S
C379   C394    1.472   .     S
C379   O438    1.219   .     D
C379   H410    1.085   .     S
C380   O420    1.218   .     D
C380   H411    1.085   .     S
C380   C395    1.475   .     S
C381   O421    1.221   .     D
C381   H412    1.085   .     S
C382   O422    1.221   .     D
C382   H413    1.080   .     S
C383   N417    1.158   .     T
C384   N418    1.158   .     T
C385   H414    1.082   .     S
C385   C396    1.495   .     S
C385   O423    1.220   .     D
C386   H409    1.083   .     S
C386   C395    1.402   .     A
C387   H400    1.083   .     S
C387   O424    1.221   .     D
C387   C397    1.494   .     S
C388   C398    1.498   .     S
C388   O425    1.220   .     D
C388   H401    1.081   .     S
C389   O426    1.220   .     D
C389   H402    1.085   .     S
C390   O427    1.219   .     D
C390   H403    1.073   .     S
C391   O428    1.216   .     D
C391   H404    1.084   .     S
C392   O429    1.216   .     D
C392   H405    1.081   .     S
C393   O431    1.217   .     D
C393   H406    1.082   .     S
C394   C1166   1.417   1_554 S
C395   C1168   1.426   .     S
C396   C662    1.397   .     S
N415   Zn439   2.046   .     S
N416   Zn440   2.046   .     S
O419   Zn439   1.980   .     S
O430   Zn440   1.980   .     S
O432   Zn440   1.975   .     S
O433   Zn439   1.975   .     S
O434   Zn439   1.954   .     S
O435   Zn440   1.954   .     S
O436   Zn440   1.937   .     S
O437   Zn439   1.937   .     S
C441   C444    1.454   .     S
C441   O507    1.305   .     A
C441   O520    1.307   .     A
C442   C444    1.406   .     A
C442   C477    1.495   .     S
C442   C749    1.393   .     S
C443   C452    1.456   .     S
C443   C485    1.408   .     A
C443   C486    1.413   .     A
C444   C484    1.405   .     A
C445   C478    1.488   .     S
C445   N504    1.376   .     A
C445   C271    1.441   1_655 S
C446   N503    1.380   .     A
C446   C479    1.480   .     S
C447   C480    1.472   .     S
C447   N503    1.379   .     A
C448   C481    1.474   .     S
C448   N504    1.373   .     A
C448   C270    1.433   1_655 S
C449   O522    1.312   .     A
C449   C451    1.479   .     S
C449   O524    1.311   .     A
C450   O525    1.311   .     A
C450   O523    1.315   .     A
C450   C453    1.491   .     S
C451   C458    1.415   .     A
C451   C456    1.410   .     A
C452   O518    1.302   .     A
C452   O521    1.311   .     A
C453   C459    1.419   .     A
C453   C457    1.421   .     A
C454   C456    1.390   .     A
C454   H487    1.066   .     S
C454   C462    1.396   .     A
C455   H495    1.062   .     S
C455   C464    1.395   .     A
C455   C457    1.398   .     A
C456   C472    1.446   .     S
C457   C471    1.446   .     S
C458   C470    1.497   .     S
C458   C460    1.412   .     A
C459   C469    1.484   .     S
C459   C461    1.407   .     A
C460   C465    1.402   .     A
C460   C462    1.416   .     A
C461   C466    1.394   .     A
C461   C464    1.405   .     A
C462   C1274   1.417   .     S
C463   H496    1.085   .     S
C463   C482    1.391   .     A
C463   C466    1.399   .     A
C464   C1275   1.426   1_554 S
C465   C474    1.402   .     A
C465   C1258   1.393   .     S
C466   C1257   1.393   1_554 S
C467   C482    1.472   .     S
C467   O526    1.219   .     D
C467   H498    1.085   .     S
C468   O508    1.218   .     D
C468   H499    1.085   .     S
C468   C483    1.475   .     S
C469   O509    1.221   .     D
C469   H500    1.085   .     S
C470   O510    1.221   .     D
C470   H501    1.080   .     S
C471   N505    1.158   .     T
C472   N506    1.158   .     T
C473   H502    1.082   .     S
C473   C484    1.495   .     S
C473   O511    1.220   .     D
C474   H497    1.083   .     S
C474   C483    1.402   .     A
C475   H488    1.083   .     S
C475   O512    1.221   .     D
C475   C485    1.494   .     S
C476   C486    1.498   .     S
C476   O513    1.220   .     D
C476   H489    1.081   .     S
C477   O514    1.220   .     D
C477   H490    1.085   .     S
C478   O515    1.219   .     D
C478   H491    1.073   .     S
C479   O516    1.216   .     D
C479   H492    1.084   .     S
C480   O517    1.216   .     D
C480   H493    1.081   .     S
C481   O519    1.217   .     D
C481   H494    1.082   .     S
C482   C1254   1.417   1_554 S
C483   C1256   1.426   .     S
C484   C750    1.397   .     S
N503   Zn527   2.046   .     S
N504   Zn528   2.046   .     S
O507   Zn527   1.980   .     S
O518   Zn528   1.980   .     S
O520   Zn528   1.975   .     S
O521   Zn527   1.975   .     S
O522   Zn527   1.954   .     S
O523   Zn528   1.954   .     S
O524   Zn528   1.937   .     S
O525   Zn527   1.937   .     S
C529   C532    1.454   .     S
C529   O595    1.305   .     A
C529   O608    1.307   .     A
C530   C532    1.406   .     A
C530   C565    1.495   .     S
C530   C45     1.393   1_565 S
C531   C540    1.456   .     S
C531   C573    1.408   .     A
C531   C574    1.413   .     A
C532   C572    1.405   .     A
C533   C566    1.488   .     S
C533   N592    1.376   .     A
C533   C623    1.441   .     S
C534   N591    1.380   .     A
C534   C567    1.480   .     S
C534   C712    1.433   1_455 S
C535   C568    1.472   .     S
C535   N591    1.379   .     A
C535   C709    1.441   1_455 S
C536   C569    1.474   .     S
C536   N592    1.373   .     A
C536   C622    1.433   .     S
C537   O610    1.312   .     A
C537   C539    1.479   .     S
C537   O612    1.311   .     A
C538   O613    1.311   .     A
C538   O611    1.315   .     A
C538   C541    1.491   .     S
C539   C546    1.415   .     A
C539   C544    1.410   .     A
C540   O606    1.302   .     A
C540   O609    1.311   .     A
C541   C547    1.419   .     A
C541   C545    1.421   .     A
C542   C544    1.390   .     A
C542   H575    1.066   .     S
C542   C550    1.396   .     A
C543   H583    1.062   .     S
C543   C552    1.395   .     A
C543   C545    1.398   .     A
C544   C560    1.446   .     S
C545   C559    1.446   .     S
C546   C558    1.497   .     S
C546   C548    1.412   .     A
C547   C557    1.484   .     S
C547   C549    1.407   .     A
C548   C553    1.402   .     A
C548   C550    1.416   .     A
C549   C554    1.394   .     A
C549   C552    1.405   .     A
C550   C1362   1.417   .     S
C551   H584    1.085   .     S
C551   C570    1.391   .     A
C551   C554    1.399   .     A
C552   C1363   1.426   1_554 S
C553   C562    1.402   .     A
C553   C1346   1.393   .     S
C554   C1345   1.393   1_554 S
C555   C570    1.472   .     S
C555   O614    1.219   .     D
C555   H586    1.085   .     S
C556   O596    1.218   .     D
C556   H587    1.085   .     S
C556   C571    1.475   .     S
C557   O597    1.221   .     D
C557   H588    1.085   .     S
C558   O598    1.221   .     D
C558   H589    1.080   .     S
C559   N593    1.158   .     T
C560   N594    1.158   .     T
C561   H590    1.082   .     S
C561   C572    1.495   .     S
C561   O599    1.220   .     D
C562   H585    1.083   .     S
C562   C571    1.402   .     A
C563   H576    1.083   .     S
C563   O600    1.221   .     D
C563   C573    1.494   .     S
C564   C574    1.498   .     S
C564   O601    1.220   .     D
C564   H577    1.081   .     S
C565   O602    1.220   .     D
C565   H578    1.085   .     S
C566   O603    1.219   .     D
C566   H579    1.073   .     S
C567   O604    1.216   .     D
C567   H580    1.084   .     S
C568   O605    1.216   .     D
C568   H581    1.081   .     S
C569   O607    1.217   .     D
C569   H582    1.082   .     S
C570   C1342   1.417   1_554 S
C571   C1344   1.426   .     S
C572   C46     1.397   1_565 S
N591   Zn615   2.046   .     S
N592   Zn616   2.046   .     S
O595   Zn615   1.980   .     S
O606   Zn616   1.980   .     S
O608   Zn616   1.975   .     S
O609   Zn615   1.975   .     S
O610   Zn615   1.954   .     S
O611   Zn616   1.954   .     S
O612   Zn616   1.937   .     S
O613   Zn615   1.937   .     S
C617   C620    1.454   .     S
C617   O683    1.305   .     A
C617   O696    1.307   .     A
C618   C620    1.406   .     A
C618   C653    1.495   .     S
C618   C133    1.393   1_565 S
C619   C628    1.456   .     S
C619   C661    1.408   .     A
C619   C662    1.413   .     A
C620   C660    1.405   .     A
C621   C654    1.488   .     S
C621   N680    1.376   .     A
C621   C711    1.441   .     S
C622   N679    1.380   .     A
C622   C655    1.480   .     S
C623   C656    1.472   .     S
C623   N679    1.379   .     A
C624   C657    1.474   .     S
C624   N680    1.373   .     A
C624   C710    1.433   .     S
C625   O698    1.312   .     A
C625   C627    1.479   .     S
C625   O700    1.311   .     A
C626   O701    1.311   .     A
C626   O699    1.315   .     A
C626   C629    1.491   .     S
C627   C634    1.415   .     A
C627   C632    1.410   .     A
C628   O694    1.302   .     A
C628   O697    1.311   .     A
C629   C635    1.419   .     A
C629   C633    1.421   .     A
C630   C632    1.390   .     A
C630   H663    1.066   .     S
C630   C638    1.396   .     A
C631   H671    1.062   .     S
C631   C640    1.395   .     A
C631   C633    1.398   .     A
C632   C648    1.446   .     S
C633   C647    1.446   .     S
C634   C646    1.497   .     S
C634   C636    1.412   .     A
C635   C645    1.484   .     S
C635   C637    1.407   .     A
C636   C641    1.402   .     A
C636   C638    1.416   .     A
C637   C642    1.394   .     A
C637   C640    1.405   .     A
C638   C1450   1.417   .     S
C639   H672    1.085   .     S
C639   C658    1.391   .     A
C639   C642    1.399   .     A
C640   C1451   1.426   1_554 S
C641   C650    1.402   .     A
C641   C1434   1.393   .     S
C642   C1433   1.393   1_554 S
C643   C658    1.472   .     S
C643   O702    1.219   .     D
C643   H674    1.085   .     S
C644   O684    1.218   .     D
C644   H675    1.085   .     S
C644   C659    1.475   .     S
C645   O685    1.221   .     D
C645   H676    1.085   .     S
C646   O686    1.221   .     D
C646   H677    1.080   .     S
C647   N681    1.158   .     T
C648   N682    1.158   .     T
C649   H678    1.082   .     S
C649   C660    1.495   .     S
C649   O687    1.220   .     D
C650   H673    1.083   .     S
C650   C659    1.402   .     A
C651   H664    1.083   .     S
C651   O688    1.221   .     D
C651   C661    1.494   .     S
C652   C662    1.498   .     S
C652   O689    1.220   .     D
C652   H665    1.081   .     S
C653   O690    1.220   .     D
C653   H666    1.085   .     S
C654   O691    1.219   .     D
C654   H667    1.073   .     S
C655   O692    1.216   .     D
C655   H668    1.084   .     S
C656   O693    1.216   .     D
C656   H669    1.081   .     S
C657   O695    1.217   .     D
C657   H670    1.082   .     S
C658   C1430   1.417   1_554 S
C659   C1432   1.426   .     S
C660   C134    1.397   1_565 S
N679   Zn703   2.046   .     S
N680   Zn704   2.046   .     S
O683   Zn703   1.980   .     S
O694   Zn704   1.980   .     S
O696   Zn704   1.975   .     S
O697   Zn703   1.975   .     S
O698   Zn703   1.954   .     S
O699   Zn704   1.954   .     S
O700   Zn704   1.937   .     S
O701   Zn703   1.937   .     S
C705   C708    1.454   .     S
C705   O771    1.305   .     A
C705   O784    1.307   .     A
C706   C708    1.406   .     A
C706   C741    1.495   .     S
C706   C221    1.393   1_565 S
C707   C716    1.456   .     S
C707   C749    1.408   .     A
C707   C750    1.413   .     A
C708   C748    1.405   .     A
C709   C742    1.488   .     S
C709   N768    1.376   .     A
C709   C535    1.441   1_655 S
C710   N767    1.380   .     A
C710   C743    1.480   .     S
C711   C744    1.472   .     S
C711   N767    1.379   .     A
C712   C745    1.474   .     S
C712   N768    1.373   .     A
C712   C534    1.433   1_655 S
C713   O786    1.312   .     A
C713   C715    1.479   .     S
C713   O788    1.311   .     A
C714   O789    1.311   .     A
C714   O787    1.315   .     A
C714   C717    1.491   .     S
C715   C722    1.415   .     A
C715   C720    1.410   .     A
C716   O782    1.302   .     A
C716   O785    1.311   .     A
C717   C723    1.419   .     A
C717   C721    1.421   .     A
C718   C720    1.390   .     A
C718   H751    1.066   .     S
C718   C726    1.396   .     A
C719   H759    1.062   .     S
C719   C728    1.395   .     A
C719   C721    1.398   .     A
C720   C736    1.446   .     S
C721   C735    1.446   .     S
C722   C734    1.497   .     S
C722   C724    1.412   .     A
C723   C733    1.484   .     S
C723   C725    1.407   .     A
C724   C729    1.402   .     A
C724   C726    1.416   .     A
C725   C730    1.394   .     A
C725   C728    1.405   .     A
C726   C1538   1.417   .     S
C727   H760    1.085   .     S
C727   C746    1.391   .     A
C727   C730    1.399   .     A
C728   C1539   1.426   1_554 S
C729   C738    1.402   .     A
C729   C1522   1.393   .     S
C730   C1521   1.393   1_554 S
C731   C746    1.472   .     S
C731   O790    1.219   .     D
C731   H762    1.085   .     S
C732   O772    1.218   .     D
C732   H763    1.085   .     S
C732   C747    1.475   .     S
C733   O773    1.221   .     D
C733   H764    1.085   .     S
C734   O774    1.221   .     D
C734   H765    1.080   .     S
C735   N769    1.158   .     T
C736   N770    1.158   .     T
C737   H766    1.082   .     S
C737   C748    1.495   .     S
C737   O775    1.220   .     D
C738   H761    1.083   .     S
C738   C747    1.402   .     A
C739   H752    1.083   .     S
C739   O776    1.221   .     D
C739   C749    1.494   .     S
C740   C750    1.498   .     S
C740   O777    1.220   .     D
C740   H753    1.081   .     S
C741   O778    1.220   .     D
C741   H754    1.085   .     S
C742   O779    1.219   .     D
C742   H755    1.073   .     S
C743   O780    1.216   .     D
C743   H756    1.084   .     S
C744   O781    1.216   .     D
C744   H757    1.081   .     S
C745   O783    1.217   .     D
C745   H758    1.082   .     S
C746   C1518   1.417   1_554 S
C747   C1520   1.426   .     S
C748   C222    1.397   1_565 S
N767   Zn791   2.046   .     S
N768   Zn792   2.046   .     S
O771   Zn791   1.980   .     S
O782   Zn792   1.980   .     S
O784   Zn792   1.975   .     S
O785   Zn791   1.975   .     S
O786   Zn791   1.954   .     S
O787   Zn792   1.954   .     S
O788   Zn792   1.937   .     S
O789   Zn791   1.937   .     S
C793   C796    1.454   .     S
C793   O859    1.305   .     A
C793   O872    1.307   .     A
C794   C796    1.406   .     A
C794   C829    1.495   .     S
C794   C1101   1.393   .     S
C795   C804    1.456   .     S
C795   C837    1.408   .     A
C795   C838    1.413   .     A
C796   C836    1.405   .     A
C797   C830    1.488   .     S
C797   N856    1.376   .     A
C797   C887    1.441   .     S
C798   N855    1.380   .     A
C798   C831    1.480   .     S
C798   C976    1.433   1_455 S
C799   C832    1.472   .     S
C799   N855    1.379   .     A
C799   C973    1.441   1_455 S
C800   C833    1.474   .     S
C800   N856    1.373   .     A
C800   C886    1.433   .     S
C801   O874    1.312   .     A
C801   C803    1.479   .     S
C801   O876    1.311   .     A
C802   O877    1.311   .     A
C802   O875    1.315   .     A
C802   C805    1.491   .     S
C803   C810    1.415   .     A
C803   C808    1.410   .     A
C804   O870    1.302   .     A
C804   O873    1.311   .     A
C805   C811    1.419   .     A
C805   C809    1.421   .     A
C806   C808    1.390   .     A
C806   H839    1.066   .     S
C806   C814    1.396   .     A
C807   H847    1.062   .     S
C807   C816    1.395   .     A
C807   C809    1.398   .     A
C808   C824    1.446   .     S
C809   C823    1.446   .     S
C810   C822    1.497   .     S
C810   C812    1.412   .     A
C811   C821    1.484   .     S
C811   C813    1.407   .     A
C812   C817    1.402   .     A
C812   C814    1.416   .     A
C813   C818    1.394   .     A
C813   C816    1.405   .     A
C814   C42     1.417   1_556 S
C815   H848    1.085   .     S
C815   C834    1.391   .     A
C815   C818    1.399   .     A
C817   C826    1.402   .     A
C817   C26     1.393   1_556 S
C819   C834    1.472   .     S
C819   O878    1.219   .     D
C819   H850    1.085   .     S
C820   O860    1.218   .     D
C820   H851    1.085   .     S
C820   C835    1.475   .     S
C821   O861    1.221   .     D
C821   H852    1.085   .     S
C822   O862    1.221   .     D
C822   H853    1.080   .     S
C823   N857    1.158   .     T
C824   N858    1.158   .     T
C825   H854    1.082   .     S
C825   C836    1.495   .     S
C825   O863    1.220   .     D
C826   H849    1.083   .     S
C826   C835    1.402   .     A
C827   H840    1.083   .     S
C827   O864    1.221   .     D
C827   C837    1.494   .     S
C828   C838    1.498   .     S
C828   O865    1.220   .     D
C828   H841    1.081   .     S
C829   O866    1.220   .     D
C829   H842    1.085   .     S
C830   O867    1.219   .     D
C830   H843    1.073   .     S
C831   O868    1.216   .     D
C831   H844    1.084   .     S
C832   O869    1.216   .     D
C832   H845    1.081   .     S
C833   O871    1.217   .     D
C833   H846    1.082   .     S
C835   C24     1.426   1_556 S
C836   C1102   1.397   .     S
C837   C1322   1.393   1_545 S
C838   C1364   1.397   1_545 S
N855   Zn879   2.046   .     S
N856   Zn880   2.046   .     S
O859   Zn879   1.980   .     S
O870   Zn880   1.980   .     S
O872   Zn880   1.975   .     S
O873   Zn879   1.975   .     S
O874   Zn879   1.954   .     S
O875   Zn880   1.954   .     S
O876   Zn880   1.937   .     S
O877   Zn879   1.937   .     S
C881   C884    1.454   .     S
C881   O947    1.305   .     A
C881   O960    1.307   .     A
C882   C884    1.406   .     A
C882   C917    1.495   .     S
C882   C1189   1.393   .     S
C883   C892    1.456   .     S
C883   C925    1.408   .     A
C883   C926    1.413   .     A
C884   C924    1.405   .     A
C885   C918    1.488   .     S
C885   N944    1.376   .     A
C885   C975    1.441   .     S
C886   N943    1.380   .     A
C886   C919    1.480   .     S
C887   C920    1.472   .     S
C887   N943    1.379   .     A
C888   C921    1.474   .     S
C888   N944    1.373   .     A
C888   C974    1.433   .     S
C889   O962    1.312   .     A
C889   C891    1.479   .     S
C889   O964    1.311   .     A
C890   O965    1.311   .     A
C890   O963    1.315   .     A
C890   C893    1.491   .     S
C891   C898    1.415   .     A
C891   C896    1.410   .     A
C892   O958    1.302   .     A
C892   O961    1.311   .     A
C893   C899    1.419   .     A
C893   C897    1.421   .     A
C894   C896    1.390   .     A
C894   H927    1.066   .     S
C894   C902    1.396   .     A
C895   H935    1.062   .     S
C895   C904    1.395   .     A
C895   C897    1.398   .     A
C896   C912    1.446   .     S
C897   C911    1.446   .     S
C898   C910    1.497   .     S
C898   C900    1.412   .     A
C899   C909    1.484   .     S
C899   C901    1.407   .     A
C900   C905    1.402   .     A
C900   C902    1.416   .     A
C901   C906    1.394   .     A
C901   C904    1.405   .     A
C902   C130    1.417   1_556 S
C903   H936    1.085   .     S
C903   C922    1.391   .     A
C903   C906    1.399   .     A
C905   C914    1.402   .     A
C905   C114    1.393   1_556 S
C907   C922    1.472   .     S
C907   O966    1.219   .     D
C907   H938    1.085   .     S
C908   O948    1.218   .     D
C908   H939    1.085   .     S
C908   C923    1.475   .     S
C909   O949    1.221   .     D
C909   H940    1.085   .     S
C910   O950    1.221   .     D
C910   H941    1.080   .     S
C911   N945    1.158   .     T
C912   N946    1.158   .     T
C913   H942    1.082   .     S
C913   C924    1.495   .     S
C913   O951    1.220   .     D
C914   H937    1.083   .     S
C914   C923    1.402   .     A
C915   H928    1.083   .     S
C915   O952    1.221   .     D
C915   C925    1.494   .     S
C916   C926    1.498   .     S
C916   O953    1.220   .     D
C916   H929    1.081   .     S
C917   O954    1.220   .     D
C917   H930    1.085   .     S
C918   O955    1.219   .     D
C918   H931    1.073   .     S
C919   O956    1.216   .     D
C919   H932    1.084   .     S
C920   O957    1.216   .     D
C920   H933    1.081   .     S
C921   O959    1.217   .     D
C921   H934    1.082   .     S
C923   C112    1.426   1_556 S
C924   C1190   1.397   .     S
C925   C1410   1.393   1_545 S
C926   C1452   1.397   1_545 S
N943   Zn967   2.046   .     S
N944   Zn968   2.046   .     S
O947   Zn967   1.980   .     S
O958   Zn968   1.980   .     S
O960   Zn968   1.975   .     S
O961   Zn967   1.975   .     S
O962   Zn967   1.954   .     S
O963   Zn968   1.954   .     S
O964   Zn968   1.937   .     S
O965   Zn967   1.937   .     S
C969   C972    1.454   .     S
C969   O1035   1.305   .     A
C969   O1048   1.307   .     A
C970   C972    1.406   .     A
C970   C1005   1.495   .     S
C970   C1277   1.393   .     S
C971   C980    1.456   .     S
C971   C1013   1.408   .     A
C971   C1014   1.413   .     A
C972   C1012   1.405   .     A
C973   C1006   1.488   .     S
C973   N1032   1.376   .     A
C973   C799    1.441   1_655 S
C974   N1031   1.380   .     A
C974   C1007   1.480   .     S
C975   C1008   1.472   .     S
C975   N1031   1.379   .     A
C976   C1009   1.474   .     S
C976   N1032   1.373   .     A
C976   C798    1.433   1_655 S
C977   O1050   1.312   .     A
C977   C979    1.479   .     S
C977   O1052   1.311   .     A
C978   O1053   1.311   .     A
C978   O1051   1.315   .     A
C978   C981    1.491   .     S
C979   C986    1.415   .     A
C979   C984    1.410   .     A
C980   O1046   1.302   .     A
C980   O1049   1.311   .     A
C981   C987    1.419   .     A
C981   C985    1.421   .     A
C982   C984    1.390   .     A
C982   H1015   1.066   .     S
C982   C990    1.396   .     A
C983   H1023   1.062   .     S
C983   C992    1.395   .     A
C983   C985    1.398   .     A
C984   C1000   1.446   .     S
C985   C999    1.446   .     S
C986   C998    1.497   .     S
C986   C988    1.412   .     A
C987   C997    1.484   .     S
C987   C989    1.407   .     A
C988   C993    1.402   .     A
C988   C990    1.416   .     A
C989   C994    1.394   .     A
C989   C992    1.405   .     A
C990   C218    1.417   1_556 S
C991   H1024   1.085   .     S
C991   C1010   1.391   .     A
C991   C994    1.399   .     A
C993   C1002   1.402   .     A
C993   C202    1.393   1_556 S
C995   C1010   1.472   .     S
C995   O1054   1.219   .     D
C995   H1026   1.085   .     S
C996   O1036   1.218   .     D
C996   H1027   1.085   .     S
C996   C1011   1.475   .     S
C997   O1037   1.221   .     D
C997   H1028   1.085   .     S
C998   O1038   1.221   .     D
C998   H1029   1.080   .     S
C999   N1033   1.158   .     T
C1000  N1034   1.158   .     T
C1001  H1030   1.082   .     S
C1001  C1012   1.495   .     S
C1001  O1039   1.220   .     D
C1002  H1025   1.083   .     S
C1002  C1011   1.402   .     A
C1003  H1016   1.083   .     S
C1003  O1040   1.221   .     D
C1003  C1013   1.494   .     S
C1004  C1014   1.498   .     S
C1004  O1041   1.220   .     D
C1004  H1017   1.081   .     S
C1005  O1042   1.220   .     D
C1005  H1018   1.085   .     S
C1006  O1043   1.219   .     D
C1006  H1019   1.073   .     S
C1007  O1044   1.216   .     D
C1007  H1020   1.084   .     S
C1008  O1045   1.216   .     D
C1008  H1021   1.081   .     S
C1009  O1047   1.217   .     D
C1009  H1022   1.082   .     S
C1011  C200    1.426   1_556 S
C1012  C1278   1.397   .     S
C1013  C1498   1.393   1_545 S
C1014  C1540   1.397   1_545 S
N1031  Zn1055  2.046   .     S
N1032  Zn1056  2.046   .     S
O1035  Zn1055  1.980   .     S
O1046  Zn1056  1.980   .     S
O1048  Zn1056  1.975   .     S
O1049  Zn1055  1.975   .     S
O1050  Zn1055  1.954   .     S
O1051  Zn1056  1.954   .     S
O1052  Zn1056  1.937   .     S
O1053  Zn1055  1.937   .     S
C1057  C1060   1.454   .     S
C1057  O1123   1.305   .     A
C1057  O1136   1.307   .     A
C1058  C1060   1.406   .     A
C1058  C1093   1.495   .     S
C1058  C1365   1.393   .     S
C1059  C1068   1.456   .     S
C1059  C1101   1.408   .     A
C1059  C1102   1.413   .     A
C1060  C1100   1.405   .     A
C1061  C1094   1.488   .     S
C1061  N1120   1.376   .     A
C1061  C1151   1.441   .     S
C1062  N1119   1.380   .     A
C1062  C1095   1.480   .     S
C1062  C1240   1.433   1_455 S
C1063  C1096   1.472   .     S
C1063  N1119   1.379   .     A
C1063  C1237   1.441   1_455 S
C1064  C1097   1.474   .     S
C1064  N1120   1.373   .     A
C1064  C1150   1.433   .     S
C1065  O1138   1.312   .     A
C1065  C1067   1.479   .     S
C1065  O1140   1.311   .     A
C1066  O1141   1.311   .     A
C1066  O1139   1.315   .     A
C1066  C1069   1.491   .     S
C1067  C1074   1.415   .     A
C1067  C1072   1.410   .     A
C1068  O1134   1.302   .     A
C1068  O1137   1.311   .     A
C1069  C1075   1.419   .     A
C1069  C1073   1.421   .     A
C1070  C1072   1.390   .     A
C1070  H1103   1.066   .     S
C1070  C1078   1.396   .     A
C1071  H1111   1.062   .     S
C1071  C1080   1.395   .     A
C1071  C1073   1.398   .     A
C1072  C1088   1.446   .     S
C1073  C1087   1.446   .     S
C1074  C1086   1.497   .     S
C1074  C1076   1.412   .     A
C1075  C1085   1.484   .     S
C1075  C1077   1.407   .     A
C1076  C1081   1.402   .     A
C1076  C1078   1.416   .     A
C1077  C1082   1.394   .     A
C1077  C1080   1.405   .     A
C1078  C306    1.417   1_556 S
C1079  H1112   1.085   .     S
C1079  C1098   1.391   .     A
C1079  C1082   1.399   .     A
C1081  C1090   1.402   .     A
C1081  C290    1.393   1_556 S
C1083  C1098   1.472   .     S
C1083  O1142   1.219   .     D
C1083  H1114   1.085   .     S
C1084  O1124   1.218   .     D
C1084  H1115   1.085   .     S
C1084  C1099   1.475   .     S
C1085  O1125   1.221   .     D
C1085  H1116   1.085   .     S
C1086  O1126   1.221   .     D
C1086  H1117   1.080   .     S
C1087  N1121   1.158   .     T
C1088  N1122   1.158   .     T
C1089  H1118   1.082   .     S
C1089  C1100   1.495   .     S
C1089  O1127   1.220   .     D
C1090  H1113   1.083   .     S
C1090  C1099   1.402   .     A
C1091  H1104   1.083   .     S
C1091  O1128   1.221   .     D
C1091  C1101   1.494   .     S
C1092  C1102   1.498   .     S
C1092  O1129   1.220   .     D
C1092  H1105   1.081   .     S
C1093  O1130   1.220   .     D
C1093  H1106   1.085   .     S
C1094  O1131   1.219   .     D
C1094  H1107   1.073   .     S
C1095  O1132   1.216   .     D
C1095  H1108   1.084   .     S
C1096  O1133   1.216   .     D
C1096  H1109   1.081   .     S
C1097  O1135   1.217   .     D
C1097  H1110   1.082   .     S
C1099  C288    1.426   1_556 S
C1100  C1366   1.397   .     S
N1119  Zn1143  2.046   .     S
N1120  Zn1144  2.046   .     S
O1123  Zn1143  1.980   .     S
O1134  Zn1144  1.980   .     S
O1136  Zn1144  1.975   .     S
O1137  Zn1143  1.975   .     S
O1138  Zn1143  1.954   .     S
O1139  Zn1144  1.954   .     S
O1140  Zn1144  1.937   .     S
O1141  Zn1143  1.937   .     S
C1145  C1148   1.454   .     S
C1145  O1211   1.305   .     A
C1145  O1224   1.307   .     A
C1146  C1148   1.406   .     A
C1146  C1181   1.495   .     S
C1146  C1453   1.393   .     S
C1147  C1156   1.456   .     S
C1147  C1189   1.408   .     A
C1147  C1190   1.413   .     A
C1148  C1188   1.405   .     A
C1149  C1182   1.488   .     S
C1149  N1208   1.376   .     A
C1149  C1239   1.441   .     S
C1150  N1207   1.380   .     A
C1150  C1183   1.480   .     S
C1151  C1184   1.472   .     S
C1151  N1207   1.379   .     A
C1152  C1185   1.474   .     S
C1152  N1208   1.373   .     A
C1152  C1238   1.433   .     S
C1153  O1226   1.312   .     A
C1153  C1155   1.479   .     S
C1153  O1228   1.311   .     A
C1154  O1229   1.311   .     A
C1154  O1227   1.315   .     A
C1154  C1157   1.491   .     S
C1155  C1162   1.415   .     A
C1155  C1160   1.410   .     A
C1156  O1222   1.302   .     A
C1156  O1225   1.311   .     A
C1157  C1163   1.419   .     A
C1157  C1161   1.421   .     A
C1158  C1160   1.390   .     A
C1158  H1191   1.066   .     S
C1158  C1166   1.396   .     A
C1159  H1199   1.062   .     S
C1159  C1168   1.395   .     A
C1159  C1161   1.398   .     A
C1160  C1176   1.446   .     S
C1161  C1175   1.446   .     S
C1162  C1174   1.497   .     S
C1162  C1164   1.412   .     A
C1163  C1173   1.484   .     S
C1163  C1165   1.407   .     A
C1164  C1169   1.402   .     A
C1164  C1166   1.416   .     A
C1165  C1170   1.394   .     A
C1165  C1168   1.405   .     A
C1166  C394    1.417   1_556 S
C1167  H1200   1.085   .     S
C1167  C1186   1.391   .     A
C1167  C1170   1.399   .     A
C1169  C1178   1.402   .     A
C1169  C378    1.393   1_556 S
C1171  C1186   1.472   .     S
C1171  O1230   1.219   .     D
C1171  H1202   1.085   .     S
C1172  O1212   1.218   .     D
C1172  H1203   1.085   .     S
C1172  C1187   1.475   .     S
C1173  O1213   1.221   .     D
C1173  H1204   1.085   .     S
C1174  O1214   1.221   .     D
C1174  H1205   1.080   .     S
C1175  N1209   1.158   .     T
C1176  N1210   1.158   .     T
C1177  H1206   1.082   .     S
C1177  C1188   1.495   .     S
C1177  O1215   1.220   .     D
C1178  H1201   1.083   .     S
C1178  C1187   1.402   .     A
C1179  H1192   1.083   .     S
C1179  O1216   1.221   .     D
C1179  C1189   1.494   .     S
C1180  C1190   1.498   .     S
C1180  O1217   1.220   .     D
C1180  H1193   1.081   .     S
C1181  O1218   1.220   .     D
C1181  H1194   1.085   .     S
C1182  O1219   1.219   .     D
C1182  H1195   1.073   .     S
C1183  O1220   1.216   .     D
C1183  H1196   1.084   .     S
C1184  O1221   1.216   .     D
C1184  H1197   1.081   .     S
C1185  O1223   1.217   .     D
C1185  H1198   1.082   .     S
C1187  C376    1.426   1_556 S
C1188  C1454   1.397   .     S
N1207  Zn1231  2.046   .     S
N1208  Zn1232  2.046   .     S
O1211  Zn1231  1.980   .     S
O1222  Zn1232  1.980   .     S
O1224  Zn1232  1.975   .     S
O1225  Zn1231  1.975   .     S
O1226  Zn1231  1.954   .     S
O1227  Zn1232  1.954   .     S
O1228  Zn1232  1.937   .     S
O1229  Zn1231  1.937   .     S
C1233  C1236   1.454   .     S
C1233  O1299   1.305   .     A
C1233  O1312   1.307   .     A
C1234  C1236   1.406   .     A
C1234  C1269   1.495   .     S
C1234  C1541   1.393   .     S
C1235  C1244   1.456   .     S
C1235  C1277   1.408   .     A
C1235  C1278   1.413   .     A
C1236  C1276   1.405   .     A
C1237  C1270   1.488   .     S
C1237  N1296   1.376   .     A
C1237  C1063   1.441   1_655 S
C1238  N1295   1.380   .     A
C1238  C1271   1.480   .     S
C1239  C1272   1.472   .     S
C1239  N1295   1.379   .     A
C1240  C1273   1.474   .     S
C1240  N1296   1.373   .     A
C1240  C1062   1.433   1_655 S
C1241  O1314   1.312   .     A
C1241  C1243   1.479   .     S
C1241  O1316   1.311   .     A
C1242  O1317   1.311   .     A
C1242  O1315   1.315   .     A
C1242  C1245   1.491   .     S
C1243  C1250   1.415   .     A
C1243  C1248   1.410   .     A
C1244  O1310   1.302   .     A
C1244  O1313   1.311   .     A
C1245  C1251   1.419   .     A
C1245  C1249   1.421   .     A
C1246  C1248   1.390   .     A
C1246  H1279   1.066   .     S
C1246  C1254   1.396   .     A
C1247  H1287   1.062   .     S
C1247  C1256   1.395   .     A
C1247  C1249   1.398   .     A
C1248  C1264   1.446   .     S
C1249  C1263   1.446   .     S
C1250  C1262   1.497   .     S
C1250  C1252   1.412   .     A
C1251  C1261   1.484   .     S
C1251  C1253   1.407   .     A
C1252  C1257   1.402   .     A
C1252  C1254   1.416   .     A
C1253  C1258   1.394   .     A
C1253  C1256   1.405   .     A
C1254  C482    1.417   1_556 S
C1255  H1288   1.085   .     S
C1255  C1274   1.391   .     A
C1255  C1258   1.399   .     A
C1257  C1266   1.402   .     A
C1257  C466    1.393   1_556 S
C1259  C1274   1.472   .     S
C1259  O1318   1.219   .     D
C1259  H1290   1.085   .     S
C1260  O1300   1.218   .     D
C1260  H1291   1.085   .     S
C1260  C1275   1.475   .     S
C1261  O1301   1.221   .     D
C1261  H1292   1.085   .     S
C1262  O1302   1.221   .     D
C1262  H1293   1.080   .     S
C1263  N1297   1.158   .     T
C1264  N1298   1.158   .     T
C1265  H1294   1.082   .     S
C1265  C1276   1.495   .     S
C1265  O1303   1.220   .     D
C1266  H1289   1.083   .     S
C1266  C1275   1.402   .     A
C1267  H1280   1.083   .     S
C1267  O1304   1.221   .     D
C1267  C1277   1.494   .     S
C1268  C1278   1.498   .     S
C1268  O1305   1.220   .     D
C1268  H1281   1.081   .     S
C1269  O1306   1.220   .     D
C1269  H1282   1.085   .     S
C1270  O1307   1.219   .     D
C1270  H1283   1.073   .     S
C1271  O1308   1.216   .     D
C1271  H1284   1.084   .     S
C1272  O1309   1.216   .     D
C1272  H1285   1.081   .     S
C1273  O1311   1.217   .     D
C1273  H1286   1.082   .     S
C1275  C464    1.426   1_556 S
C1276  C1542   1.397   .     S
N1295  Zn1319  2.046   .     S
N1296  Zn1320  2.046   .     S
O1299  Zn1319  1.980   .     S
O1310  Zn1320  1.980   .     S
O1312  Zn1320  1.975   .     S
O1313  Zn1319  1.975   .     S
O1314  Zn1319  1.954   .     S
O1315  Zn1320  1.954   .     S
O1316  Zn1320  1.937   .     S
O1317  Zn1319  1.937   .     S
C1321  C1324   1.454   .     S
C1321  O1387   1.305   .     A
C1321  O1400   1.307   .     A
C1322  C1324   1.406   .     A
C1322  C1357   1.495   .     S
C1322  C837    1.393   1_565 S
C1323  C1332   1.456   .     S
C1323  C1365   1.408   .     A
C1323  C1366   1.413   .     A
C1324  C1364   1.405   .     A
C1325  C1358   1.488   .     S
C1325  N1384   1.376   .     A
C1325  C1415   1.441   .     S
C1326  N1383   1.380   .     A
C1326  C1359   1.480   .     S
C1326  C1504   1.433   1_455 S
C1327  C1360   1.472   .     S
C1327  N1383   1.379   .     A
C1327  C1501   1.441   1_455 S
C1328  C1361   1.474   .     S
C1328  N1384   1.373   .     A
C1328  C1414   1.433   .     S
C1329  O1402   1.312   .     A
C1329  C1331   1.479   .     S
C1329  O1404   1.311   .     A
C1330  O1405   1.311   .     A
C1330  O1403   1.315   .     A
C1330  C1333   1.491   .     S
C1331  C1338   1.415   .     A
C1331  C1336   1.410   .     A
C1332  O1398   1.302   .     A
C1332  O1401   1.311   .     A
C1333  C1339   1.419   .     A
C1333  C1337   1.421   .     A
C1334  C1336   1.390   .     A
C1334  H1367   1.066   .     S
C1334  C1342   1.396   .     A
C1335  H1375   1.062   .     S
C1335  C1344   1.395   .     A
C1335  C1337   1.398   .     A
C1336  C1352   1.446   .     S
C1337  C1351   1.446   .     S
C1338  C1350   1.497   .     S
C1338  C1340   1.412   .     A
C1339  C1349   1.484   .     S
C1339  C1341   1.407   .     A
C1340  C1345   1.402   .     A
C1340  C1342   1.416   .     A
C1341  C1346   1.394   .     A
C1341  C1344   1.405   .     A
C1342  C570    1.417   1_556 S
C1343  H1376   1.085   .     S
C1343  C1362   1.391   .     A
C1343  C1346   1.399   .     A
C1345  C1354   1.402   .     A
C1345  C554    1.393   1_556 S
C1347  C1362   1.472   .     S
C1347  O1406   1.219   .     D
C1347  H1378   1.085   .     S
C1348  O1388   1.218   .     D
C1348  H1379   1.085   .     S
C1348  C1363   1.475   .     S
C1349  O1389   1.221   .     D
C1349  H1380   1.085   .     S
C1350  O1390   1.221   .     D
C1350  H1381   1.080   .     S
C1351  N1385   1.158   .     T
C1352  N1386   1.158   .     T
C1353  H1382   1.082   .     S
C1353  C1364   1.495   .     S
C1353  O1391   1.220   .     D
C1354  H1377   1.083   .     S
C1354  C1363   1.402   .     A
C1355  H1368   1.083   .     S
C1355  O1392   1.221   .     D
C1355  C1365   1.494   .     S
C1356  C1366   1.498   .     S
C1356  O1393   1.220   .     D
C1356  H1369   1.081   .     S
C1357  O1394   1.220   .     D
C1357  H1370   1.085   .     S
C1358  O1395   1.219   .     D
C1358  H1371   1.073   .     S
C1359  O1396   1.216   .     D
C1359  H1372   1.084   .     S
C1360  O1397   1.216   .     D
C1360  H1373   1.081   .     S
C1361  O1399   1.217   .     D
C1361  H1374   1.082   .     S
C1363  C552    1.426   1_556 S
C1364  C838    1.397   1_565 S
N1383  Zn1407  2.046   .     S
N1384  Zn1408  2.046   .     S
O1387  Zn1407  1.980   .     S
O1398  Zn1408  1.980   .     S
O1400  Zn1408  1.975   .     S
O1401  Zn1407  1.975   .     S
O1402  Zn1407  1.954   .     S
O1403  Zn1408  1.954   .     S
O1404  Zn1408  1.937   .     S
O1405  Zn1407  1.937   .     S
C1409  C1412   1.454   .     S
C1409  O1475   1.305   .     A
C1409  O1488   1.307   .     A
C1410  C1412   1.406   .     A
C1410  C1445   1.495   .     S
C1410  C925    1.393   1_565 S
C1411  C1420   1.456   .     S
C1411  C1453   1.408   .     A
C1411  C1454   1.413   .     A
C1412  C1452   1.405   .     A
C1413  C1446   1.488   .     S
C1413  N1472   1.376   .     A
C1413  C1503   1.441   .     S
C1414  N1471   1.380   .     A
C1414  C1447   1.480   .     S
C1415  C1448   1.472   .     S
C1415  N1471   1.379   .     A
C1416  C1449   1.474   .     S
C1416  N1472   1.373   .     A
C1416  C1502   1.433   .     S
C1417  O1490   1.312   .     A
C1417  C1419   1.479   .     S
C1417  O1492   1.311   .     A
C1418  O1493   1.311   .     A
C1418  O1491   1.315   .     A
C1418  C1421   1.491   .     S
C1419  C1426   1.415   .     A
C1419  C1424   1.410   .     A
C1420  O1486   1.302   .     A
C1420  O1489   1.311   .     A
C1421  C1427   1.419   .     A
C1421  C1425   1.421   .     A
C1422  C1424   1.390   .     A
C1422  H1455   1.066   .     S
C1422  C1430   1.396   .     A
C1423  H1463   1.062   .     S
C1423  C1432   1.395   .     A
C1423  C1425   1.398   .     A
C1424  C1440   1.446   .     S
C1425  C1439   1.446   .     S
C1426  C1438   1.497   .     S
C1426  C1428   1.412   .     A
C1427  C1437   1.484   .     S
C1427  C1429   1.407   .     A
C1428  C1433   1.402   .     A
C1428  C1430   1.416   .     A
C1429  C1434   1.394   .     A
C1429  C1432   1.405   .     A
C1430  C658    1.417   1_556 S
C1431  H1464   1.085   .     S
C1431  C1450   1.391   .     A
C1431  C1434   1.399   .     A
C1433  C1442   1.402   .     A
C1433  C642    1.393   1_556 S
C1435  C1450   1.472   .     S
C1435  O1494   1.219   .     D
C1435  H1466   1.085   .     S
C1436  O1476   1.218   .     D
C1436  H1467   1.085   .     S
C1436  C1451   1.475   .     S
C1437  O1477   1.221   .     D
C1437  H1468   1.085   .     S
C1438  O1478   1.221   .     D
C1438  H1469   1.080   .     S
C1439  N1473   1.158   .     T
C1440  N1474   1.158   .     T
C1441  H1470   1.082   .     S
C1441  C1452   1.495   .     S
C1441  O1479   1.220   .     D
C1442  H1465   1.083   .     S
C1442  C1451   1.402   .     A
C1443  H1456   1.083   .     S
C1443  O1480   1.221   .     D
C1443  C1453   1.494   .     S
C1444  C1454   1.498   .     S
C1444  O1481   1.220   .     D
C1444  H1457   1.081   .     S
C1445  O1482   1.220   .     D
C1445  H1458   1.085   .     S
C1446  O1483   1.219   .     D
C1446  H1459   1.073   .     S
C1447  O1484   1.216   .     D
C1447  H1460   1.084   .     S
C1448  O1485   1.216   .     D
C1448  H1461   1.081   .     S
C1449  O1487   1.217   .     D
C1449  H1462   1.082   .     S
C1451  C640    1.426   1_556 S
C1452  C926    1.397   1_565 S
N1471  Zn1495  2.046   .     S
N1472  Zn1496  2.046   .     S
O1475  Zn1495  1.980   .     S
O1486  Zn1496  1.980   .     S
O1488  Zn1496  1.975   .     S
O1489  Zn1495  1.975   .     S
O1490  Zn1495  1.954   .     S
O1491  Zn1496  1.954   .     S
O1492  Zn1496  1.937   .     S
O1493  Zn1495  1.937   .     S
C1497  C1500   1.454   .     S
C1497  O1563   1.305   .     A
C1497  O1576   1.307   .     A
C1498  C1500   1.406   .     A
C1498  C1533   1.495   .     S
C1498  C1013   1.393   1_565 S
C1499  C1508   1.456   .     S
C1499  C1541   1.408   .     A
C1499  C1542   1.413   .     A
C1500  C1540   1.405   .     A
C1501  C1534   1.488   .     S
C1501  N1560   1.376   .     A
C1501  C1327   1.441   1_655 S
C1502  N1559   1.380   .     A
C1502  C1535   1.480   .     S
C1503  C1536   1.472   .     S
C1503  N1559   1.379   .     A
C1504  C1537   1.474   .     S
C1504  N1560   1.373   .     A
C1504  C1326   1.433   1_655 S
C1505  O1578   1.312   .     A
C1505  C1507   1.479   .     S
C1505  O1580   1.311   .     A
C1506  O1581   1.311   .     A
C1506  O1579   1.315   .     A
C1506  C1509   1.491   .     S
C1507  C1514   1.415   .     A
C1507  C1512   1.410   .     A
C1508  O1574   1.302   .     A
C1508  O1577   1.311   .     A
C1509  C1515   1.419   .     A
C1509  C1513   1.421   .     A
C1510  C1512   1.390   .     A
C1510  H1543   1.066   .     S
C1510  C1518   1.396   .     A
C1511  H1551   1.062   .     S
C1511  C1520   1.395   .     A
C1511  C1513   1.398   .     A
C1512  C1528   1.446   .     S
C1513  C1527   1.446   .     S
C1514  C1526   1.497   .     S
C1514  C1516   1.412   .     A
C1515  C1525   1.484   .     S
C1515  C1517   1.407   .     A
C1516  C1521   1.402   .     A
C1516  C1518   1.416   .     A
C1517  C1522   1.394   .     A
C1517  C1520   1.405   .     A
C1518  C746    1.417   1_556 S
C1519  H1552   1.085   .     S
C1519  C1538   1.391   .     A
C1519  C1522   1.399   .     A
C1521  C1530   1.402   .     A
C1521  C730    1.393   1_556 S
C1523  C1538   1.472   .     S
C1523  O1582   1.219   .     D
C1523  H1554   1.085   .     S
C1524  O1564   1.218   .     D
C1524  H1555   1.085   .     S
C1524  C1539   1.475   .     S
C1525  O1565   1.221   .     D
C1525  H1556   1.085   .     S
C1526  O1566   1.221   .     D
C1526  H1557   1.080   .     S
C1527  N1561   1.158   .     T
C1528  N1562   1.158   .     T
C1529  H1558   1.082   .     S
C1529  C1540   1.495   .     S
C1529  O1567   1.220   .     D
C1530  H1553   1.083   .     S
C1530  C1539   1.402   .     A
C1531  H1544   1.083   .     S
C1531  O1568   1.221   .     D
C1531  C1541   1.494   .     S
C1532  C1542   1.498   .     S
C1532  O1569   1.220   .     D
C1532  H1545   1.081   .     S
C1533  O1570   1.220   .     D
C1533  H1546   1.085   .     S
C1534  O1571   1.219   .     D
C1534  H1547   1.073   .     S
C1535  O1572   1.216   .     D
C1535  H1548   1.084   .     S
C1536  O1573   1.216   .     D
C1536  H1549   1.081   .     S
C1537  O1575   1.217   .     D
C1537  H1550   1.082   .     S
C1539  C728    1.426   1_556 S
C1540  C1014   1.397   1_565 S
N1559  Zn1583  2.046   .     S
N1560  Zn1584  2.046   .     S
O1563  Zn1583  1.980   .     S
O1574  Zn1584  1.980   .     S
O1576  Zn1584  1.975   .     S
O1577  Zn1583  1.975   .     S
O1578  Zn1583  1.954   .     S
O1579  Zn1584  1.954   .     S
O1580  Zn1584  1.937   .     S
O1581  Zn1583  1.937   .     S
