data_str_m2_o10_o16_pcu_sym.175
_audit_creation_date              2020-01-03
_audit_creation_method            'Materials Studio'
_symmetry_space_group_name_H-M    'P1'
_symmetry_Int_Tables_number       1
_symmetry_cell_setting            triclinic
loop_
_symmetry_equiv_pos_as_xyz
  x,y,z
_cell_length_a                    22.4073
_cell_length_b                    26.0649
_cell_length_c                    26.8292
_cell_angle_alpha                 94.8774
_cell_angle_beta                  77.6054
_cell_angle_gamma                 103.3123
loop_
_atom_site_label
_atom_site_type_symbol
_atom_site_fract_x
_atom_site_fract_y
_atom_site_fract_z
_atom_site_U_iso_or_equiv
_atom_site_adp_type
_atom_site_occupancy
C1     C     0.18171   0.26672   0.25179   0.00000  Uiso   1.00
C2     C     0.14612   0.14956   0.48310   0.00000  Uiso   1.00
C3     C     0.15742   0.17358   0.43542   0.00000  Uiso   1.00
C4     C     0.19126   0.16590   0.01456   0.00000  Uiso   1.00
C5     C     0.25108   0.19708   0.49457   0.00000  Uiso   1.00
C6     C     0.26180   0.21940   0.44734   0.00000  Uiso   1.00
C7     C     0.21396   0.21113   0.42026   0.00000  Uiso   1.00
C8     C     0.17601   0.15790   0.06701   0.00000  Uiso   1.00
C9     C     0.28262   0.19691   0.07542   0.00000  Uiso   1.00
C10    C     0.11289   0.15849   0.40324   0.00000  Uiso   1.00
C11    C     0.18987   0.32275   0.25313   0.00000  Uiso   1.00
C12    C     0.13317   0.16492   0.34733   0.00000  Uiso   1.00
C13    C     0.14305   0.01055   0.24772   0.00000  Uiso   1.00
C14    C     0.15147   0.06661   0.24857   0.00000  Uiso   1.00
C15    C     0.20033   0.16968   0.15303   0.00000  Uiso   1.00
C16    C     0.29743   0.20968   0.02418   0.00000  Uiso   1.00
C17    C     0.22082   0.17356   0.09760   0.00000  Uiso   1.00
C18    C     0.05310   0.12763   0.42282   0.00000  Uiso   1.00
C19    C     0.04333   0.10274   0.46902   0.00000  Uiso   1.00
C20    C     0.09100   0.10947   0.49638   0.00000  Uiso   1.00
Cu21   Cu    0.10710   0.16105   0.24435   0.00000  Uiso   1.00
Cu22   Cu    0.22623   0.17228   0.25564   0.00000  Uiso   1.00
H23    H     0.31806   0.20901   0.09843   0.00000  Uiso   1.00
H24    H     0.09807   0.31989   0.24246   0.00000  Uiso   1.00
H25    H     0.00306   0.20544   0.29063   0.00000  Uiso   1.00
H26    H     0.30576   0.24629   0.43297   0.00000  Uiso   1.00
H27    H     0.01068   0.23183   0.00850   0.00000  Uiso   1.00
H28    H     0.12782   0.14342   0.08511   0.00000  Uiso   1.00
H29    H     0.00033   0.07392   0.48124   0.00000  Uiso   1.00
H30    H     0.22210   0.23465   0.38717   0.00000  Uiso   1.00
H31    H     0.23475   0.01337   0.25862   0.00000  Uiso   1.00
N32    N     0.31574   0.18074   0.26416   0.00000  Uiso   1.00
N33    N     0.01759   0.15259   0.23584   0.00000  Uiso   1.00
O34    O     0.12797   0.23807   0.24633   0.00000  Uiso   1.00
O35    O     0.22858   0.24755   0.25586   0.00000  Uiso   1.00
O36    O     0.09181   0.15960   0.31839   0.00000  Uiso   1.00
O37    O     0.19242   0.16908   0.32793   0.00000  Uiso   1.00
O38    O     0.10476   0.08578   0.24413   0.00000  Uiso   1.00
O39    O     0.20536   0.09526   0.25367   0.00000  Uiso   1.00
O40    O     0.14092   0.16425   0.17207   0.00000  Uiso   1.00
O41    O     0.24152   0.17373   0.18160   0.00000  Uiso   1.00
I42    I     0.32542   0.09930   0.17782   0.00000  Uiso   1.00
O43    O     0.00704   0.11787   0.39411   0.00000  Uiso   1.00
H44    H     0.30138   0.09638   0.41384   0.00000  Uiso   1.00
I45    I     0.08177   0.04534   0.04414   0.00000  Uiso   1.00
C46    C     0.51504   0.26672   0.25179   0.00000  Uiso   1.00
C47    C     0.47945   0.14956   0.48310   0.00000  Uiso   1.00
C48    C     0.49075   0.17358   0.43542   0.00000  Uiso   1.00
C49    C     0.52459   0.16590   0.01456   0.00000  Uiso   1.00
C50    C     0.58442   0.19708   0.49457   0.00000  Uiso   1.00
C51    C     0.59513   0.21940   0.44734   0.00000  Uiso   1.00
C52    C     0.54729   0.21113   0.42026   0.00000  Uiso   1.00
C53    C     0.50935   0.15790   0.06701   0.00000  Uiso   1.00
C54    C     0.61595   0.19691   0.07542   0.00000  Uiso   1.00
C55    C     0.44622   0.15849   0.40324   0.00000  Uiso   1.00
C56    C     0.52320   0.32275   0.25313   0.00000  Uiso   1.00
C57    C     0.46650   0.16492   0.34733   0.00000  Uiso   1.00
C58    C     0.47639   0.01055   0.24772   0.00000  Uiso   1.00
C59    C     0.48480   0.06661   0.24857   0.00000  Uiso   1.00
C60    C     0.53367   0.16968   0.15303   0.00000  Uiso   1.00
C61    C     0.63076   0.20968   0.02418   0.00000  Uiso   1.00
C62    C     0.55415   0.17356   0.09760   0.00000  Uiso   1.00
C63    C     0.38644   0.12763   0.42282   0.00000  Uiso   1.00
C64    C     0.37667   0.10274   0.46902   0.00000  Uiso   1.00
C65    C     0.42433   0.10947   0.49638   0.00000  Uiso   1.00
Cu66   Cu    0.44043   0.16105   0.24435   0.00000  Uiso   1.00
Cu67   Cu    0.55957   0.17228   0.25564   0.00000  Uiso   1.00
H68    H     0.65139   0.20901   0.09843   0.00000  Uiso   1.00
H69    H     0.43140   0.31989   0.24246   0.00000  Uiso   1.00
H70    H     0.33639   0.20544   0.29063   0.00000  Uiso   1.00
H71    H     0.63910   0.24629   0.43297   0.00000  Uiso   1.00
H72    H     0.34401   0.23183   0.00850   0.00000  Uiso   1.00
H73    H     0.46115   0.14342   0.08511   0.00000  Uiso   1.00
H74    H     0.33367   0.07392   0.48124   0.00000  Uiso   1.00
H75    H     0.55544   0.23465   0.38717   0.00000  Uiso   1.00
H76    H     0.56809   0.01337   0.25862   0.00000  Uiso   1.00
N77    N     0.64908   0.18074   0.26416   0.00000  Uiso   1.00
N78    N     0.35092   0.15259   0.23584   0.00000  Uiso   1.00
O79    O     0.46131   0.23807   0.24633   0.00000  Uiso   1.00
O80    O     0.56191   0.24755   0.25586   0.00000  Uiso   1.00
O81    O     0.42515   0.15960   0.31839   0.00000  Uiso   1.00
O82    O     0.52575   0.16908   0.32793   0.00000  Uiso   1.00
O83    O     0.43809   0.08578   0.24413   0.00000  Uiso   1.00
O84    O     0.53869   0.09526   0.25367   0.00000  Uiso   1.00
O85    O     0.47425   0.16425   0.17207   0.00000  Uiso   1.00
O86    O     0.57485   0.17373   0.18160   0.00000  Uiso   1.00
I87    I     0.65875   0.09930   0.17782   0.00000  Uiso   1.00
O88    O     0.34037   0.11787   0.39411   0.00000  Uiso   1.00
H89    H     0.63471   0.09638   0.41384   0.00000  Uiso   1.00
I90    I     0.41510   0.04534   0.04414   0.00000  Uiso   1.00
C91    C     0.84837   0.26672   0.25179   0.00000  Uiso   1.00
C92    C     0.81279   0.14956   0.48310   0.00000  Uiso   1.00
C93    C     0.82409   0.17358   0.43542   0.00000  Uiso   1.00
C94    C     0.85792   0.16590   0.01456   0.00000  Uiso   1.00
C95    C     0.91775   0.19708   0.49457   0.00000  Uiso   1.00
C96    C     0.92846   0.21940   0.44734   0.00000  Uiso   1.00
C97    C     0.88062   0.21113   0.42026   0.00000  Uiso   1.00
C98    C     0.84268   0.15790   0.06701   0.00000  Uiso   1.00
C99    C     0.94928   0.19691   0.07542   0.00000  Uiso   1.00
C100   C     0.77956   0.15849   0.40324   0.00000  Uiso   1.00
C101   C     0.85654   0.32275   0.25313   0.00000  Uiso   1.00
C102   C     0.79984   0.16492   0.34733   0.00000  Uiso   1.00
C103   C     0.80972   0.01055   0.24772   0.00000  Uiso   1.00
C104   C     0.81813   0.06661   0.24857   0.00000  Uiso   1.00
C105   C     0.86700   0.16968   0.15303   0.00000  Uiso   1.00
C106   C     0.96409   0.20968   0.02418   0.00000  Uiso   1.00
C107   C     0.88748   0.17356   0.09760   0.00000  Uiso   1.00
C108   C     0.71977   0.12763   0.42282   0.00000  Uiso   1.00
C109   C     0.71000   0.10274   0.46902   0.00000  Uiso   1.00
C110   C     0.75766   0.10947   0.49638   0.00000  Uiso   1.00
Cu111  Cu    0.77377   0.16105   0.24435   0.00000  Uiso   1.00
Cu112  Cu    0.89290   0.17228   0.25564   0.00000  Uiso   1.00
H113   H     0.98473   0.20901   0.09843   0.00000  Uiso   1.00
H114   H     0.76473   0.31989   0.24246   0.00000  Uiso   1.00
H115   H     0.66973   0.20544   0.29063   0.00000  Uiso   1.00
H116   H     0.97243   0.24629   0.43297   0.00000  Uiso   1.00
H117   H     0.67734   0.23183   0.00850   0.00000  Uiso   1.00
H118   H     0.79448   0.14342   0.08511   0.00000  Uiso   1.00
H119   H     0.66700   0.07392   0.48124   0.00000  Uiso   1.00
H120   H     0.88877   0.23465   0.38717   0.00000  Uiso   1.00
H121   H     0.90142   0.01337   0.25862   0.00000  Uiso   1.00
N122   N     0.98241   0.18074   0.26416   0.00000  Uiso   1.00
N123   N     0.68426   0.15259   0.23584   0.00000  Uiso   1.00
O124   O     0.79464   0.23807   0.24633   0.00000  Uiso   1.00
O125   O     0.89524   0.24755   0.25586   0.00000  Uiso   1.00
O126   O     0.75848   0.15960   0.31839   0.00000  Uiso   1.00
O127   O     0.85908   0.16908   0.32793   0.00000  Uiso   1.00
O128   O     0.77142   0.08578   0.24413   0.00000  Uiso   1.00
O129   O     0.87203   0.09526   0.25367   0.00000  Uiso   1.00
O130   O     0.80758   0.16425   0.17207   0.00000  Uiso   1.00
O131   O     0.90819   0.17373   0.18160   0.00000  Uiso   1.00
I132   I     0.99208   0.09930   0.17782   0.00000  Uiso   1.00
O133   O     0.67371   0.11787   0.39411   0.00000  Uiso   1.00
H134   H     0.96805   0.09638   0.41384   0.00000  Uiso   1.00
I135   I     0.74844   0.04534   0.04414   0.00000  Uiso   1.00
C136   C     0.18171   0.60005   0.25179   0.00000  Uiso   1.00
C137   C     0.14612   0.48289   0.48310   0.00000  Uiso   1.00
C138   C     0.15742   0.50691   0.43542   0.00000  Uiso   1.00
C139   C     0.19126   0.49923   0.01456   0.00000  Uiso   1.00
C140   C     0.25108   0.53041   0.49457   0.00000  Uiso   1.00
C141   C     0.26180   0.55273   0.44734   0.00000  Uiso   1.00
C142   C     0.21396   0.54446   0.42026   0.00000  Uiso   1.00
C143   C     0.17601   0.49124   0.06701   0.00000  Uiso   1.00
C144   C     0.28262   0.53025   0.07542   0.00000  Uiso   1.00
C145   C     0.11289   0.49182   0.40324   0.00000  Uiso   1.00
C146   C     0.18987   0.65609   0.25313   0.00000  Uiso   1.00
C147   C     0.13317   0.49825   0.34733   0.00000  Uiso   1.00
C148   C     0.14305   0.34388   0.24772   0.00000  Uiso   1.00
C149   C     0.15147   0.39994   0.24857   0.00000  Uiso   1.00
C150   C     0.20033   0.50301   0.15303   0.00000  Uiso   1.00
C151   C     0.29743   0.54302   0.02418   0.00000  Uiso   1.00
C152   C     0.22082   0.50690   0.09760   0.00000  Uiso   1.00
C153   C     0.05310   0.46097   0.42282   0.00000  Uiso   1.00
C154   C     0.04333   0.43607   0.46902   0.00000  Uiso   1.00
C155   C     0.09100   0.44280   0.49638   0.00000  Uiso   1.00
Cu156  Cu    0.10710   0.49439   0.24435   0.00000  Uiso   1.00
Cu157  Cu    0.22623   0.50561   0.25564   0.00000  Uiso   1.00
H158   H     0.31806   0.54234   0.09843   0.00000  Uiso   1.00
H159   H     0.09807   0.65323   0.24246   0.00000  Uiso   1.00
H160   H     0.00306   0.53877   0.29063   0.00000  Uiso   1.00
H161   H     0.30576   0.57962   0.43297   0.00000  Uiso   1.00
H162   H     0.01068   0.56516   0.00850   0.00000  Uiso   1.00
H163   H     0.12782   0.47675   0.08511   0.00000  Uiso   1.00
H164   H     0.00033   0.40725   0.48124   0.00000  Uiso   1.00
H165   H     0.22210   0.56798   0.38717   0.00000  Uiso   1.00
H166   H     0.23475   0.34671   0.25862   0.00000  Uiso   1.00
N167   N     0.31574   0.51407   0.26416   0.00000  Uiso   1.00
N168   N     0.01759   0.48593   0.23584   0.00000  Uiso   1.00
O169   O     0.12797   0.57141   0.24633   0.00000  Uiso   1.00
O170   O     0.22858   0.58089   0.25586   0.00000  Uiso   1.00
O171   O     0.09181   0.49293   0.31839   0.00000  Uiso   1.00
O172   O     0.19242   0.50241   0.32793   0.00000  Uiso   1.00
O173   O     0.10476   0.41911   0.24413   0.00000  Uiso   1.00
O174   O     0.20536   0.42859   0.25367   0.00000  Uiso   1.00
O175   O     0.14092   0.49759   0.17207   0.00000  Uiso   1.00
O176   O     0.24152   0.50707   0.18160   0.00000  Uiso   1.00
I177   I     0.32542   0.43263   0.17782   0.00000  Uiso   1.00
O178   O     0.00704   0.45121   0.39411   0.00000  Uiso   1.00
H179   H     0.30138   0.42971   0.41384   0.00000  Uiso   1.00
I180   I     0.08177   0.37867   0.04414   0.00000  Uiso   1.00
C181   C     0.51504   0.60005   0.25179   0.00000  Uiso   1.00
C182   C     0.47945   0.48289   0.48310   0.00000  Uiso   1.00
C183   C     0.49075   0.50691   0.43542   0.00000  Uiso   1.00
C184   C     0.52459   0.49923   0.01456   0.00000  Uiso   1.00
C185   C     0.58442   0.53041   0.49457   0.00000  Uiso   1.00
C186   C     0.59513   0.55273   0.44734   0.00000  Uiso   1.00
C187   C     0.54729   0.54446   0.42026   0.00000  Uiso   1.00
C188   C     0.50935   0.49124   0.06701   0.00000  Uiso   1.00
C189   C     0.61595   0.53025   0.07542   0.00000  Uiso   1.00
C190   C     0.44622   0.49182   0.40324   0.00000  Uiso   1.00
C191   C     0.52320   0.65609   0.25313   0.00000  Uiso   1.00
C192   C     0.46650   0.49825   0.34733   0.00000  Uiso   1.00
C193   C     0.47639   0.34388   0.24772   0.00000  Uiso   1.00
C194   C     0.48480   0.39994   0.24857   0.00000  Uiso   1.00
C195   C     0.53367   0.50301   0.15303   0.00000  Uiso   1.00
C196   C     0.63076   0.54302   0.02418   0.00000  Uiso   1.00
C197   C     0.55415   0.50690   0.09760   0.00000  Uiso   1.00
C198   C     0.38644   0.46097   0.42282   0.00000  Uiso   1.00
C199   C     0.37667   0.43607   0.46902   0.00000  Uiso   1.00
C200   C     0.42433   0.44280   0.49638   0.00000  Uiso   1.00
Cu201  Cu    0.44043   0.49439   0.24435   0.00000  Uiso   1.00
Cu202  Cu    0.55957   0.50561   0.25564   0.00000  Uiso   1.00
H203   H     0.65139   0.54234   0.09843   0.00000  Uiso   1.00
H204   H     0.43140   0.65323   0.24246   0.00000  Uiso   1.00
H205   H     0.33639   0.53877   0.29063   0.00000  Uiso   1.00
H206   H     0.63910   0.57962   0.43297   0.00000  Uiso   1.00
H207   H     0.34401   0.56516   0.00850   0.00000  Uiso   1.00
H208   H     0.46115   0.47675   0.08511   0.00000  Uiso   1.00
H209   H     0.33367   0.40725   0.48124   0.00000  Uiso   1.00
H210   H     0.55544   0.56798   0.38717   0.00000  Uiso   1.00
H211   H     0.56809   0.34671   0.25862   0.00000  Uiso   1.00
N212   N     0.64908   0.51407   0.26416   0.00000  Uiso   1.00
N213   N     0.35092   0.48593   0.23584   0.00000  Uiso   1.00
O214   O     0.46131   0.57141   0.24633   0.00000  Uiso   1.00
O215   O     0.56191   0.58089   0.25586   0.00000  Uiso   1.00
O216   O     0.42515   0.49293   0.31839   0.00000  Uiso   1.00
O217   O     0.52575   0.50241   0.32793   0.00000  Uiso   1.00
O218   O     0.43809   0.41911   0.24413   0.00000  Uiso   1.00
O219   O     0.53869   0.42859   0.25367   0.00000  Uiso   1.00
O220   O     0.47425   0.49759   0.17207   0.00000  Uiso   1.00
O221   O     0.57485   0.50707   0.18160   0.00000  Uiso   1.00
I222   I     0.65875   0.43263   0.17782   0.00000  Uiso   1.00
O223   O     0.34037   0.45121   0.39411   0.00000  Uiso   1.00
H224   H     0.63471   0.42971   0.41384   0.00000  Uiso   1.00
I225   I     0.41510   0.37867   0.04414   0.00000  Uiso   1.00
C226   C     0.84837   0.60005   0.25179   0.00000  Uiso   1.00
C227   C     0.81279   0.48289   0.48310   0.00000  Uiso   1.00
C228   C     0.82409   0.50691   0.43542   0.00000  Uiso   1.00
C229   C     0.85792   0.49923   0.01456   0.00000  Uiso   1.00
C230   C     0.91775   0.53041   0.49457   0.00000  Uiso   1.00
C231   C     0.92846   0.55273   0.44734   0.00000  Uiso   1.00
C232   C     0.88062   0.54446   0.42026   0.00000  Uiso   1.00
C233   C     0.84268   0.49124   0.06701   0.00000  Uiso   1.00
C234   C     0.94928   0.53025   0.07542   0.00000  Uiso   1.00
C235   C     0.77956   0.49182   0.40324   0.00000  Uiso   1.00
C236   C     0.85654   0.65609   0.25313   0.00000  Uiso   1.00
C237   C     0.79984   0.49825   0.34733   0.00000  Uiso   1.00
C238   C     0.80972   0.34388   0.24772   0.00000  Uiso   1.00
C239   C     0.81813   0.39994   0.24857   0.00000  Uiso   1.00
C240   C     0.86700   0.50301   0.15303   0.00000  Uiso   1.00
C241   C     0.96409   0.54302   0.02418   0.00000  Uiso   1.00
C242   C     0.88748   0.50690   0.09760   0.00000  Uiso   1.00
C243   C     0.71977   0.46097   0.42282   0.00000  Uiso   1.00
C244   C     0.71000   0.43607   0.46902   0.00000  Uiso   1.00
C245   C     0.75766   0.44280   0.49638   0.00000  Uiso   1.00
Cu246  Cu    0.77377   0.49439   0.24435   0.00000  Uiso   1.00
Cu247  Cu    0.89290   0.50561   0.25564   0.00000  Uiso   1.00
H248   H     0.98473   0.54234   0.09843   0.00000  Uiso   1.00
H249   H     0.76473   0.65323   0.24246   0.00000  Uiso   1.00
H250   H     0.66973   0.53877   0.29063   0.00000  Uiso   1.00
H251   H     0.97243   0.57962   0.43297   0.00000  Uiso   1.00
H252   H     0.67734   0.56516   0.00850   0.00000  Uiso   1.00
H253   H     0.79448   0.47675   0.08511   0.00000  Uiso   1.00
H254   H     0.66700   0.40725   0.48124   0.00000  Uiso   1.00
H255   H     0.88877   0.56798   0.38717   0.00000  Uiso   1.00
H256   H     0.90142   0.34671   0.25862   0.00000  Uiso   1.00
N257   N     0.98241   0.51407   0.26416   0.00000  Uiso   1.00
N258   N     0.68426   0.48593   0.23584   0.00000  Uiso   1.00
O259   O     0.79464   0.57141   0.24633   0.00000  Uiso   1.00
O260   O     0.89524   0.58089   0.25586   0.00000  Uiso   1.00
O261   O     0.75848   0.49293   0.31839   0.00000  Uiso   1.00
O262   O     0.85908   0.50241   0.32793   0.00000  Uiso   1.00
O263   O     0.77142   0.41911   0.24413   0.00000  Uiso   1.00
O264   O     0.87203   0.42859   0.25367   0.00000  Uiso   1.00
O265   O     0.80758   0.49759   0.17207   0.00000  Uiso   1.00
O266   O     0.90819   0.50707   0.18160   0.00000  Uiso   1.00
I267   I     0.99208   0.43263   0.17782   0.00000  Uiso   1.00
O268   O     0.67371   0.45121   0.39411   0.00000  Uiso   1.00
H269   H     0.96805   0.42971   0.41384   0.00000  Uiso   1.00
I270   I     0.74844   0.37867   0.04414   0.00000  Uiso   1.00
C271   C     0.18171   0.93338   0.25179   0.00000  Uiso   1.00
C272   C     0.14612   0.81622   0.48310   0.00000  Uiso   1.00
C273   C     0.15742   0.84024   0.43542   0.00000  Uiso   1.00
C274   C     0.19126   0.83256   0.01456   0.00000  Uiso   1.00
C275   C     0.25108   0.86375   0.49457   0.00000  Uiso   1.00
C276   C     0.26180   0.88606   0.44734   0.00000  Uiso   1.00
C277   C     0.21396   0.87780   0.42026   0.00000  Uiso   1.00
C278   C     0.17601   0.82457   0.06701   0.00000  Uiso   1.00
C279   C     0.28262   0.86358   0.07542   0.00000  Uiso   1.00
C280   C     0.11289   0.82515   0.40324   0.00000  Uiso   1.00
C281   C     0.18987   0.98942   0.25313   0.00000  Uiso   1.00
C282   C     0.13317   0.83158   0.34733   0.00000  Uiso   1.00
C283   C     0.14305   0.67721   0.24772   0.00000  Uiso   1.00
C284   C     0.15147   0.73327   0.24857   0.00000  Uiso   1.00
C285   C     0.20033   0.83635   0.15303   0.00000  Uiso   1.00
C286   C     0.29743   0.87635   0.02418   0.00000  Uiso   1.00
C287   C     0.22082   0.84023   0.09760   0.00000  Uiso   1.00
C288   C     0.05310   0.79430   0.42282   0.00000  Uiso   1.00
C289   C     0.04333   0.76941   0.46902   0.00000  Uiso   1.00
C290   C     0.09100   0.77613   0.49638   0.00000  Uiso   1.00
Cu291  Cu    0.10710   0.82772   0.24435   0.00000  Uiso   1.00
Cu292  Cu    0.22623   0.83895   0.25564   0.00000  Uiso   1.00
H293   H     0.31806   0.87568   0.09843   0.00000  Uiso   1.00
H294   H     0.09807   0.98656   0.24246   0.00000  Uiso   1.00
H295   H     0.00306   0.87211   0.29063   0.00000  Uiso   1.00
H296   H     0.30576   0.91295   0.43297   0.00000  Uiso   1.00
H297   H     0.01068   0.89849   0.00850   0.00000  Uiso   1.00
H298   H     0.12782   0.81008   0.08511   0.00000  Uiso   1.00
H299   H     0.00033   0.74058   0.48124   0.00000  Uiso   1.00
H300   H     0.22210   0.90132   0.38717   0.00000  Uiso   1.00
H301   H     0.23475   0.68004   0.25862   0.00000  Uiso   1.00
N302   N     0.31574   0.84741   0.26416   0.00000  Uiso   1.00
N303   N     0.01759   0.81926   0.23584   0.00000  Uiso   1.00
O304   O     0.12797   0.90474   0.24633   0.00000  Uiso   1.00
O305   O     0.22858   0.91422   0.25586   0.00000  Uiso   1.00
O306   O     0.09181   0.82627   0.31839   0.00000  Uiso   1.00
O307   O     0.19242   0.83575   0.32793   0.00000  Uiso   1.00
O308   O     0.10476   0.75245   0.24413   0.00000  Uiso   1.00
O309   O     0.20536   0.76193   0.25367   0.00000  Uiso   1.00
O310   O     0.14092   0.83092   0.17207   0.00000  Uiso   1.00
O311   O     0.24152   0.84040   0.18160   0.00000  Uiso   1.00
I312   I     0.32542   0.76597   0.17782   0.00000  Uiso   1.00
O313   O     0.00704   0.78454   0.39411   0.00000  Uiso   1.00
H314   H     0.30138   0.76304   0.41384   0.00000  Uiso   1.00
I315   I     0.08177   0.71201   0.04414   0.00000  Uiso   1.00
C316   C     0.51504   0.93338   0.25179   0.00000  Uiso   1.00
C317   C     0.47945   0.81622   0.48310   0.00000  Uiso   1.00
C318   C     0.49075   0.84024   0.43542   0.00000  Uiso   1.00
C319   C     0.52459   0.83256   0.01456   0.00000  Uiso   1.00
C320   C     0.58442   0.86375   0.49457   0.00000  Uiso   1.00
C321   C     0.59513   0.88606   0.44734   0.00000  Uiso   1.00
C322   C     0.54729   0.87780   0.42026   0.00000  Uiso   1.00
C323   C     0.50935   0.82457   0.06701   0.00000  Uiso   1.00
C324   C     0.61595   0.86358   0.07542   0.00000  Uiso   1.00
C325   C     0.44622   0.82515   0.40324   0.00000  Uiso   1.00
C326   C     0.52320   0.98942   0.25313   0.00000  Uiso   1.00
C327   C     0.46650   0.83158   0.34733   0.00000  Uiso   1.00
C328   C     0.47639   0.67721   0.24772   0.00000  Uiso   1.00
C329   C     0.48480   0.73327   0.24857   0.00000  Uiso   1.00
C330   C     0.53367   0.83635   0.15303   0.00000  Uiso   1.00
C331   C     0.63076   0.87635   0.02418   0.00000  Uiso   1.00
C332   C     0.55415   0.84023   0.09760   0.00000  Uiso   1.00
C333   C     0.38644   0.79430   0.42282   0.00000  Uiso   1.00
C334   C     0.37667   0.76941   0.46902   0.00000  Uiso   1.00
C335   C     0.42433   0.77613   0.49638   0.00000  Uiso   1.00
Cu336  Cu    0.44043   0.82772   0.24435   0.00000  Uiso   1.00
Cu337  Cu    0.55957   0.83895   0.25564   0.00000  Uiso   1.00
H338   H     0.65139   0.87568   0.09843   0.00000  Uiso   1.00
H339   H     0.43140   0.98656   0.24246   0.00000  Uiso   1.00
H340   H     0.33639   0.87211   0.29063   0.00000  Uiso   1.00
H341   H     0.63910   0.91295   0.43297   0.00000  Uiso   1.00
H342   H     0.34401   0.89849   0.00850   0.00000  Uiso   1.00
H343   H     0.46115   0.81008   0.08511   0.00000  Uiso   1.00
H344   H     0.33367   0.74058   0.48124   0.00000  Uiso   1.00
H345   H     0.55544   0.90132   0.38717   0.00000  Uiso   1.00
H346   H     0.56809   0.68004   0.25862   0.00000  Uiso   1.00
N347   N     0.64908   0.84741   0.26416   0.00000  Uiso   1.00
N348   N     0.35092   0.81926   0.23584   0.00000  Uiso   1.00
O349   O     0.46131   0.90474   0.24633   0.00000  Uiso   1.00
O350   O     0.56191   0.91422   0.25586   0.00000  Uiso   1.00
O351   O     0.42515   0.82627   0.31839   0.00000  Uiso   1.00
O352   O     0.52575   0.83575   0.32793   0.00000  Uiso   1.00
O353   O     0.43809   0.75245   0.24413   0.00000  Uiso   1.00
O354   O     0.53869   0.76193   0.25367   0.00000  Uiso   1.00
O355   O     0.47425   0.83092   0.17207   0.00000  Uiso   1.00
O356   O     0.57485   0.84040   0.18160   0.00000  Uiso   1.00
I357   I     0.65875   0.76597   0.17782   0.00000  Uiso   1.00
O358   O     0.34037   0.78454   0.39411   0.00000  Uiso   1.00
H359   H     0.63471   0.76304   0.41384   0.00000  Uiso   1.00
I360   I     0.41510   0.71201   0.04414   0.00000  Uiso   1.00
C361   C     0.84837   0.93338   0.25179   0.00000  Uiso   1.00
C362   C     0.81279   0.81622   0.48310   0.00000  Uiso   1.00
C363   C     0.82409   0.84024   0.43542   0.00000  Uiso   1.00
C364   C     0.85792   0.83256   0.01456   0.00000  Uiso   1.00
C365   C     0.91775   0.86375   0.49457   0.00000  Uiso   1.00
C366   C     0.92846   0.88606   0.44734   0.00000  Uiso   1.00
C367   C     0.88062   0.87780   0.42026   0.00000  Uiso   1.00
C368   C     0.84268   0.82457   0.06701   0.00000  Uiso   1.00
C369   C     0.94928   0.86358   0.07542   0.00000  Uiso   1.00
C370   C     0.77956   0.82515   0.40324   0.00000  Uiso   1.00
C371   C     0.85654   0.98942   0.25313   0.00000  Uiso   1.00
C372   C     0.79984   0.83158   0.34733   0.00000  Uiso   1.00
C373   C     0.80972   0.67721   0.24772   0.00000  Uiso   1.00
C374   C     0.81813   0.73327   0.24857   0.00000  Uiso   1.00
C375   C     0.86700   0.83635   0.15303   0.00000  Uiso   1.00
C376   C     0.96409   0.87635   0.02418   0.00000  Uiso   1.00
C377   C     0.88748   0.84023   0.09760   0.00000  Uiso   1.00
C378   C     0.71977   0.79430   0.42282   0.00000  Uiso   1.00
C379   C     0.71000   0.76941   0.46902   0.00000  Uiso   1.00
C380   C     0.75766   0.77613   0.49638   0.00000  Uiso   1.00
Cu381  Cu    0.77377   0.82772   0.24435   0.00000  Uiso   1.00
Cu382  Cu    0.89290   0.83895   0.25564   0.00000  Uiso   1.00
H383   H     0.98473   0.87568   0.09843   0.00000  Uiso   1.00
H384   H     0.76473   0.98656   0.24246   0.00000  Uiso   1.00
H385   H     0.66973   0.87211   0.29063   0.00000  Uiso   1.00
H386   H     0.97243   0.91295   0.43297   0.00000  Uiso   1.00
H387   H     0.67734   0.89849   0.00850   0.00000  Uiso   1.00
H388   H     0.79448   0.81008   0.08511   0.00000  Uiso   1.00
H389   H     0.66700   0.74058   0.48124   0.00000  Uiso   1.00
H390   H     0.88877   0.90132   0.38717   0.00000  Uiso   1.00
H391   H     0.90142   0.68004   0.25862   0.00000  Uiso   1.00
N392   N     0.98241   0.84741   0.26416   0.00000  Uiso   1.00
N393   N     0.68426   0.81926   0.23584   0.00000  Uiso   1.00
O394   O     0.79464   0.90474   0.24633   0.00000  Uiso   1.00
O395   O     0.89524   0.91422   0.25586   0.00000  Uiso   1.00
O396   O     0.75848   0.82627   0.31839   0.00000  Uiso   1.00
O397   O     0.85908   0.83575   0.32793   0.00000  Uiso   1.00
O398   O     0.77142   0.75245   0.24413   0.00000  Uiso   1.00
O399   O     0.87203   0.76193   0.25367   0.00000  Uiso   1.00
O400   O     0.80758   0.83092   0.17207   0.00000  Uiso   1.00
O401   O     0.90819   0.84040   0.18160   0.00000  Uiso   1.00
I402   I     0.99208   0.76597   0.17782   0.00000  Uiso   1.00
O403   O     0.67371   0.78454   0.39411   0.00000  Uiso   1.00
H404   H     0.96805   0.76304   0.41384   0.00000  Uiso   1.00
I405   I     0.74844   0.71201   0.04414   0.00000  Uiso   1.00
C406   C     0.18171   0.26672   0.75179   0.00000  Uiso   1.00
C407   C     0.14612   0.14956   0.98310   0.00000  Uiso   1.00
C408   C     0.15742   0.17358   0.93542   0.00000  Uiso   1.00
C409   C     0.19126   0.16590   0.51456   0.00000  Uiso   1.00
C410   C     0.25108   0.19708   0.99457   0.00000  Uiso   1.00
C411   C     0.26180   0.21940   0.94734   0.00000  Uiso   1.00
C412   C     0.21396   0.21113   0.92026   0.00000  Uiso   1.00
C413   C     0.17601   0.15790   0.56701   0.00000  Uiso   1.00
C414   C     0.28262   0.19691   0.57542   0.00000  Uiso   1.00
C415   C     0.11289   0.15849   0.90324   0.00000  Uiso   1.00
C416   C     0.18987   0.32275   0.75313   0.00000  Uiso   1.00
C417   C     0.13317   0.16492   0.84733   0.00000  Uiso   1.00
C418   C     0.14305   0.01055   0.74772   0.00000  Uiso   1.00
C419   C     0.15147   0.06661   0.74857   0.00000  Uiso   1.00
C420   C     0.20033   0.16968   0.65303   0.00000  Uiso   1.00
C421   C     0.29743   0.20968   0.52418   0.00000  Uiso   1.00
C422   C     0.22082   0.17356   0.59760   0.00000  Uiso   1.00
C423   C     0.05310   0.12763   0.92282   0.00000  Uiso   1.00
C424   C     0.04333   0.10274   0.96902   0.00000  Uiso   1.00
C425   C     0.09100   0.10947   0.99638   0.00000  Uiso   1.00
Cu426  Cu    0.10710   0.16105   0.74435   0.00000  Uiso   1.00
Cu427  Cu    0.22623   0.17228   0.75564   0.00000  Uiso   1.00
H428   H     0.31806   0.20901   0.59843   0.00000  Uiso   1.00
H429   H     0.09807   0.31989   0.74246   0.00000  Uiso   1.00
H430   H     0.00306   0.20544   0.79063   0.00000  Uiso   1.00
H431   H     0.30576   0.24629   0.93297   0.00000  Uiso   1.00
H432   H     0.01068   0.23183   0.50850   0.00000  Uiso   1.00
H433   H     0.12782   0.14342   0.58511   0.00000  Uiso   1.00
H434   H     0.00033   0.07392   0.98124   0.00000  Uiso   1.00
H435   H     0.22210   0.23465   0.88717   0.00000  Uiso   1.00
H436   H     0.23475   0.01337   0.75862   0.00000  Uiso   1.00
N437   N     0.31574   0.18074   0.76416   0.00000  Uiso   1.00
N438   N     0.01759   0.15259   0.73584   0.00000  Uiso   1.00
O439   O     0.12797   0.23807   0.74633   0.00000  Uiso   1.00
O440   O     0.22858   0.24755   0.75586   0.00000  Uiso   1.00
O441   O     0.09181   0.15960   0.81839   0.00000  Uiso   1.00
O442   O     0.19242   0.16908   0.82793   0.00000  Uiso   1.00
O443   O     0.10476   0.08578   0.74413   0.00000  Uiso   1.00
O444   O     0.20536   0.09526   0.75367   0.00000  Uiso   1.00
O445   O     0.14092   0.16425   0.67207   0.00000  Uiso   1.00
O446   O     0.24152   0.17373   0.68160   0.00000  Uiso   1.00
I447   I     0.32542   0.09930   0.67782   0.00000  Uiso   1.00
O448   O     0.00704   0.11787   0.89411   0.00000  Uiso   1.00
H449   H     0.30138   0.09638   0.91384   0.00000  Uiso   1.00
I450   I     0.08177   0.04534   0.54414   0.00000  Uiso   1.00
C451   C     0.51504   0.26672   0.75179   0.00000  Uiso   1.00
C452   C     0.47945   0.14956   0.98310   0.00000  Uiso   1.00
C453   C     0.49075   0.17358   0.93542   0.00000  Uiso   1.00
C454   C     0.52459   0.16590   0.51456   0.00000  Uiso   1.00
C455   C     0.58442   0.19708   0.99457   0.00000  Uiso   1.00
C456   C     0.59513   0.21940   0.94734   0.00000  Uiso   1.00
C457   C     0.54729   0.21113   0.92026   0.00000  Uiso   1.00
C458   C     0.50935   0.15790   0.56701   0.00000  Uiso   1.00
C459   C     0.61595   0.19691   0.57542   0.00000  Uiso   1.00
C460   C     0.44622   0.15849   0.90324   0.00000  Uiso   1.00
C461   C     0.52320   0.32275   0.75313   0.00000  Uiso   1.00
C462   C     0.46650   0.16492   0.84733   0.00000  Uiso   1.00
C463   C     0.47639   0.01055   0.74772   0.00000  Uiso   1.00
C464   C     0.48480   0.06661   0.74857   0.00000  Uiso   1.00
C465   C     0.53367   0.16968   0.65303   0.00000  Uiso   1.00
C466   C     0.63076   0.20968   0.52418   0.00000  Uiso   1.00
C467   C     0.55415   0.17356   0.59760   0.00000  Uiso   1.00
C468   C     0.38644   0.12763   0.92282   0.00000  Uiso   1.00
C469   C     0.37667   0.10274   0.96902   0.00000  Uiso   1.00
C470   C     0.42433   0.10947   0.99638   0.00000  Uiso   1.00
Cu471  Cu    0.44043   0.16105   0.74435   0.00000  Uiso   1.00
Cu472  Cu    0.55957   0.17228   0.75564   0.00000  Uiso   1.00
H473   H     0.65139   0.20901   0.59843   0.00000  Uiso   1.00
H474   H     0.43140   0.31989   0.74246   0.00000  Uiso   1.00
H475   H     0.33639   0.20544   0.79063   0.00000  Uiso   1.00
H476   H     0.63910   0.24629   0.93297   0.00000  Uiso   1.00
H477   H     0.34401   0.23183   0.50850   0.00000  Uiso   1.00
H478   H     0.46115   0.14342   0.58511   0.00000  Uiso   1.00
H479   H     0.33367   0.07392   0.98124   0.00000  Uiso   1.00
H480   H     0.55544   0.23465   0.88717   0.00000  Uiso   1.00
H481   H     0.56809   0.01337   0.75862   0.00000  Uiso   1.00
N482   N     0.64908   0.18074   0.76416   0.00000  Uiso   1.00
N483   N     0.35092   0.15259   0.73584   0.00000  Uiso   1.00
O484   O     0.46131   0.23807   0.74633   0.00000  Uiso   1.00
O485   O     0.56191   0.24755   0.75586   0.00000  Uiso   1.00
O486   O     0.42515   0.15960   0.81839   0.00000  Uiso   1.00
O487   O     0.52575   0.16908   0.82793   0.00000  Uiso   1.00
O488   O     0.43809   0.08578   0.74413   0.00000  Uiso   1.00
O489   O     0.53869   0.09526   0.75367   0.00000  Uiso   1.00
O490   O     0.47425   0.16425   0.67207   0.00000  Uiso   1.00
O491   O     0.57485   0.17373   0.68160   0.00000  Uiso   1.00
I492   I     0.65875   0.09930   0.67782   0.00000  Uiso   1.00
O493   O     0.34037   0.11787   0.89411   0.00000  Uiso   1.00
H494   H     0.63471   0.09638   0.91384   0.00000  Uiso   1.00
I495   I     0.41510   0.04534   0.54414   0.00000  Uiso   1.00
C496   C     0.84837   0.26672   0.75179   0.00000  Uiso   1.00
C497   C     0.81279   0.14956   0.98310   0.00000  Uiso   1.00
C498   C     0.82409   0.17358   0.93542   0.00000  Uiso   1.00
C499   C     0.85792   0.16590   0.51456   0.00000  Uiso   1.00
C500   C     0.91775   0.19708   0.99457   0.00000  Uiso   1.00
C501   C     0.92846   0.21940   0.94734   0.00000  Uiso   1.00
C502   C     0.88062   0.21113   0.92026   0.00000  Uiso   1.00
C503   C     0.84268   0.15790   0.56701   0.00000  Uiso   1.00
C504   C     0.94928   0.19691   0.57542   0.00000  Uiso   1.00
C505   C     0.77956   0.15849   0.90324   0.00000  Uiso   1.00
C506   C     0.85654   0.32275   0.75313   0.00000  Uiso   1.00
C507   C     0.79984   0.16492   0.84733   0.00000  Uiso   1.00
C508   C     0.80972   0.01055   0.74772   0.00000  Uiso   1.00
C509   C     0.81813   0.06661   0.74857   0.00000  Uiso   1.00
C510   C     0.86700   0.16968   0.65303   0.00000  Uiso   1.00
C511   C     0.96409   0.20968   0.52418   0.00000  Uiso   1.00
C512   C     0.88748   0.17356   0.59760   0.00000  Uiso   1.00
C513   C     0.71977   0.12763   0.92282   0.00000  Uiso   1.00
C514   C     0.71000   0.10274   0.96902   0.00000  Uiso   1.00
C515   C     0.75766   0.10947   0.99638   0.00000  Uiso   1.00
Cu516  Cu    0.77377   0.16105   0.74435   0.00000  Uiso   1.00
Cu517  Cu    0.89290   0.17228   0.75564   0.00000  Uiso   1.00
H518   H     0.98473   0.20901   0.59843   0.00000  Uiso   1.00
H519   H     0.76473   0.31989   0.74246   0.00000  Uiso   1.00
H520   H     0.66973   0.20544   0.79063   0.00000  Uiso   1.00
H521   H     0.97243   0.24629   0.93297   0.00000  Uiso   1.00
H522   H     0.67734   0.23183   0.50850   0.00000  Uiso   1.00
H523   H     0.79448   0.14342   0.58511   0.00000  Uiso   1.00
H524   H     0.66700   0.07392   0.98124   0.00000  Uiso   1.00
H525   H     0.88877   0.23465   0.88717   0.00000  Uiso   1.00
H526   H     0.90142   0.01337   0.75862   0.00000  Uiso   1.00
N527   N     0.98241   0.18074   0.76416   0.00000  Uiso   1.00
N528   N     0.68426   0.15259   0.73584   0.00000  Uiso   1.00
O529   O     0.79464   0.23807   0.74633   0.00000  Uiso   1.00
O530   O     0.89524   0.24755   0.75586   0.00000  Uiso   1.00
O531   O     0.75848   0.15960   0.81839   0.00000  Uiso   1.00
O532   O     0.85908   0.16908   0.82793   0.00000  Uiso   1.00
O533   O     0.77142   0.08578   0.74413   0.00000  Uiso   1.00
O534   O     0.87203   0.09526   0.75367   0.00000  Uiso   1.00
O535   O     0.80758   0.16425   0.67207   0.00000  Uiso   1.00
O536   O     0.90819   0.17373   0.68160   0.00000  Uiso   1.00
I537   I     0.99208   0.09930   0.67782   0.00000  Uiso   1.00
O538   O     0.67371   0.11787   0.89411   0.00000  Uiso   1.00
H539   H     0.96805   0.09638   0.91384   0.00000  Uiso   1.00
I540   I     0.74844   0.04534   0.54414   0.00000  Uiso   1.00
C541   C     0.18171   0.60005   0.75179   0.00000  Uiso   1.00
C542   C     0.14612   0.48289   0.98310   0.00000  Uiso   1.00
C543   C     0.15742   0.50691   0.93542   0.00000  Uiso   1.00
C544   C     0.19126   0.49923   0.51456   0.00000  Uiso   1.00
C545   C     0.25108   0.53041   0.99457   0.00000  Uiso   1.00
C546   C     0.26180   0.55273   0.94734   0.00000  Uiso   1.00
C547   C     0.21396   0.54446   0.92026   0.00000  Uiso   1.00
C548   C     0.17601   0.49124   0.56701   0.00000  Uiso   1.00
C549   C     0.28262   0.53025   0.57542   0.00000  Uiso   1.00
C550   C     0.11289   0.49182   0.90324   0.00000  Uiso   1.00
C551   C     0.18987   0.65609   0.75313   0.00000  Uiso   1.00
C552   C     0.13317   0.49825   0.84733   0.00000  Uiso   1.00
C553   C     0.14305   0.34388   0.74772   0.00000  Uiso   1.00
C554   C     0.15147   0.39994   0.74857   0.00000  Uiso   1.00
C555   C     0.20033   0.50301   0.65303   0.00000  Uiso   1.00
C556   C     0.29743   0.54302   0.52418   0.00000  Uiso   1.00
C557   C     0.22082   0.50690   0.59760   0.00000  Uiso   1.00
C558   C     0.05310   0.46097   0.92282   0.00000  Uiso   1.00
C559   C     0.04333   0.43607   0.96902   0.00000  Uiso   1.00
C560   C     0.09100   0.44280   0.99638   0.00000  Uiso   1.00
Cu561  Cu    0.10710   0.49439   0.74435   0.00000  Uiso   1.00
Cu562  Cu    0.22623   0.50561   0.75564   0.00000  Uiso   1.00
H563   H     0.31806   0.54234   0.59843   0.00000  Uiso   1.00
H564   H     0.09807   0.65323   0.74246   0.00000  Uiso   1.00
H565   H     0.00306   0.53877   0.79063   0.00000  Uiso   1.00
H566   H     0.30576   0.57962   0.93297   0.00000  Uiso   1.00
H567   H     0.01068   0.56516   0.50850   0.00000  Uiso   1.00
H568   H     0.12782   0.47675   0.58511   0.00000  Uiso   1.00
H569   H     0.00033   0.40725   0.98124   0.00000  Uiso   1.00
H570   H     0.22210   0.56798   0.88717   0.00000  Uiso   1.00
H571   H     0.23475   0.34671   0.75862   0.00000  Uiso   1.00
N572   N     0.31574   0.51407   0.76416   0.00000  Uiso   1.00
N573   N     0.01759   0.48593   0.73584   0.00000  Uiso   1.00
O574   O     0.12797   0.57141   0.74633   0.00000  Uiso   1.00
O575   O     0.22858   0.58089   0.75586   0.00000  Uiso   1.00
O576   O     0.09181   0.49293   0.81839   0.00000  Uiso   1.00
O577   O     0.19242   0.50241   0.82793   0.00000  Uiso   1.00
O578   O     0.10476   0.41911   0.74413   0.00000  Uiso   1.00
O579   O     0.20536   0.42859   0.75367   0.00000  Uiso   1.00
O580   O     0.14092   0.49759   0.67207   0.00000  Uiso   1.00
O581   O     0.24152   0.50707   0.68160   0.00000  Uiso   1.00
I582   I     0.32542   0.43263   0.67782   0.00000  Uiso   1.00
O583   O     0.00704   0.45121   0.89411   0.00000  Uiso   1.00
H584   H     0.30138   0.42971   0.91384   0.00000  Uiso   1.00
I585   I     0.08177   0.37867   0.54414   0.00000  Uiso   1.00
C586   C     0.51504   0.60005   0.75179   0.00000  Uiso   1.00
C587   C     0.47945   0.48289   0.98310   0.00000  Uiso   1.00
C588   C     0.49075   0.50691   0.93542   0.00000  Uiso   1.00
C589   C     0.52459   0.49923   0.51456   0.00000  Uiso   1.00
C590   C     0.58442   0.53041   0.99457   0.00000  Uiso   1.00
C591   C     0.59513   0.55273   0.94734   0.00000  Uiso   1.00
C592   C     0.54729   0.54446   0.92026   0.00000  Uiso   1.00
C593   C     0.50935   0.49124   0.56701   0.00000  Uiso   1.00
C594   C     0.61595   0.53025   0.57542   0.00000  Uiso   1.00
C595   C     0.44622   0.49182   0.90324   0.00000  Uiso   1.00
C596   C     0.52320   0.65609   0.75313   0.00000  Uiso   1.00
C597   C     0.46650   0.49825   0.84733   0.00000  Uiso   1.00
C598   C     0.47639   0.34388   0.74772   0.00000  Uiso   1.00
C599   C     0.48480   0.39994   0.74857   0.00000  Uiso   1.00
C600   C     0.53367   0.50301   0.65303   0.00000  Uiso   1.00
C601   C     0.63076   0.54302   0.52418   0.00000  Uiso   1.00
C602   C     0.55415   0.50690   0.59760   0.00000  Uiso   1.00
C603   C     0.38644   0.46097   0.92282   0.00000  Uiso   1.00
C604   C     0.37667   0.43607   0.96902   0.00000  Uiso   1.00
C605   C     0.42433   0.44280   0.99638   0.00000  Uiso   1.00
Cu606  Cu    0.44043   0.49439   0.74435   0.00000  Uiso   1.00
Cu607  Cu    0.55957   0.50561   0.75564   0.00000  Uiso   1.00
H608   H     0.65139   0.54234   0.59843   0.00000  Uiso   1.00
H609   H     0.43140   0.65323   0.74246   0.00000  Uiso   1.00
H610   H     0.33639   0.53877   0.79063   0.00000  Uiso   1.00
H611   H     0.63910   0.57962   0.93297   0.00000  Uiso   1.00
H612   H     0.34401   0.56516   0.50850   0.00000  Uiso   1.00
H613   H     0.46115   0.47675   0.58511   0.00000  Uiso   1.00
H614   H     0.33367   0.40725   0.98124   0.00000  Uiso   1.00
H615   H     0.55544   0.56798   0.88717   0.00000  Uiso   1.00
H616   H     0.56809   0.34671   0.75862   0.00000  Uiso   1.00
N617   N     0.64908   0.51407   0.76416   0.00000  Uiso   1.00
N618   N     0.35092   0.48593   0.73584   0.00000  Uiso   1.00
O619   O     0.46131   0.57141   0.74633   0.00000  Uiso   1.00
O620   O     0.56191   0.58089   0.75586   0.00000  Uiso   1.00
O621   O     0.42515   0.49293   0.81839   0.00000  Uiso   1.00
O622   O     0.52575   0.50241   0.82793   0.00000  Uiso   1.00
O623   O     0.43809   0.41911   0.74413   0.00000  Uiso   1.00
O624   O     0.53869   0.42859   0.75367   0.00000  Uiso   1.00
O625   O     0.47425   0.49759   0.67207   0.00000  Uiso   1.00
O626   O     0.57485   0.50707   0.68160   0.00000  Uiso   1.00
I627   I     0.65875   0.43263   0.67782   0.00000  Uiso   1.00
O628   O     0.34037   0.45121   0.89411   0.00000  Uiso   1.00
H629   H     0.63471   0.42971   0.91384   0.00000  Uiso   1.00
I630   I     0.41510   0.37867   0.54414   0.00000  Uiso   1.00
C631   C     0.84837   0.60005   0.75179   0.00000  Uiso   1.00
C632   C     0.81279   0.48289   0.98310   0.00000  Uiso   1.00
C633   C     0.82409   0.50691   0.93542   0.00000  Uiso   1.00
C634   C     0.85792   0.49923   0.51456   0.00000  Uiso   1.00
C635   C     0.91775   0.53041   0.99457   0.00000  Uiso   1.00
C636   C     0.92846   0.55273   0.94734   0.00000  Uiso   1.00
C637   C     0.88062   0.54446   0.92026   0.00000  Uiso   1.00
C638   C     0.84268   0.49124   0.56701   0.00000  Uiso   1.00
C639   C     0.94928   0.53025   0.57542   0.00000  Uiso   1.00
C640   C     0.77956   0.49182   0.90324   0.00000  Uiso   1.00
C641   C     0.85654   0.65609   0.75313   0.00000  Uiso   1.00
C642   C     0.79984   0.49825   0.84733   0.00000  Uiso   1.00
C643   C     0.80972   0.34388   0.74772   0.00000  Uiso   1.00
C644   C     0.81813   0.39994   0.74857   0.00000  Uiso   1.00
C645   C     0.86700   0.50301   0.65303   0.00000  Uiso   1.00
C646   C     0.96409   0.54302   0.52418   0.00000  Uiso   1.00
C647   C     0.88748   0.50690   0.59760   0.00000  Uiso   1.00
C648   C     0.71977   0.46097   0.92282   0.00000  Uiso   1.00
C649   C     0.71000   0.43607   0.96902   0.00000  Uiso   1.00
C650   C     0.75766   0.44280   0.99638   0.00000  Uiso   1.00
Cu651  Cu    0.77377   0.49439   0.74435   0.00000  Uiso   1.00
Cu652  Cu    0.89290   0.50561   0.75564   0.00000  Uiso   1.00
H653   H     0.98473   0.54234   0.59843   0.00000  Uiso   1.00
H654   H     0.76473   0.65323   0.74246   0.00000  Uiso   1.00
H655   H     0.66973   0.53877   0.79063   0.00000  Uiso   1.00
H656   H     0.97243   0.57962   0.93297   0.00000  Uiso   1.00
H657   H     0.67734   0.56516   0.50850   0.00000  Uiso   1.00
H658   H     0.79448   0.47675   0.58511   0.00000  Uiso   1.00
H659   H     0.66700   0.40725   0.98124   0.00000  Uiso   1.00
H660   H     0.88877   0.56798   0.88717   0.00000  Uiso   1.00
H661   H     0.90142   0.34671   0.75862   0.00000  Uiso   1.00
N662   N     0.98241   0.51407   0.76416   0.00000  Uiso   1.00
N663   N     0.68426   0.48593   0.73584   0.00000  Uiso   1.00
O664   O     0.79464   0.57141   0.74633   0.00000  Uiso   1.00
O665   O     0.89524   0.58089   0.75586   0.00000  Uiso   1.00
O666   O     0.75848   0.49293   0.81839   0.00000  Uiso   1.00
O667   O     0.85908   0.50241   0.82793   0.00000  Uiso   1.00
O668   O     0.77142   0.41911   0.74413   0.00000  Uiso   1.00
O669   O     0.87203   0.42859   0.75367   0.00000  Uiso   1.00
O670   O     0.80758   0.49759   0.67207   0.00000  Uiso   1.00
O671   O     0.90819   0.50707   0.68160   0.00000  Uiso   1.00
I672   I     0.99208   0.43263   0.67782   0.00000  Uiso   1.00
O673   O     0.67371   0.45121   0.89411   0.00000  Uiso   1.00
H674   H     0.96805   0.42971   0.91384   0.00000  Uiso   1.00
I675   I     0.74844   0.37867   0.54414   0.00000  Uiso   1.00
C676   C     0.18171   0.93338   0.75179   0.00000  Uiso   1.00
C677   C     0.14612   0.81622   0.98310   0.00000  Uiso   1.00
C678   C     0.15742   0.84024   0.93542   0.00000  Uiso   1.00
C679   C     0.19126   0.83256   0.51456   0.00000  Uiso   1.00
C680   C     0.25108   0.86375   0.99457   0.00000  Uiso   1.00
C681   C     0.26180   0.88606   0.94734   0.00000  Uiso   1.00
C682   C     0.21396   0.87780   0.92026   0.00000  Uiso   1.00
C683   C     0.17601   0.82457   0.56701   0.00000  Uiso   1.00
C684   C     0.28262   0.86358   0.57542   0.00000  Uiso   1.00
C685   C     0.11289   0.82515   0.90324   0.00000  Uiso   1.00
C686   C     0.18987   0.98942   0.75313   0.00000  Uiso   1.00
C687   C     0.13317   0.83158   0.84733   0.00000  Uiso   1.00
C688   C     0.14305   0.67721   0.74772   0.00000  Uiso   1.00
C689   C     0.15147   0.73327   0.74857   0.00000  Uiso   1.00
C690   C     0.20033   0.83635   0.65303   0.00000  Uiso   1.00
C691   C     0.29743   0.87635   0.52418   0.00000  Uiso   1.00
C692   C     0.22082   0.84023   0.59760   0.00000  Uiso   1.00
C693   C     0.05310   0.79430   0.92282   0.00000  Uiso   1.00
C694   C     0.04333   0.76941   0.96902   0.00000  Uiso   1.00
C695   C     0.09100   0.77613   0.99638   0.00000  Uiso   1.00
Cu696  Cu    0.10710   0.82772   0.74435   0.00000  Uiso   1.00
Cu697  Cu    0.22623   0.83895   0.75564   0.00000  Uiso   1.00
H698   H     0.31806   0.87568   0.59843   0.00000  Uiso   1.00
H699   H     0.09807   0.98656   0.74246   0.00000  Uiso   1.00
H700   H     0.00306   0.87211   0.79063   0.00000  Uiso   1.00
H701   H     0.30576   0.91295   0.93297   0.00000  Uiso   1.00
H702   H     0.01068   0.89849   0.50850   0.00000  Uiso   1.00
H703   H     0.12782   0.81008   0.58511   0.00000  Uiso   1.00
H704   H     0.00033   0.74058   0.98124   0.00000  Uiso   1.00
H705   H     0.22210   0.90132   0.88717   0.00000  Uiso   1.00
H706   H     0.23475   0.68004   0.75862   0.00000  Uiso   1.00
N707   N     0.31574   0.84741   0.76416   0.00000  Uiso   1.00
N708   N     0.01759   0.81926   0.73584   0.00000  Uiso   1.00
O709   O     0.12797   0.90474   0.74633   0.00000  Uiso   1.00
O710   O     0.22858   0.91422   0.75586   0.00000  Uiso   1.00
O711   O     0.09181   0.82627   0.81839   0.00000  Uiso   1.00
O712   O     0.19242   0.83575   0.82793   0.00000  Uiso   1.00
O713   O     0.10476   0.75245   0.74413   0.00000  Uiso   1.00
O714   O     0.20536   0.76193   0.75367   0.00000  Uiso   1.00
O715   O     0.14092   0.83092   0.67207   0.00000  Uiso   1.00
O716   O     0.24152   0.84040   0.68160   0.00000  Uiso   1.00
I717   I     0.32542   0.76597   0.67782   0.00000  Uiso   1.00
O718   O     0.00704   0.78454   0.89411   0.00000  Uiso   1.00
H719   H     0.30138   0.76304   0.91384   0.00000  Uiso   1.00
I720   I     0.08177   0.71201   0.54414   0.00000  Uiso   1.00
C721   C     0.51504   0.93338   0.75179   0.00000  Uiso   1.00
C722   C     0.47945   0.81622   0.98310   0.00000  Uiso   1.00
C723   C     0.49075   0.84024   0.93542   0.00000  Uiso   1.00
C724   C     0.52459   0.83256   0.51456   0.00000  Uiso   1.00
C725   C     0.58442   0.86375   0.99457   0.00000  Uiso   1.00
C726   C     0.59513   0.88606   0.94734   0.00000  Uiso   1.00
C727   C     0.54729   0.87780   0.92026   0.00000  Uiso   1.00
C728   C     0.50935   0.82457   0.56701   0.00000  Uiso   1.00
C729   C     0.61595   0.86358   0.57542   0.00000  Uiso   1.00
C730   C     0.44622   0.82515   0.90324   0.00000  Uiso   1.00
C731   C     0.52320   0.98942   0.75313   0.00000  Uiso   1.00
C732   C     0.46650   0.83158   0.84733   0.00000  Uiso   1.00
C733   C     0.47639   0.67721   0.74772   0.00000  Uiso   1.00
C734   C     0.48480   0.73327   0.74857   0.00000  Uiso   1.00
C735   C     0.53367   0.83635   0.65303   0.00000  Uiso   1.00
C736   C     0.63076   0.87635   0.52418   0.00000  Uiso   1.00
C737   C     0.55415   0.84023   0.59760   0.00000  Uiso   1.00
C738   C     0.38644   0.79430   0.92282   0.00000  Uiso   1.00
C739   C     0.37667   0.76941   0.96902   0.00000  Uiso   1.00
C740   C     0.42433   0.77613   0.99638   0.00000  Uiso   1.00
Cu741  Cu    0.44043   0.82772   0.74435   0.00000  Uiso   1.00
Cu742  Cu    0.55957   0.83895   0.75564   0.00000  Uiso   1.00
H743   H     0.65139   0.87568   0.59843   0.00000  Uiso   1.00
H744   H     0.43140   0.98656   0.74246   0.00000  Uiso   1.00
H745   H     0.33639   0.87211   0.79063   0.00000  Uiso   1.00
H746   H     0.63910   0.91295   0.93297   0.00000  Uiso   1.00
H747   H     0.34401   0.89849   0.50850   0.00000  Uiso   1.00
H748   H     0.46115   0.81008   0.58511   0.00000  Uiso   1.00
H749   H     0.33367   0.74058   0.98124   0.00000  Uiso   1.00
H750   H     0.55544   0.90132   0.88717   0.00000  Uiso   1.00
H751   H     0.56809   0.68004   0.75862   0.00000  Uiso   1.00
N752   N     0.64908   0.84741   0.76416   0.00000  Uiso   1.00
N753   N     0.35092   0.81926   0.73584   0.00000  Uiso   1.00
O754   O     0.46131   0.90474   0.74633   0.00000  Uiso   1.00
O755   O     0.56191   0.91422   0.75586   0.00000  Uiso   1.00
O756   O     0.42515   0.82627   0.81839   0.00000  Uiso   1.00
O757   O     0.52575   0.83575   0.82793   0.00000  Uiso   1.00
O758   O     0.43809   0.75245   0.74413   0.00000  Uiso   1.00
O759   O     0.53869   0.76193   0.75367   0.00000  Uiso   1.00
O760   O     0.47425   0.83092   0.67207   0.00000  Uiso   1.00
O761   O     0.57485   0.84040   0.68160   0.00000  Uiso   1.00
I762   I     0.65875   0.76597   0.67782   0.00000  Uiso   1.00
O763   O     0.34037   0.78454   0.89411   0.00000  Uiso   1.00
H764   H     0.63471   0.76304   0.91384   0.00000  Uiso   1.00
I765   I     0.41510   0.71201   0.54414   0.00000  Uiso   1.00
C766   C     0.84837   0.93338   0.75179   0.00000  Uiso   1.00
C767   C     0.81279   0.81622   0.98310   0.00000  Uiso   1.00
C768   C     0.82409   0.84024   0.93542   0.00000  Uiso   1.00
C769   C     0.85792   0.83256   0.51456   0.00000  Uiso   1.00
C770   C     0.91775   0.86375   0.99457   0.00000  Uiso   1.00
C771   C     0.92846   0.88606   0.94734   0.00000  Uiso   1.00
C772   C     0.88062   0.87780   0.92026   0.00000  Uiso   1.00
C773   C     0.84268   0.82457   0.56701   0.00000  Uiso   1.00
C774   C     0.94928   0.86358   0.57542   0.00000  Uiso   1.00
C775   C     0.77956   0.82515   0.90324   0.00000  Uiso   1.00
C776   C     0.85654   0.98942   0.75313   0.00000  Uiso   1.00
C777   C     0.79984   0.83158   0.84733   0.00000  Uiso   1.00
C778   C     0.80972   0.67721   0.74772   0.00000  Uiso   1.00
C779   C     0.81813   0.73327   0.74857   0.00000  Uiso   1.00
C780   C     0.86700   0.83635   0.65303   0.00000  Uiso   1.00
C781   C     0.96409   0.87635   0.52418   0.00000  Uiso   1.00
C782   C     0.88748   0.84023   0.59760   0.00000  Uiso   1.00
C783   C     0.71977   0.79430   0.92282   0.00000  Uiso   1.00
C784   C     0.71000   0.76941   0.96902   0.00000  Uiso   1.00
C785   C     0.75766   0.77613   0.99638   0.00000  Uiso   1.00
Cu786  Cu    0.77377   0.82772   0.74435   0.00000  Uiso   1.00
Cu787  Cu    0.89290   0.83895   0.75564   0.00000  Uiso   1.00
H788   H     0.98473   0.87568   0.59843   0.00000  Uiso   1.00
H789   H     0.76473   0.98656   0.74246   0.00000  Uiso   1.00
H790   H     0.66973   0.87211   0.79063   0.00000  Uiso   1.00
H791   H     0.97243   0.91295   0.93297   0.00000  Uiso   1.00
H792   H     0.67734   0.89849   0.50850   0.00000  Uiso   1.00
H793   H     0.79448   0.81008   0.58511   0.00000  Uiso   1.00
H794   H     0.66700   0.74058   0.98124   0.00000  Uiso   1.00
H795   H     0.88877   0.90132   0.88717   0.00000  Uiso   1.00
H796   H     0.90142   0.68004   0.75862   0.00000  Uiso   1.00
N797   N     0.98241   0.84741   0.76416   0.00000  Uiso   1.00
N798   N     0.68426   0.81926   0.73584   0.00000  Uiso   1.00
O799   O     0.79464   0.90474   0.74633   0.00000  Uiso   1.00
O800   O     0.89524   0.91422   0.75586   0.00000  Uiso   1.00
O801   O     0.75848   0.82627   0.81839   0.00000  Uiso   1.00
O802   O     0.85908   0.83575   0.82793   0.00000  Uiso   1.00
O803   O     0.77142   0.75245   0.74413   0.00000  Uiso   1.00
O804   O     0.87203   0.76193   0.75367   0.00000  Uiso   1.00
O805   O     0.80758   0.83092   0.67207   0.00000  Uiso   1.00
O806   O     0.90819   0.84040   0.68160   0.00000  Uiso   1.00
I807   I     0.99208   0.76597   0.67782   0.00000  Uiso   1.00
O808   O     0.67371   0.78454   0.89411   0.00000  Uiso   1.00
H809   H     0.96805   0.76304   0.91384   0.00000  Uiso   1.00
I810   I     0.74844   0.71201   0.54414   0.00000  Uiso   1.00
loop_
_geom_bond_atom_site_label_1
_geom_bond_atom_site_label_2
_geom_bond_distance
_geom_bond_site_symmetry_2
_ccdc_geom_bond_type
C1     C11     1.428   .     S
C1     O34     1.293   .     A
C1     O35     1.290   .     A
C2     C3      1.420   .     A
C2     C20     1.423   .     A
C2     C409    1.423   .     S
C3     C10     1.424   .     A
C3     C7      1.416   .     A
C4     C8      1.397   .     A
C4     C407    1.423   1_554 S
C4     C410    1.417   1_554 S
C5     C6      1.390   .     A
C5     C409    1.417   .     S
C5     C421    1.404   .     S
C6     C7      1.387   .     A
C6     H26     1.084   .     S
C7     H30     1.081   .     S
C8     C17     1.399   .     A
C8     H28     1.078   .     S
C9     C16     1.394   .     A
C9     C17     1.401   .     A
C9     H23     1.083   .     S
C10    C18     1.411   .     A
C10    C12     1.483   .     S
C11    C148    1.330   .     S
C11    H166    1.087   .     S
C12    O36     1.308   .     A
C12    O37     1.301   .     A
C13    C14     1.428   .     S
C13    C281    1.330   1_545 S
C13    H294    1.088   1_545 S
C14    O38     1.290   .     A
C14    O39     1.293   .     A
C15    O41     1.302   .     A
C15    O40     1.299   .     A
C15    C17     1.464   .     S
C16    C410    1.404   1_554 S
C16    H72     1.084   .     S
C18    O43     1.382   .     S
C18    C19     1.400   .     A
C19    C20     1.392   .     A
C19    H29     1.083   .     S
C20    I450    2.138   .     S
Cu21   O40     1.926   .     S
Cu21   N33     2.027   .     S
Cu21   O36     1.944   .     S
Cu21   O34     1.952   .     S
Cu21   Cu22    2.697   .     S
Cu21   O38     1.950   .     S
Cu22   O35     1.950   .     S
Cu22   N32     2.027   .     S
Cu22   O41     1.944   .     S
Cu22   O39     1.952   .     S
Cu22   O37     1.926   .     S
H24    C148    1.088   .     S
H25    N122    1.029   1_455 S
H27    C106    1.084   1_455 S
H31    C281    1.087   1_545 S
N32    H70     1.029   .     S
N32    N78     1.285   .     S
N33    N122    1.285   1_455 S
N33    I132    2.080   1_455 S
I42    N78     2.080   .     S
O43    H134    0.992   1_455 S
H44    O88     0.992   .     S
I45    C425    2.138   1_554 S
C46    C56     1.428   .     S
C46    O79     1.293   .     A
C46    O80     1.290   .     A
C47    C48     1.420   .     A
C47    C65     1.423   .     A
C47    C454    1.423   .     S
C48    C55     1.424   .     A
C48    C52     1.416   .     A
C49    C53     1.397   .     A
C49    C452    1.423   1_554 S
C49    C455    1.417   1_554 S
C50    C51     1.390   .     A
C50    C454    1.417   .     S
C50    C466    1.404   .     S
C51    C52     1.387   .     A
C51    H71     1.084   .     S
C52    H75     1.081   .     S
C53    C62     1.399   .     A
C53    H73     1.078   .     S
C54    C61     1.394   .     A
C54    C62     1.401   .     A
C54    H68     1.083   .     S
C55    C63     1.411   .     A
C55    C57     1.483   .     S
C56    C193    1.330   .     S
C56    H211    1.087   .     S
C57    O81     1.308   .     A
C57    O82     1.301   .     A
C58    C59     1.428   .     S
C58    C326    1.330   1_545 S
C58    H339    1.088   1_545 S
C59    O83     1.290   .     A
C59    O84     1.293   .     A
C60    O86     1.302   .     A
C60    O85     1.299   .     A
C60    C62     1.464   .     S
C61    C455    1.404   1_554 S
C61    H117    1.084   .     S
C63    O88     1.382   .     S
C63    C64     1.400   .     A
C64    C65     1.392   .     A
C64    H74     1.083   .     S
C65    I495    2.138   .     S
Cu66   O85     1.926   .     S
Cu66   N78     2.027   .     S
Cu66   O81     1.944   .     S
Cu66   O79     1.952   .     S
Cu66   Cu67    2.697   .     S
Cu66   O83     1.950   .     S
Cu67   O80     1.950   .     S
Cu67   N77     2.027   .     S
Cu67   O86     1.944   .     S
Cu67   O84     1.952   .     S
Cu67   O82     1.926   .     S
H69    C193    1.088   .     S
H76    C326    1.087   1_545 S
N77    H115    1.029   .     S
N77    N123    1.285   .     S
I87    N123    2.080   .     S
H89    O133    0.992   .     S
I90    C470    2.138   1_554 S
C91    C101    1.428   .     S
C91    O124    1.293   .     A
C91    O125    1.290   .     A
C92    C93     1.420   .     A
C92    C110    1.423   .     A
C92    C499    1.423   .     S
C93    C100    1.424   .     A
C93    C97     1.416   .     A
C94    C98     1.397   .     A
C94    C497    1.423   1_554 S
C94    C500    1.417   1_554 S
C95    C96     1.390   .     A
C95    C499    1.417   .     S
C95    C511    1.404   .     S
C96    C97     1.387   .     A
C96    H116    1.084   .     S
C97    H120    1.081   .     S
C98    C107    1.399   .     A
C98    H118    1.078   .     S
C99    C106    1.394   .     A
C99    C107    1.401   .     A
C99    H113    1.083   .     S
C100   C108    1.411   .     A
C100   C102    1.483   .     S
C101   C238    1.330   .     S
C101   H256    1.087   .     S
C102   O126    1.308   .     A
C102   O127    1.301   .     A
C103   C104    1.428   .     S
C103   C371    1.330   1_545 S
C103   H384    1.088   1_545 S
C104   O128    1.290   .     A
C104   O129    1.293   .     A
C105   O131    1.302   .     A
C105   O130    1.299   .     A
C105   C107    1.464   .     S
C106   C500    1.404   1_554 S
C106   H27     1.084   1_655 S
C108   O133    1.382   .     S
C108   C109    1.400   .     A
C109   C110    1.392   .     A
C109   H119    1.083   .     S
C110   I540    2.138   .     S
Cu111  O130    1.926   .     S
Cu111  N123    2.027   .     S
Cu111  O126    1.944   .     S
Cu111  O124    1.952   .     S
Cu111  Cu112   2.697   .     S
Cu111  O128    1.950   .     S
Cu112  O125    1.950   .     S
Cu112  N122    2.027   .     S
Cu112  O131    1.944   .     S
Cu112  O129    1.952   .     S
Cu112  O127    1.926   .     S
H114   C238    1.088   .     S
H121   C371    1.087   1_545 S
N122   H25     1.029   1_655 S
N122   N33     1.285   1_655 S
I132   N33     2.080   1_655 S
H134   O43     0.992   1_655 S
I135   C515    2.138   1_554 S
C136   C146    1.428   .     S
C136   O169    1.293   .     A
C136   O170    1.290   .     A
C137   C138    1.420   .     A
C137   C155    1.423   .     A
C137   C544    1.423   .     S
C138   C145    1.424   .     A
C138   C142    1.416   .     A
C139   C143    1.397   .     A
C139   C542    1.423   1_554 S
C139   C545    1.417   1_554 S
C140   C141    1.390   .     A
C140   C544    1.417   .     S
C140   C556    1.404   .     S
C141   C142    1.387   .     A
C141   H161    1.084   .     S
C142   H165    1.081   .     S
C143   C152    1.399   .     A
C143   H163    1.078   .     S
C144   C151    1.394   .     A
C144   C152    1.401   .     A
C144   H158    1.083   .     S
C145   C153    1.411   .     A
C145   C147    1.483   .     S
C146   C283    1.330   .     S
C146   H301    1.087   .     S
C147   O171    1.308   .     A
C147   O172    1.301   .     A
C148   C149    1.428   .     S
C149   O173    1.290   .     A
C149   O174    1.293   .     A
C150   O176    1.302   .     A
C150   O175    1.299   .     A
C150   C152    1.464   .     S
C151   C545    1.404   1_554 S
C151   H207    1.084   .     S
C153   O178    1.382   .     S
C153   C154    1.400   .     A
C154   C155    1.392   .     A
C154   H164    1.083   .     S
C155   I585    2.138   .     S
Cu156  O175    1.926   .     S
Cu156  N168    2.027   .     S
Cu156  O171    1.944   .     S
Cu156  O169    1.952   .     S
Cu156  Cu157   2.697   .     S
Cu156  O173    1.950   .     S
Cu157  O170    1.950   .     S
Cu157  N167    2.027   .     S
Cu157  O176    1.944   .     S
Cu157  O174    1.952   .     S
Cu157  O172    1.926   .     S
H159   C283    1.088   .     S
H160   N257    1.029   1_455 S
H162   C241    1.084   1_455 S
N167   H205    1.029   .     S
N167   N213    1.285   .     S
N168   N257    1.285   1_455 S
N168   I267    2.080   1_455 S
I177   N213    2.080   .     S
O178   H269    0.992   1_455 S
H179   O223    0.992   .     S
I180   C560    2.138   1_554 S
C181   C191    1.428   .     S
C181   O214    1.293   .     A
C181   O215    1.290   .     A
C182   C183    1.420   .     A
C182   C200    1.423   .     A
C182   C589    1.423   .     S
C183   C190    1.424   .     A
C183   C187    1.416   .     A
C184   C188    1.397   .     A
C184   C587    1.423   1_554 S
C184   C590    1.417   1_554 S
C185   C186    1.390   .     A
C185   C589    1.417   .     S
C185   C601    1.404   .     S
C186   C187    1.387   .     A
C186   H206    1.084   .     S
C187   H210    1.081   .     S
C188   C197    1.399   .     A
C188   H208    1.078   .     S
C189   C196    1.394   .     A
C189   C197    1.401   .     A
C189   H203    1.083   .     S
C190   C198    1.411   .     A
C190   C192    1.483   .     S
C191   C328    1.330   .     S
C191   H346    1.087   .     S
C192   O216    1.308   .     A
C192   O217    1.301   .     A
C193   C194    1.428   .     S
C194   O218    1.290   .     A
C194   O219    1.293   .     A
C195   O221    1.302   .     A
C195   O220    1.299   .     A
C195   C197    1.464   .     S
C196   C590    1.404   1_554 S
C196   H252    1.084   .     S
C198   O223    1.382   .     S
C198   C199    1.400   .     A
C199   C200    1.392   .     A
C199   H209    1.083   .     S
C200   I630    2.138   .     S
Cu201  O220    1.926   .     S
Cu201  N213    2.027   .     S
Cu201  O216    1.944   .     S
Cu201  O214    1.952   .     S
Cu201  Cu202   2.697   .     S
Cu201  O218    1.950   .     S
Cu202  O215    1.950   .     S
Cu202  N212    2.027   .     S
Cu202  O221    1.944   .     S
Cu202  O219    1.952   .     S
Cu202  O217    1.926   .     S
H204   C328    1.088   .     S
N212   H250    1.029   .     S
N212   N258    1.285   .     S
I222   N258    2.080   .     S
H224   O268    0.992   .     S
I225   C605    2.138   1_554 S
C226   C236    1.428   .     S
C226   O259    1.293   .     A
C226   O260    1.290   .     A
C227   C228    1.420   .     A
C227   C245    1.423   .     A
C227   C634    1.423   .     S
C228   C235    1.424   .     A
C228   C232    1.416   .     A
C229   C233    1.397   .     A
C229   C632    1.423   1_554 S
C229   C635    1.417   1_554 S
C230   C231    1.390   .     A
C230   C634    1.417   .     S
C230   C646    1.404   .     S
C231   C232    1.387   .     A
C231   H251    1.084   .     S
C232   H255    1.081   .     S
C233   C242    1.399   .     A
C233   H253    1.078   .     S
C234   C241    1.394   .     A
C234   C242    1.401   .     A
C234   H248    1.083   .     S
C235   C243    1.411   .     A
C235   C237    1.483   .     S
C236   C373    1.330   .     S
C236   H391    1.087   .     S
C237   O261    1.308   .     A
C237   O262    1.301   .     A
C238   C239    1.428   .     S
C239   O263    1.290   .     A
C239   O264    1.293   .     A
C240   O266    1.302   .     A
C240   O265    1.299   .     A
C240   C242    1.464   .     S
C241   C635    1.404   1_554 S
C241   H162    1.084   1_655 S
C243   O268    1.382   .     S
C243   C244    1.400   .     A
C244   C245    1.392   .     A
C244   H254    1.083   .     S
C245   I675    2.138   .     S
Cu246  O265    1.926   .     S
Cu246  N258    2.027   .     S
Cu246  O261    1.944   .     S
Cu246  O259    1.952   .     S
Cu246  Cu247   2.697   .     S
Cu246  O263    1.950   .     S
Cu247  O260    1.950   .     S
Cu247  N257    2.027   .     S
Cu247  O266    1.944   .     S
Cu247  O264    1.952   .     S
Cu247  O262    1.926   .     S
H249   C373    1.088   .     S
N257   H160    1.029   1_655 S
N257   N168    1.285   1_655 S
I267   N168    2.080   1_655 S
H269   O178    0.992   1_655 S
I270   C650    2.138   1_554 S
C271   C281    1.428   .     S
C271   O304    1.293   .     A
C271   O305    1.290   .     A
C272   C273    1.420   .     A
C272   C290    1.423   .     A
C272   C679    1.423   .     S
C273   C280    1.424   .     A
C273   C277    1.416   .     A
C274   C278    1.397   .     A
C274   C677    1.423   1_554 S
C274   C680    1.417   1_554 S
C275   C276    1.390   .     A
C275   C679    1.417   .     S
C275   C691    1.404   .     S
C276   C277    1.387   .     A
C276   H296    1.084   .     S
C277   H300    1.081   .     S
C278   C287    1.399   .     A
C278   H298    1.078   .     S
C279   C286    1.394   .     A
C279   C287    1.401   .     A
C279   H293    1.083   .     S
C280   C288    1.411   .     A
C280   C282    1.483   .     S
C281   C13     1.330   1_565 S
C281   H31     1.087   1_565 S
C282   O306    1.308   .     A
C282   O307    1.301   .     A
C283   C284    1.428   .     S
C284   O308    1.290   .     A
C284   O309    1.293   .     A
C285   O311    1.302   .     A
C285   O310    1.299   .     A
C285   C287    1.464   .     S
C286   C680    1.404   1_554 S
C286   H342    1.084   .     S
C288   O313    1.382   .     S
C288   C289    1.400   .     A
C289   C290    1.392   .     A
C289   H299    1.083   .     S
C290   I720    2.138   .     S
Cu291  O310    1.926   .     S
Cu291  N303    2.027   .     S
Cu291  O306    1.944   .     S
Cu291  O304    1.952   .     S
Cu291  Cu292   2.697   .     S
Cu291  O308    1.950   .     S
Cu292  O305    1.950   .     S
Cu292  N302    2.027   .     S
Cu292  O311    1.944   .     S
Cu292  O309    1.952   .     S
Cu292  O307    1.926   .     S
H294   C13     1.088   1_565 S
H295   N392    1.029   1_455 S
H297   C376    1.084   1_455 S
N302   H340    1.029   .     S
N302   N348    1.285   .     S
N303   N392    1.285   1_455 S
N303   I402    2.080   1_455 S
I312   N348    2.080   .     S
O313   H404    0.992   1_455 S
H314   O358    0.992   .     S
I315   C695    2.138   1_554 S
C316   C326    1.428   .     S
C316   O349    1.293   .     A
C316   O350    1.290   .     A
C317   C318    1.420   .     A
C317   C335    1.423   .     A
C317   C724    1.423   .     S
C318   C325    1.424   .     A
C318   C322    1.416   .     A
C319   C323    1.397   .     A
C319   C722    1.423   1_554 S
C319   C725    1.417   1_554 S
C320   C321    1.390   .     A
C320   C724    1.417   .     S
C320   C736    1.404   .     S
C321   C322    1.387   .     A
C321   H341    1.084   .     S
C322   H345    1.081   .     S
C323   C332    1.399   .     A
C323   H343    1.078   .     S
C324   C331    1.394   .     A
C324   C332    1.401   .     A
C324   H338    1.083   .     S
C325   C333    1.411   .     A
C325   C327    1.483   .     S
C326   C58     1.330   1_565 S
C326   H76     1.087   1_565 S
C327   O351    1.308   .     A
C327   O352    1.301   .     A
C328   C329    1.428   .     S
C329   O353    1.290   .     A
C329   O354    1.293   .     A
C330   O356    1.302   .     A
C330   O355    1.299   .     A
C330   C332    1.464   .     S
C331   C725    1.404   1_554 S
C331   H387    1.084   .     S
C333   O358    1.382   .     S
C333   C334    1.400   .     A
C334   C335    1.392   .     A
C334   H344    1.083   .     S
C335   I765    2.138   .     S
Cu336  O355    1.926   .     S
Cu336  N348    2.027   .     S
Cu336  O351    1.944   .     S
Cu336  O349    1.952   .     S
Cu336  Cu337   2.697   .     S
Cu336  O353    1.950   .     S
Cu337  O350    1.950   .     S
Cu337  N347    2.027   .     S
Cu337  O356    1.944   .     S
Cu337  O354    1.952   .     S
Cu337  O352    1.926   .     S
H339   C58     1.088   1_565 S
N347   H385    1.029   .     S
N347   N393    1.285   .     S
I357   N393    2.080   .     S
H359   O403    0.992   .     S
I360   C740    2.138   1_554 S
C361   C371    1.428   .     S
C361   O394    1.293   .     A
C361   O395    1.290   .     A
C362   C363    1.420   .     A
C362   C380    1.423   .     A
C362   C769    1.423   .     S
C363   C370    1.424   .     A
C363   C367    1.416   .     A
C364   C368    1.397   .     A
C364   C767    1.423   1_554 S
C364   C770    1.417   1_554 S
C365   C366    1.390   .     A
C365   C769    1.417   .     S
C365   C781    1.404   .     S
C366   C367    1.387   .     A
C366   H386    1.084   .     S
C367   H390    1.081   .     S
C368   C377    1.399   .     A
C368   H388    1.078   .     S
C369   C376    1.394   .     A
C369   C377    1.401   .     A
C369   H383    1.083   .     S
C370   C378    1.411   .     A
C370   C372    1.483   .     S
C371   C103    1.330   1_565 S
C371   H121    1.087   1_565 S
C372   O396    1.308   .     A
C372   O397    1.301   .     A
C373   C374    1.428   .     S
C374   O398    1.290   .     A
C374   O399    1.293   .     A
C375   O401    1.302   .     A
C375   O400    1.299   .     A
C375   C377    1.464   .     S
C376   C770    1.404   1_554 S
C376   H297    1.084   1_655 S
C378   O403    1.382   .     S
C378   C379    1.400   .     A
C379   C380    1.392   .     A
C379   H389    1.083   .     S
C380   I810    2.138   .     S
Cu381  O400    1.926   .     S
Cu381  N393    2.027   .     S
Cu381  O396    1.944   .     S
Cu381  O394    1.952   .     S
Cu381  Cu382   2.697   .     S
Cu381  O398    1.950   .     S
Cu382  O395    1.950   .     S
Cu382  N392    2.027   .     S
Cu382  O401    1.944   .     S
Cu382  O399    1.952   .     S
Cu382  O397    1.926   .     S
H384   C103    1.088   1_565 S
N392   H295    1.029   1_655 S
N392   N303    1.285   1_655 S
I402   N303    2.080   1_655 S
H404   O313    0.992   1_655 S
I405   C785    2.138   1_554 S
C406   C416    1.428   .     S
C406   O439    1.293   .     A
C406   O440    1.290   .     A
C407   C408    1.420   .     A
C407   C425    1.423   .     A
C407   C4      1.423   1_556 S
C408   C415    1.424   .     A
C408   C412    1.416   .     A
C409   C413    1.397   .     A
C410   C411    1.390   .     A
C410   C4      1.417   1_556 S
C410   C16     1.404   1_556 S
C411   C412    1.387   .     A
C411   H431    1.084   .     S
C412   H435    1.081   .     S
C413   C422    1.399   .     A
C413   H433    1.078   .     S
C414   C421    1.394   .     A
C414   C422    1.401   .     A
C414   H428    1.083   .     S
C415   C423    1.411   .     A
C415   C417    1.483   .     S
C416   C553    1.330   .     S
C416   H571    1.087   .     S
C417   O441    1.308   .     A
C417   O442    1.301   .     A
C418   C419    1.428   .     S
C418   C686    1.330   1_545 S
C418   H699    1.088   1_545 S
C419   O443    1.290   .     A
C419   O444    1.293   .     A
C420   O446    1.302   .     A
C420   O445    1.299   .     A
C420   C422    1.464   .     S
C421   H477    1.084   .     S
C423   O448    1.382   .     S
C423   C424    1.400   .     A
C424   C425    1.392   .     A
C424   H434    1.083   .     S
C425   I45     2.138   1_556 S
Cu426  O445    1.926   .     S
Cu426  N438    2.027   .     S
Cu426  O441    1.944   .     S
Cu426  O439    1.952   .     S
Cu426  Cu427   2.697   .     S
Cu426  O443    1.950   .     S
Cu427  O440    1.950   .     S
Cu427  N437    2.027   .     S
Cu427  O446    1.944   .     S
Cu427  O444    1.952   .     S
Cu427  O442    1.926   .     S
H429   C553    1.088   .     S
H430   N527    1.029   1_455 S
H432   C511    1.084   1_455 S
H436   C686    1.087   1_545 S
N437   H475    1.029   .     S
N437   N483    1.285   .     S
N438   N527    1.285   1_455 S
N438   I537    2.080   1_455 S
I447   N483    2.080   .     S
O448   H539    0.992   1_455 S
H449   O493    0.992   .     S
C451   C461    1.428   .     S
C451   O484    1.293   .     A
C451   O485    1.290   .     A
C452   C453    1.420   .     A
C452   C470    1.423   .     A
C452   C49     1.423   1_556 S
C453   C460    1.424   .     A
C453   C457    1.416   .     A
C454   C458    1.397   .     A
C455   C456    1.390   .     A
C455   C49     1.417   1_556 S
C455   C61     1.404   1_556 S
C456   C457    1.387   .     A
C456   H476    1.084   .     S
C457   H480    1.081   .     S
C458   C467    1.399   .     A
C458   H478    1.078   .     S
C459   C466    1.394   .     A
C459   C467    1.401   .     A
C459   H473    1.083   .     S
C460   C468    1.411   .     A
C460   C462    1.483   .     S
C461   C598    1.330   .     S
C461   H616    1.087   .     S
C462   O486    1.308   .     A
C462   O487    1.301   .     A
C463   C464    1.428   .     S
C463   C731    1.330   1_545 S
C463   H744    1.088   1_545 S
C464   O488    1.290   .     A
C464   O489    1.293   .     A
C465   O491    1.302   .     A
C465   O490    1.299   .     A
C465   C467    1.464   .     S
C466   H522    1.084   .     S
C468   O493    1.382   .     S
C468   C469    1.400   .     A
C469   C470    1.392   .     A
C469   H479    1.083   .     S
C470   I90     2.138   1_556 S
Cu471  O490    1.926   .     S
Cu471  N483    2.027   .     S
Cu471  O486    1.944   .     S
Cu471  O484    1.952   .     S
Cu471  Cu472   2.697   .     S
Cu471  O488    1.950   .     S
Cu472  O485    1.950   .     S
Cu472  N482    2.027   .     S
Cu472  O491    1.944   .     S
Cu472  O489    1.952   .     S
Cu472  O487    1.926   .     S
H474   C598    1.088   .     S
H481   C731    1.087   1_545 S
N482   H520    1.029   .     S
N482   N528    1.285   .     S
I492   N528    2.080   .     S
H494   O538    0.992   .     S
C496   C506    1.428   .     S
C496   O529    1.293   .     A
C496   O530    1.290   .     A
C497   C498    1.420   .     A
C497   C515    1.423   .     A
C497   C94     1.423   1_556 S
C498   C505    1.424   .     A
C498   C502    1.416   .     A
C499   C503    1.397   .     A
C500   C501    1.390   .     A
C500   C94     1.417   1_556 S
C500   C106    1.404   1_556 S
C501   C502    1.387   .     A
C501   H521    1.084   .     S
C502   H525    1.081   .     S
C503   C512    1.399   .     A
C503   H523    1.078   .     S
C504   C511    1.394   .     A
C504   C512    1.401   .     A
C504   H518    1.083   .     S
C505   C513    1.411   .     A
C505   C507    1.483   .     S
C506   C643    1.330   .     S
C506   H661    1.087   .     S
C507   O531    1.308   .     A
C507   O532    1.301   .     A
C508   C509    1.428   .     S
C508   C776    1.330   1_545 S
C508   H789    1.088   1_545 S
C509   O533    1.290   .     A
C509   O534    1.293   .     A
C510   O536    1.302   .     A
C510   O535    1.299   .     A
C510   C512    1.464   .     S
C511   H432    1.084   1_655 S
C513   O538    1.382   .     S
C513   C514    1.400   .     A
C514   C515    1.392   .     A
C514   H524    1.083   .     S
C515   I135    2.138   1_556 S
Cu516  O535    1.926   .     S
Cu516  N528    2.027   .     S
Cu516  O531    1.944   .     S
Cu516  O529    1.952   .     S
Cu516  Cu517   2.697   .     S
Cu516  O533    1.950   .     S
Cu517  O530    1.950   .     S
Cu517  N527    2.027   .     S
Cu517  O536    1.944   .     S
Cu517  O534    1.952   .     S
Cu517  O532    1.926   .     S
H519   C643    1.088   .     S
H526   C776    1.087   1_545 S
N527   H430    1.029   1_655 S
N527   N438    1.285   1_655 S
I537   N438    2.080   1_655 S
H539   O448    0.992   1_655 S
C541   C551    1.428   .     S
C541   O574    1.293   .     A
C541   O575    1.290   .     A
C542   C543    1.420   .     A
C542   C560    1.423   .     A
C542   C139    1.423   1_556 S
C543   C550    1.424   .     A
C543   C547    1.416   .     A
C544   C548    1.397   .     A
C545   C546    1.390   .     A
C545   C139    1.417   1_556 S
C545   C151    1.404   1_556 S
C546   C547    1.387   .     A
C546   H566    1.084   .     S
C547   H570    1.081   .     S
C548   C557    1.399   .     A
C548   H568    1.078   .     S
C549   C556    1.394   .     A
C549   C557    1.401   .     A
C549   H563    1.083   .     S
C550   C558    1.411   .     A
C550   C552    1.483   .     S
C551   C688    1.330   .     S
C551   H706    1.087   .     S
C552   O576    1.308   .     A
C552   O577    1.301   .     A
C553   C554    1.428   .     S
C554   O578    1.290   .     A
C554   O579    1.293   .     A
C555   O581    1.302   .     A
C555   O580    1.299   .     A
C555   C557    1.464   .     S
C556   H612    1.084   .     S
C558   O583    1.382   .     S
C558   C559    1.400   .     A
C559   C560    1.392   .     A
C559   H569    1.083   .     S
C560   I180    2.138   1_556 S
Cu561  O580    1.926   .     S
Cu561  N573    2.027   .     S
Cu561  O576    1.944   .     S
Cu561  O574    1.952   .     S
Cu561  Cu562   2.697   .     S
Cu561  O578    1.950   .     S
Cu562  O575    1.950   .     S
Cu562  N572    2.027   .     S
Cu562  O581    1.944   .     S
Cu562  O579    1.952   .     S
Cu562  O577    1.926   .     S
H564   C688    1.088   .     S
H565   N662    1.029   1_455 S
H567   C646    1.084   1_455 S
N572   H610    1.029   .     S
N572   N618    1.285   .     S
N573   N662    1.285   1_455 S
N573   I672    2.080   1_455 S
I582   N618    2.080   .     S
O583   H674    0.992   1_455 S
H584   O628    0.992   .     S
C586   C596    1.428   .     S
C586   O619    1.293   .     A
C586   O620    1.290   .     A
C587   C588    1.420   .     A
C587   C605    1.423   .     A
C587   C184    1.423   1_556 S
C588   C595    1.424   .     A
C588   C592    1.416   .     A
C589   C593    1.397   .     A
C590   C591    1.390   .     A
C590   C184    1.417   1_556 S
C590   C196    1.404   1_556 S
C591   C592    1.387   .     A
C591   H611    1.084   .     S
C592   H615    1.081   .     S
C593   C602    1.399   .     A
C593   H613    1.078   .     S
C594   C601    1.394   .     A
C594   C602    1.401   .     A
C594   H608    1.083   .     S
C595   C603    1.411   .     A
C595   C597    1.483   .     S
C596   C733    1.330   .     S
C596   H751    1.087   .     S
C597   O621    1.308   .     A
C597   O622    1.301   .     A
C598   C599    1.428   .     S
C599   O623    1.290   .     A
C599   O624    1.293   .     A
C600   O626    1.302   .     A
C600   O625    1.299   .     A
C600   C602    1.464   .     S
C601   H657    1.084   .     S
C603   O628    1.382   .     S
C603   C604    1.400   .     A
C604   C605    1.392   .     A
C604   H614    1.083   .     S
C605   I225    2.138   1_556 S
Cu606  O625    1.926   .     S
Cu606  N618    2.027   .     S
Cu606  O621    1.944   .     S
Cu606  O619    1.952   .     S
Cu606  Cu607   2.697   .     S
Cu606  O623    1.950   .     S
Cu607  O620    1.950   .     S
Cu607  N617    2.027   .     S
Cu607  O626    1.944   .     S
Cu607  O624    1.952   .     S
Cu607  O622    1.926   .     S
H609   C733    1.088   .     S
N617   H655    1.029   .     S
N617   N663    1.285   .     S
I627   N663    2.080   .     S
H629   O673    0.992   .     S
C631   C641    1.428   .     S
C631   O664    1.293   .     A
C631   O665    1.290   .     A
C632   C633    1.420   .     A
C632   C650    1.423   .     A
C632   C229    1.423   1_556 S
C633   C640    1.424   .     A
C633   C637    1.416   .     A
C634   C638    1.397   .     A
C635   C636    1.390   .     A
C635   C229    1.417   1_556 S
C635   C241    1.404   1_556 S
C636   C637    1.387   .     A
C636   H656    1.084   .     S
C637   H660    1.081   .     S
C638   C647    1.399   .     A
C638   H658    1.078   .     S
C639   C646    1.394   .     A
C639   C647    1.401   .     A
C639   H653    1.083   .     S
C640   C648    1.411   .     A
C640   C642    1.483   .     S
C641   C778    1.330   .     S
C641   H796    1.087   .     S
C642   O666    1.308   .     A
C642   O667    1.301   .     A
C643   C644    1.428   .     S
C644   O668    1.290   .     A
C644   O669    1.293   .     A
C645   O671    1.302   .     A
C645   O670    1.299   .     A
C645   C647    1.464   .     S
C646   H567    1.084   1_655 S
C648   O673    1.382   .     S
C648   C649    1.400   .     A
C649   C650    1.392   .     A
C649   H659    1.083   .     S
C650   I270    2.138   1_556 S
Cu651  O670    1.926   .     S
Cu651  N663    2.027   .     S
Cu651  O666    1.944   .     S
Cu651  O664    1.952   .     S
Cu651  Cu652   2.697   .     S
Cu651  O668    1.950   .     S
Cu652  O665    1.950   .     S
Cu652  N662    2.027   .     S
Cu652  O671    1.944   .     S
Cu652  O669    1.952   .     S
Cu652  O667    1.926   .     S
H654   C778    1.088   .     S
N662   H565    1.029   1_655 S
N662   N573    1.285   1_655 S
I672   N573    2.080   1_655 S
H674   O583    0.992   1_655 S
C676   C686    1.428   .     S
C676   O709    1.293   .     A
C676   O710    1.290   .     A
C677   C678    1.420   .     A
C677   C695    1.423   .     A
C677   C274    1.423   1_556 S
C678   C685    1.424   .     A
C678   C682    1.416   .     A
C679   C683    1.397   .     A
C680   C681    1.390   .     A
C680   C274    1.417   1_556 S
C680   C286    1.404   1_556 S
C681   C682    1.387   .     A
C681   H701    1.084   .     S
C682   H705    1.081   .     S
C683   C692    1.399   .     A
C683   H703    1.078   .     S
C684   C691    1.394   .     A
C684   C692    1.401   .     A
C684   H698    1.083   .     S
C685   C693    1.411   .     A
C685   C687    1.483   .     S
C686   C418    1.330   1_565 S
C686   H436    1.087   1_565 S
C687   O711    1.308   .     A
C687   O712    1.301   .     A
C688   C689    1.428   .     S
C689   O713    1.290   .     A
C689   O714    1.293   .     A
C690   O716    1.302   .     A
C690   O715    1.299   .     A
C690   C692    1.464   .     S
C691   H747    1.084   .     S
C693   O718    1.382   .     S
C693   C694    1.400   .     A
C694   C695    1.392   .     A
C694   H704    1.083   .     S
C695   I315    2.138   1_556 S
Cu696  O715    1.926   .     S
Cu696  N708    2.027   .     S
Cu696  O711    1.944   .     S
Cu696  O709    1.952   .     S
Cu696  Cu697   2.697   .     S
Cu696  O713    1.950   .     S
Cu697  O710    1.950   .     S
Cu697  N707    2.027   .     S
Cu697  O716    1.944   .     S
Cu697  O714    1.952   .     S
Cu697  O712    1.926   .     S
H699   C418    1.088   1_565 S
H700   N797    1.029   1_455 S
H702   C781    1.084   1_455 S
N707   H745    1.029   .     S
N707   N753    1.285   .     S
N708   N797    1.285   1_455 S
N708   I807    2.080   1_455 S
I717   N753    2.080   .     S
O718   H809    0.992   1_455 S
H719   O763    0.992   .     S
C721   C731    1.428   .     S
C721   O754    1.293   .     A
C721   O755    1.290   .     A
C722   C723    1.420   .     A
C722   C740    1.423   .     A
C722   C319    1.423   1_556 S
C723   C730    1.424   .     A
C723   C727    1.416   .     A
C724   C728    1.397   .     A
C725   C726    1.390   .     A
C725   C319    1.417   1_556 S
C725   C331    1.404   1_556 S
C726   C727    1.387   .     A
C726   H746    1.084   .     S
C727   H750    1.081   .     S
C728   C737    1.399   .     A
C728   H748    1.078   .     S
C729   C736    1.394   .     A
C729   C737    1.401   .     A
C729   H743    1.083   .     S
C730   C738    1.411   .     A
C730   C732    1.483   .     S
C731   C463    1.330   1_565 S
C731   H481    1.087   1_565 S
C732   O756    1.308   .     A
C732   O757    1.301   .     A
C733   C734    1.428   .     S
C734   O758    1.290   .     A
C734   O759    1.293   .     A
C735   O761    1.302   .     A
C735   O760    1.299   .     A
C735   C737    1.464   .     S
C736   H792    1.084   .     S
C738   O763    1.382   .     S
C738   C739    1.400   .     A
C739   C740    1.392   .     A
C739   H749    1.083   .     S
C740   I360    2.138   1_556 S
Cu741  O760    1.926   .     S
Cu741  N753    2.027   .     S
Cu741  O756    1.944   .     S
Cu741  O754    1.952   .     S
Cu741  Cu742   2.697   .     S
Cu741  O758    1.950   .     S
Cu742  O755    1.950   .     S
Cu742  N752    2.027   .     S
Cu742  O761    1.944   .     S
Cu742  O759    1.952   .     S
Cu742  O757    1.926   .     S
H744   C463    1.088   1_565 S
N752   H790    1.029   .     S
N752   N798    1.285   .     S
I762   N798    2.080   .     S
H764   O808    0.992   .     S
C766   C776    1.428   .     S
C766   O799    1.293   .     A
C766   O800    1.290   .     A
C767   C768    1.420   .     A
C767   C785    1.423   .     A
C767   C364    1.423   1_556 S
C768   C775    1.424   .     A
C768   C772    1.416   .     A
C769   C773    1.397   .     A
C770   C771    1.390   .     A
C770   C364    1.417   1_556 S
C770   C376    1.404   1_556 S
C771   C772    1.387   .     A
C771   H791    1.084   .     S
C772   H795    1.081   .     S
C773   C782    1.399   .     A
C773   H793    1.078   .     S
C774   C781    1.394   .     A
C774   C782    1.401   .     A
C774   H788    1.083   .     S
C775   C783    1.411   .     A
C775   C777    1.483   .     S
C776   C508    1.330   1_565 S
C776   H526    1.087   1_565 S
C777   O801    1.308   .     A
C777   O802    1.301   .     A
C778   C779    1.428   .     S
C779   O803    1.290   .     A
C779   O804    1.293   .     A
C780   O806    1.302   .     A
C780   O805    1.299   .     A
C780   C782    1.464   .     S
C781   H702    1.084   1_655 S
C783   O808    1.382   .     S
C783   C784    1.400   .     A
C784   C785    1.392   .     A
C784   H794    1.083   .     S
C785   I405    2.138   1_556 S
Cu786  O805    1.926   .     S
Cu786  N798    2.027   .     S
Cu786  O801    1.944   .     S
Cu786  O799    1.952   .     S
Cu786  Cu787   2.697   .     S
Cu786  O803    1.950   .     S
Cu787  O800    1.950   .     S
Cu787  N797    2.027   .     S
Cu787  O806    1.944   .     S
Cu787  O804    1.952   .     S
Cu787  O802    1.926   .     S
H789   C508    1.088   1_565 S
N797   H700    1.029   1_655 S
N797   N708    1.285   1_655 S
I807   N708    2.080   1_655 S
H809   O718    0.992   1_655 S
