data_str_m2_o10_o18_pcu_sym.45
_audit_creation_date              2020-01-03
_audit_creation_method            'Materials Studio'
_symmetry_space_group_name_H-M    'P1'
_symmetry_Int_Tables_number       1
_symmetry_cell_setting            triclinic
loop_
_symmetry_equiv_pos_as_xyz
  x,y,z
_cell_length_a                    22.2264
_cell_length_b                    26.2338
_cell_length_c                    31.6576
_cell_angle_alpha                 94.0999
_cell_angle_beta                  74.6334
_cell_angle_gamma                 102.7481
loop_
_atom_site_label
_atom_site_type_symbol
_atom_site_fract_x
_atom_site_fract_y
_atom_site_fract_z
_atom_site_U_iso_or_equiv
_atom_site_adp_type
_atom_site_occupancy
C1     C     0.18091   0.26648   0.25190   0.00000  Uiso   1.00
C2     C     0.20590   0.17150   0.16675   0.00000  Uiso   1.00
C3     C     0.10287   0.15656   0.38134   0.00000  Uiso   1.00
C4     C     0.23042   0.17932   0.11901   0.00000  Uiso   1.00
C5     C     0.02190   0.12370   0.44685   0.00000  Uiso   1.00
C6     C     0.30867   0.21963   0.05507   0.00000  Uiso   1.00
C7     C     0.03910   0.13330   0.40202   0.00000  Uiso   1.00
C8     C     0.29252   0.20711   0.09929   0.00000  Uiso   1.00
C9     C     0.14695   0.17202   0.40679   0.00000  Uiso   1.00
C10    C     0.18702   0.16270   0.09325   0.00000  Uiso   1.00
C11    C     0.13026   0.16321   0.45214   0.00000  Uiso   1.00
C12    C     0.15242   0.06685   0.24812   0.00000  Uiso   1.00
C13    C     0.20168   0.17659   0.04899   0.00000  Uiso   1.00
C14    C     0.06687   0.13744   0.47169   0.00000  Uiso   1.00
C15    C     0.26389   0.20533   0.03011   0.00000  Uiso   1.00
C16    C     0.17505   0.17784   0.47826   0.00000  Uiso   1.00
C17    C     0.15622   0.16353   0.02327   0.00000  Uiso   1.00
C18    C     0.09227   0.13757   0.04118   0.00000  Uiso   1.00
C19    C     0.23773   0.20686   0.46107   0.00000  Uiso   1.00
C20    C     0.04872   0.12510   0.01587   0.00000  Uiso   1.00
C21    C     0.28096   0.22024   0.48657   0.00000  Uiso   1.00
C22    C     0.18432   0.32128   0.25871   0.00000  Uiso   1.00
C23    C     0.14902   0.01206   0.24132   0.00000  Uiso   1.00
C24    C     0.12744   0.16216   0.33331   0.00000  Uiso   1.00
Cl25   Cl    0.01785   0.22928   0.12831   0.00000  Uiso   1.00
Cl26   Cl    0.31265   0.11294   0.37365   0.00000  Uiso   1.00
Cl27   Cl    0.22934   0.01796   0.29603   0.00000  Uiso   1.00
Cl28   Cl    0.10404   0.31539   0.20399   0.00000  Uiso   1.00
Cu29   Cu    0.10737   0.16108   0.24517   0.00000  Uiso   1.00
Cu30   Cu    0.22596   0.17225   0.25484   0.00000  Uiso   1.00
H31    H     0.00017   0.10552   0.03114   0.00000  Uiso   1.00
H32    H     0.33205   0.12860   0.21567   0.00000  Uiso   1.00
H33    H     0.32841   0.24254   0.47194   0.00000  Uiso   1.00
H34    H     0.14143   0.13935   0.10908   0.00000  Uiso   1.00
H35    H     0.19501   0.18946   0.38989   0.00000  Uiso   1.00
H36    H     0.30650   0.10473   0.46229   0.00000  Uiso   1.00
H37    H     0.02299   0.24143   0.04026   0.00000  Uiso   1.00
H38    H     0.07331   0.12693   0.07504   0.00000  Uiso   1.00
H39    H     0.25513   0.22109   0.42810   0.00000  Uiso   1.00
H40    H     0.00128   0.20473   0.28433   0.00000  Uiso   1.00
N41    N     0.31506   0.18068   0.26212   0.00000  Uiso   1.00
N42    N     0.01827   0.15265   0.23788   0.00000  Uiso   1.00
O43    O     0.12815   0.23809   0.24686   0.00000  Uiso   1.00
O44    O     0.20518   0.09524   0.25314   0.00000  Uiso   1.00
O45    O     0.22829   0.24753   0.25503   0.00000  Uiso   1.00
O46    O     0.10504   0.08580   0.24498   0.00000  Uiso   1.00
O47    O     0.08851   0.15930   0.30855   0.00000  Uiso   1.00
O48    O     0.24482   0.17403   0.19146   0.00000  Uiso   1.00
O49    O     0.18866   0.16874   0.31671   0.00000  Uiso   1.00
O50    O     0.14468   0.16460   0.18329   0.00000  Uiso   1.00
C51    C     0.51424   0.26648   0.25190   0.00000  Uiso   1.00
C52    C     0.53923   0.17150   0.16675   0.00000  Uiso   1.00
C53    C     0.43620   0.15656   0.38134   0.00000  Uiso   1.00
C54    C     0.56376   0.17932   0.11901   0.00000  Uiso   1.00
C55    C     0.35524   0.12370   0.44685   0.00000  Uiso   1.00
C56    C     0.64201   0.21963   0.05507   0.00000  Uiso   1.00
C57    C     0.37243   0.13330   0.40202   0.00000  Uiso   1.00
C58    C     0.62585   0.20711   0.09929   0.00000  Uiso   1.00
C59    C     0.48028   0.17202   0.40679   0.00000  Uiso   1.00
C60    C     0.52036   0.16270   0.09325   0.00000  Uiso   1.00
C61    C     0.46359   0.16321   0.45214   0.00000  Uiso   1.00
C62    C     0.48575   0.06685   0.24812   0.00000  Uiso   1.00
C63    C     0.53501   0.17659   0.04899   0.00000  Uiso   1.00
C64    C     0.40020   0.13744   0.47169   0.00000  Uiso   1.00
C65    C     0.59722   0.20533   0.03011   0.00000  Uiso   1.00
C66    C     0.50839   0.17784   0.47826   0.00000  Uiso   1.00
C67    C     0.48955   0.16353   0.02327   0.00000  Uiso   1.00
C68    C     0.42560   0.13757   0.04118   0.00000  Uiso   1.00
C69    C     0.57106   0.20686   0.46107   0.00000  Uiso   1.00
C70    C     0.38205   0.12510   0.01587   0.00000  Uiso   1.00
C71    C     0.61429   0.22024   0.48657   0.00000  Uiso   1.00
C72    C     0.51765   0.32128   0.25871   0.00000  Uiso   1.00
C73    C     0.48235   0.01206   0.24132   0.00000  Uiso   1.00
C74    C     0.46077   0.16216   0.33331   0.00000  Uiso   1.00
Cl75   Cl    0.35118   0.22928   0.12831   0.00000  Uiso   1.00
Cl76   Cl    0.64599   0.11294   0.37365   0.00000  Uiso   1.00
Cl77   Cl    0.56267   0.01796   0.29603   0.00000  Uiso   1.00
Cl78   Cl    0.43737   0.31539   0.20399   0.00000  Uiso   1.00
Cu79   Cu    0.44071   0.16108   0.24517   0.00000  Uiso   1.00
Cu80   Cu    0.55929   0.17225   0.25484   0.00000  Uiso   1.00
H81    H     0.33350   0.10552   0.03114   0.00000  Uiso   1.00
H82    H     0.66538   0.12860   0.21567   0.00000  Uiso   1.00
H83    H     0.66174   0.24254   0.47194   0.00000  Uiso   1.00
H84    H     0.47476   0.13935   0.10908   0.00000  Uiso   1.00
H85    H     0.52834   0.18946   0.38989   0.00000  Uiso   1.00
H86    H     0.63983   0.10473   0.46229   0.00000  Uiso   1.00
H87    H     0.35632   0.24143   0.04026   0.00000  Uiso   1.00
H88    H     0.40664   0.12693   0.07504   0.00000  Uiso   1.00
H89    H     0.58846   0.22109   0.42810   0.00000  Uiso   1.00
H90    H     0.33462   0.20473   0.28433   0.00000  Uiso   1.00
N91    N     0.64839   0.18068   0.26212   0.00000  Uiso   1.00
N92    N     0.35161   0.15265   0.23788   0.00000  Uiso   1.00
O93    O     0.46148   0.23809   0.24686   0.00000  Uiso   1.00
O94    O     0.53852   0.09524   0.25314   0.00000  Uiso   1.00
O95    O     0.56163   0.24753   0.25503   0.00000  Uiso   1.00
O96    O     0.43837   0.08580   0.24498   0.00000  Uiso   1.00
O97    O     0.42185   0.15930   0.30855   0.00000  Uiso   1.00
O98    O     0.57815   0.17403   0.19146   0.00000  Uiso   1.00
O99    O     0.52199   0.16874   0.31671   0.00000  Uiso   1.00
O100   O     0.47801   0.16460   0.18329   0.00000  Uiso   1.00
C101   C     0.84758   0.26648   0.25190   0.00000  Uiso   1.00
C102   C     0.87256   0.17150   0.16675   0.00000  Uiso   1.00
C103   C     0.76953   0.15656   0.38134   0.00000  Uiso   1.00
C104   C     0.89709   0.17932   0.11901   0.00000  Uiso   1.00
C105   C     0.68857   0.12370   0.44685   0.00000  Uiso   1.00
C106   C     0.97534   0.21963   0.05507   0.00000  Uiso   1.00
C107   C     0.70576   0.13330   0.40202   0.00000  Uiso   1.00
C108   C     0.95918   0.20711   0.09929   0.00000  Uiso   1.00
C109   C     0.81362   0.17202   0.40679   0.00000  Uiso   1.00
C110   C     0.85369   0.16270   0.09325   0.00000  Uiso   1.00
C111   C     0.79692   0.16321   0.45214   0.00000  Uiso   1.00
C112   C     0.81909   0.06685   0.24812   0.00000  Uiso   1.00
C113   C     0.86834   0.17659   0.04899   0.00000  Uiso   1.00
C114   C     0.73353   0.13744   0.47169   0.00000  Uiso   1.00
C115   C     0.93056   0.20533   0.03011   0.00000  Uiso   1.00
C116   C     0.84172   0.17784   0.47826   0.00000  Uiso   1.00
C117   C     0.82288   0.16353   0.02327   0.00000  Uiso   1.00
C118   C     0.75894   0.13757   0.04118   0.00000  Uiso   1.00
C119   C     0.90440   0.20686   0.46107   0.00000  Uiso   1.00
C120   C     0.71539   0.12510   0.01587   0.00000  Uiso   1.00
C121   C     0.94763   0.22024   0.48657   0.00000  Uiso   1.00
C122   C     0.85099   0.32128   0.25871   0.00000  Uiso   1.00
C123   C     0.81569   0.01206   0.24132   0.00000  Uiso   1.00
C124   C     0.79410   0.16216   0.33331   0.00000  Uiso   1.00
Cl125  Cl    0.68451   0.22928   0.12831   0.00000  Uiso   1.00
Cl126  Cl    0.97932   0.11294   0.37365   0.00000  Uiso   1.00
Cl127  Cl    0.89600   0.01796   0.29603   0.00000  Uiso   1.00
Cl128  Cl    0.77070   0.31539   0.20399   0.00000  Uiso   1.00
Cu129  Cu    0.77404   0.16108   0.24517   0.00000  Uiso   1.00
Cu130  Cu    0.89263   0.17225   0.25484   0.00000  Uiso   1.00
H131   H     0.66683   0.10552   0.03114   0.00000  Uiso   1.00
H132   H     0.99872   0.12860   0.21567   0.00000  Uiso   1.00
H133   H     0.99507   0.24254   0.47194   0.00000  Uiso   1.00
H134   H     0.80809   0.13935   0.10908   0.00000  Uiso   1.00
H135   H     0.86168   0.18946   0.38989   0.00000  Uiso   1.00
H136   H     0.97316   0.10473   0.46229   0.00000  Uiso   1.00
H137   H     0.68966   0.24143   0.04026   0.00000  Uiso   1.00
H138   H     0.73998   0.12693   0.07504   0.00000  Uiso   1.00
H139   H     0.92180   0.22109   0.42810   0.00000  Uiso   1.00
H140   H     0.66795   0.20473   0.28433   0.00000  Uiso   1.00
N141   N     0.98173   0.18068   0.26212   0.00000  Uiso   1.00
N142   N     0.68494   0.15265   0.23788   0.00000  Uiso   1.00
O143   O     0.79482   0.23809   0.24686   0.00000  Uiso   1.00
O144   O     0.87185   0.09524   0.25314   0.00000  Uiso   1.00
O145   O     0.89496   0.24753   0.25503   0.00000  Uiso   1.00
O146   O     0.77171   0.08580   0.24498   0.00000  Uiso   1.00
O147   O     0.75518   0.15930   0.30855   0.00000  Uiso   1.00
O148   O     0.91149   0.17403   0.19146   0.00000  Uiso   1.00
O149   O     0.85532   0.16874   0.31671   0.00000  Uiso   1.00
O150   O     0.81134   0.16460   0.18329   0.00000  Uiso   1.00
C151   C     0.18091   0.59981   0.25190   0.00000  Uiso   1.00
C152   C     0.20590   0.50484   0.16675   0.00000  Uiso   1.00
C153   C     0.10287   0.48989   0.38134   0.00000  Uiso   1.00
C154   C     0.23042   0.51265   0.11901   0.00000  Uiso   1.00
C155   C     0.02190   0.45703   0.44685   0.00000  Uiso   1.00
C156   C     0.30867   0.55297   0.05507   0.00000  Uiso   1.00
C157   C     0.03910   0.46664   0.40202   0.00000  Uiso   1.00
C158   C     0.29252   0.54044   0.09929   0.00000  Uiso   1.00
C159   C     0.14695   0.50535   0.40679   0.00000  Uiso   1.00
C160   C     0.18702   0.49604   0.09325   0.00000  Uiso   1.00
C161   C     0.13026   0.49654   0.45214   0.00000  Uiso   1.00
C162   C     0.15242   0.40019   0.24812   0.00000  Uiso   1.00
C163   C     0.20168   0.50992   0.04899   0.00000  Uiso   1.00
C164   C     0.06687   0.47077   0.47169   0.00000  Uiso   1.00
C165   C     0.26389   0.53867   0.03011   0.00000  Uiso   1.00
C166   C     0.17505   0.51117   0.47826   0.00000  Uiso   1.00
C167   C     0.15622   0.49686   0.02327   0.00000  Uiso   1.00
C168   C     0.09227   0.47091   0.04118   0.00000  Uiso   1.00
C169   C     0.23773   0.54020   0.46107   0.00000  Uiso   1.00
C170   C     0.04872   0.45843   0.01587   0.00000  Uiso   1.00
C171   C     0.28096   0.55357   0.48657   0.00000  Uiso   1.00
C172   C     0.18432   0.65461   0.25871   0.00000  Uiso   1.00
C173   C     0.14902   0.34540   0.24132   0.00000  Uiso   1.00
C174   C     0.12744   0.49549   0.33331   0.00000  Uiso   1.00
Cl175  Cl    0.01785   0.56261   0.12831   0.00000  Uiso   1.00
Cl176  Cl    0.31265   0.44628   0.37365   0.00000  Uiso   1.00
Cl177  Cl    0.22934   0.35130   0.29603   0.00000  Uiso   1.00
Cl178  Cl    0.10404   0.64872   0.20399   0.00000  Uiso   1.00
Cu179  Cu    0.10737   0.49441   0.24517   0.00000  Uiso   1.00
Cu180  Cu    0.22596   0.50559   0.25484   0.00000  Uiso   1.00
H181   H     0.00017   0.43885   0.03114   0.00000  Uiso   1.00
H182   H     0.33205   0.46193   0.21567   0.00000  Uiso   1.00
H183   H     0.32841   0.57587   0.47194   0.00000  Uiso   1.00
H184   H     0.14143   0.47269   0.10908   0.00000  Uiso   1.00
H185   H     0.19501   0.52279   0.38989   0.00000  Uiso   1.00
H186   H     0.30650   0.43806   0.46229   0.00000  Uiso   1.00
H187   H     0.02299   0.57476   0.04026   0.00000  Uiso   1.00
H188   H     0.07331   0.46027   0.07504   0.00000  Uiso   1.00
H189   H     0.25513   0.55442   0.42810   0.00000  Uiso   1.00
H190   H     0.00128   0.53807   0.28433   0.00000  Uiso   1.00
N191   N     0.31506   0.51401   0.26212   0.00000  Uiso   1.00
N192   N     0.01827   0.48599   0.23788   0.00000  Uiso   1.00
O193   O     0.12815   0.57142   0.24686   0.00000  Uiso   1.00
O194   O     0.20518   0.42858   0.25314   0.00000  Uiso   1.00
O195   O     0.22829   0.58086   0.25503   0.00000  Uiso   1.00
O196   O     0.10504   0.41914   0.24498   0.00000  Uiso   1.00
O197   O     0.08851   0.49263   0.30855   0.00000  Uiso   1.00
O198   O     0.24482   0.50737   0.19146   0.00000  Uiso   1.00
O199   O     0.18866   0.50207   0.31671   0.00000  Uiso   1.00
O200   O     0.14468   0.49793   0.18329   0.00000  Uiso   1.00
C201   C     0.51424   0.59981   0.25190   0.00000  Uiso   1.00
C202   C     0.53923   0.50484   0.16675   0.00000  Uiso   1.00
C203   C     0.43620   0.48989   0.38134   0.00000  Uiso   1.00
C204   C     0.56376   0.51265   0.11901   0.00000  Uiso   1.00
C205   C     0.35524   0.45703   0.44685   0.00000  Uiso   1.00
C206   C     0.64201   0.55297   0.05507   0.00000  Uiso   1.00
C207   C     0.37243   0.46664   0.40202   0.00000  Uiso   1.00
C208   C     0.62585   0.54044   0.09929   0.00000  Uiso   1.00
C209   C     0.48028   0.50535   0.40679   0.00000  Uiso   1.00
C210   C     0.52036   0.49604   0.09325   0.00000  Uiso   1.00
C211   C     0.46359   0.49654   0.45214   0.00000  Uiso   1.00
C212   C     0.48575   0.40019   0.24812   0.00000  Uiso   1.00
C213   C     0.53501   0.50992   0.04899   0.00000  Uiso   1.00
C214   C     0.40020   0.47077   0.47169   0.00000  Uiso   1.00
C215   C     0.59722   0.53867   0.03011   0.00000  Uiso   1.00
C216   C     0.50839   0.51117   0.47826   0.00000  Uiso   1.00
C217   C     0.48955   0.49686   0.02327   0.00000  Uiso   1.00
C218   C     0.42560   0.47091   0.04118   0.00000  Uiso   1.00
C219   C     0.57106   0.54020   0.46107   0.00000  Uiso   1.00
C220   C     0.38205   0.45843   0.01587   0.00000  Uiso   1.00
C221   C     0.61429   0.55357   0.48657   0.00000  Uiso   1.00
C222   C     0.51765   0.65461   0.25871   0.00000  Uiso   1.00
C223   C     0.48235   0.34540   0.24132   0.00000  Uiso   1.00
C224   C     0.46077   0.49549   0.33331   0.00000  Uiso   1.00
Cl225  Cl    0.35118   0.56261   0.12831   0.00000  Uiso   1.00
Cl226  Cl    0.64599   0.44628   0.37365   0.00000  Uiso   1.00
Cl227  Cl    0.56267   0.35130   0.29603   0.00000  Uiso   1.00
Cl228  Cl    0.43737   0.64872   0.20399   0.00000  Uiso   1.00
Cu229  Cu    0.44071   0.49441   0.24517   0.00000  Uiso   1.00
Cu230  Cu    0.55929   0.50559   0.25484   0.00000  Uiso   1.00
H231   H     0.33350   0.43885   0.03114   0.00000  Uiso   1.00
H232   H     0.66538   0.46193   0.21567   0.00000  Uiso   1.00
H233   H     0.66174   0.57587   0.47194   0.00000  Uiso   1.00
H234   H     0.47476   0.47269   0.10908   0.00000  Uiso   1.00
H235   H     0.52834   0.52279   0.38989   0.00000  Uiso   1.00
H236   H     0.63983   0.43806   0.46229   0.00000  Uiso   1.00
H237   H     0.35632   0.57476   0.04026   0.00000  Uiso   1.00
H238   H     0.40664   0.46027   0.07504   0.00000  Uiso   1.00
H239   H     0.58846   0.55442   0.42810   0.00000  Uiso   1.00
H240   H     0.33462   0.53807   0.28433   0.00000  Uiso   1.00
N241   N     0.64839   0.51401   0.26212   0.00000  Uiso   1.00
N242   N     0.35161   0.48599   0.23788   0.00000  Uiso   1.00
O243   O     0.46148   0.57142   0.24686   0.00000  Uiso   1.00
O244   O     0.53852   0.42858   0.25314   0.00000  Uiso   1.00
O245   O     0.56163   0.58086   0.25503   0.00000  Uiso   1.00
O246   O     0.43837   0.41914   0.24498   0.00000  Uiso   1.00
O247   O     0.42185   0.49263   0.30855   0.00000  Uiso   1.00
O248   O     0.57815   0.50737   0.19146   0.00000  Uiso   1.00
O249   O     0.52199   0.50207   0.31671   0.00000  Uiso   1.00
O250   O     0.47801   0.49793   0.18329   0.00000  Uiso   1.00
C251   C     0.84758   0.59981   0.25190   0.00000  Uiso   1.00
C252   C     0.87256   0.50484   0.16675   0.00000  Uiso   1.00
C253   C     0.76953   0.48989   0.38134   0.00000  Uiso   1.00
C254   C     0.89709   0.51265   0.11901   0.00000  Uiso   1.00
C255   C     0.68857   0.45703   0.44685   0.00000  Uiso   1.00
C256   C     0.97534   0.55297   0.05507   0.00000  Uiso   1.00
C257   C     0.70576   0.46664   0.40202   0.00000  Uiso   1.00
C258   C     0.95918   0.54044   0.09929   0.00000  Uiso   1.00
C259   C     0.81362   0.50535   0.40679   0.00000  Uiso   1.00
C260   C     0.85369   0.49604   0.09325   0.00000  Uiso   1.00
C261   C     0.79692   0.49654   0.45214   0.00000  Uiso   1.00
C262   C     0.81909   0.40019   0.24812   0.00000  Uiso   1.00
C263   C     0.86834   0.50992   0.04899   0.00000  Uiso   1.00
C264   C     0.73353   0.47077   0.47169   0.00000  Uiso   1.00
C265   C     0.93056   0.53867   0.03011   0.00000  Uiso   1.00
C266   C     0.84172   0.51117   0.47826   0.00000  Uiso   1.00
C267   C     0.82288   0.49686   0.02327   0.00000  Uiso   1.00
C268   C     0.75894   0.47091   0.04118   0.00000  Uiso   1.00
C269   C     0.90440   0.54020   0.46107   0.00000  Uiso   1.00
C270   C     0.71539   0.45843   0.01587   0.00000  Uiso   1.00
C271   C     0.94763   0.55357   0.48657   0.00000  Uiso   1.00
C272   C     0.85099   0.65461   0.25871   0.00000  Uiso   1.00
C273   C     0.81569   0.34540   0.24132   0.00000  Uiso   1.00
C274   C     0.79410   0.49549   0.33331   0.00000  Uiso   1.00
Cl275  Cl    0.68451   0.56261   0.12831   0.00000  Uiso   1.00
Cl276  Cl    0.97932   0.44628   0.37365   0.00000  Uiso   1.00
Cl277  Cl    0.89600   0.35130   0.29603   0.00000  Uiso   1.00
Cl278  Cl    0.77070   0.64872   0.20399   0.00000  Uiso   1.00
Cu279  Cu    0.77404   0.49441   0.24517   0.00000  Uiso   1.00
Cu280  Cu    0.89263   0.50559   0.25484   0.00000  Uiso   1.00
H281   H     0.66683   0.43885   0.03114   0.00000  Uiso   1.00
H282   H     0.99872   0.46193   0.21567   0.00000  Uiso   1.00
H283   H     0.99507   0.57587   0.47194   0.00000  Uiso   1.00
H284   H     0.80809   0.47269   0.10908   0.00000  Uiso   1.00
H285   H     0.86168   0.52279   0.38989   0.00000  Uiso   1.00
H286   H     0.97316   0.43806   0.46229   0.00000  Uiso   1.00
H287   H     0.68966   0.57476   0.04026   0.00000  Uiso   1.00
H288   H     0.73998   0.46027   0.07504   0.00000  Uiso   1.00
H289   H     0.92180   0.55442   0.42810   0.00000  Uiso   1.00
H290   H     0.66795   0.53807   0.28433   0.00000  Uiso   1.00
N291   N     0.98173   0.51401   0.26212   0.00000  Uiso   1.00
N292   N     0.68494   0.48599   0.23788   0.00000  Uiso   1.00
O293   O     0.79482   0.57142   0.24686   0.00000  Uiso   1.00
O294   O     0.87185   0.42858   0.25314   0.00000  Uiso   1.00
O295   O     0.89496   0.58086   0.25503   0.00000  Uiso   1.00
O296   O     0.77171   0.41914   0.24498   0.00000  Uiso   1.00
O297   O     0.75518   0.49263   0.30855   0.00000  Uiso   1.00
O298   O     0.91149   0.50737   0.19146   0.00000  Uiso   1.00
O299   O     0.85532   0.50207   0.31671   0.00000  Uiso   1.00
O300   O     0.81134   0.49793   0.18329   0.00000  Uiso   1.00
C301   C     0.18091   0.93315   0.25190   0.00000  Uiso   1.00
C302   C     0.20590   0.83817   0.16675   0.00000  Uiso   1.00
C303   C     0.10287   0.82322   0.38134   0.00000  Uiso   1.00
C304   C     0.23042   0.84598   0.11901   0.00000  Uiso   1.00
C305   C     0.02190   0.79037   0.44685   0.00000  Uiso   1.00
C306   C     0.30867   0.88630   0.05507   0.00000  Uiso   1.00
C307   C     0.03910   0.79997   0.40202   0.00000  Uiso   1.00
C308   C     0.29252   0.87378   0.09929   0.00000  Uiso   1.00
C309   C     0.14695   0.83868   0.40679   0.00000  Uiso   1.00
C310   C     0.18702   0.82937   0.09325   0.00000  Uiso   1.00
C311   C     0.13026   0.82987   0.45214   0.00000  Uiso   1.00
C312   C     0.15242   0.73352   0.24812   0.00000  Uiso   1.00
C313   C     0.20168   0.84326   0.04899   0.00000  Uiso   1.00
C314   C     0.06687   0.80411   0.47169   0.00000  Uiso   1.00
C315   C     0.26389   0.87200   0.03011   0.00000  Uiso   1.00
C316   C     0.17505   0.84451   0.47826   0.00000  Uiso   1.00
C317   C     0.15622   0.83019   0.02327   0.00000  Uiso   1.00
C318   C     0.09227   0.80424   0.04118   0.00000  Uiso   1.00
C319   C     0.23773   0.87353   0.46107   0.00000  Uiso   1.00
C320   C     0.04872   0.79177   0.01587   0.00000  Uiso   1.00
C321   C     0.28096   0.88691   0.48657   0.00000  Uiso   1.00
C322   C     0.18432   0.98794   0.25871   0.00000  Uiso   1.00
C323   C     0.14902   0.67873   0.24132   0.00000  Uiso   1.00
C324   C     0.12744   0.82882   0.33331   0.00000  Uiso   1.00
Cl325  Cl    0.01785   0.89595   0.12831   0.00000  Uiso   1.00
Cl326  Cl    0.31265   0.77961   0.37365   0.00000  Uiso   1.00
Cl327  Cl    0.22934   0.68463   0.29603   0.00000  Uiso   1.00
Cl328  Cl    0.10404   0.98206   0.20399   0.00000  Uiso   1.00
Cu329  Cu    0.10737   0.82775   0.24517   0.00000  Uiso   1.00
Cu330  Cu    0.22596   0.83892   0.25484   0.00000  Uiso   1.00
H331   H     0.00017   0.77219   0.03114   0.00000  Uiso   1.00
H332   H     0.33205   0.79527   0.21567   0.00000  Uiso   1.00
H333   H     0.32841   0.90920   0.47194   0.00000  Uiso   1.00
H334   H     0.14143   0.80602   0.10908   0.00000  Uiso   1.00
H335   H     0.19501   0.85612   0.38989   0.00000  Uiso   1.00
H336   H     0.30650   0.77140   0.46229   0.00000  Uiso   1.00
H337   H     0.02299   0.90809   0.04026   0.00000  Uiso   1.00
H338   H     0.07331   0.79360   0.07504   0.00000  Uiso   1.00
H339   H     0.25513   0.88776   0.42810   0.00000  Uiso   1.00
H340   H     0.00128   0.87140   0.28433   0.00000  Uiso   1.00
N341   N     0.31506   0.84735   0.26212   0.00000  Uiso   1.00
N342   N     0.01827   0.81932   0.23788   0.00000  Uiso   1.00
O343   O     0.12815   0.90476   0.24686   0.00000  Uiso   1.00
O344   O     0.20518   0.76191   0.25314   0.00000  Uiso   1.00
O345   O     0.22829   0.91420   0.25503   0.00000  Uiso   1.00
O346   O     0.10504   0.75247   0.24498   0.00000  Uiso   1.00
O347   O     0.08851   0.82597   0.30855   0.00000  Uiso   1.00
O348   O     0.24482   0.84070   0.19146   0.00000  Uiso   1.00
O349   O     0.18866   0.83540   0.31671   0.00000  Uiso   1.00
O350   O     0.14468   0.83126   0.18329   0.00000  Uiso   1.00
C351   C     0.51424   0.93315   0.25190   0.00000  Uiso   1.00
C352   C     0.53923   0.83817   0.16675   0.00000  Uiso   1.00
C353   C     0.43620   0.82322   0.38134   0.00000  Uiso   1.00
C354   C     0.56376   0.84598   0.11901   0.00000  Uiso   1.00
C355   C     0.35524   0.79037   0.44685   0.00000  Uiso   1.00
C356   C     0.64201   0.88630   0.05507   0.00000  Uiso   1.00
C357   C     0.37243   0.79997   0.40202   0.00000  Uiso   1.00
C358   C     0.62585   0.87378   0.09929   0.00000  Uiso   1.00
C359   C     0.48028   0.83868   0.40679   0.00000  Uiso   1.00
C360   C     0.52036   0.82937   0.09325   0.00000  Uiso   1.00
C361   C     0.46359   0.82987   0.45214   0.00000  Uiso   1.00
C362   C     0.48575   0.73352   0.24812   0.00000  Uiso   1.00
C363   C     0.53501   0.84326   0.04899   0.00000  Uiso   1.00
C364   C     0.40020   0.80411   0.47169   0.00000  Uiso   1.00
C365   C     0.59722   0.87200   0.03011   0.00000  Uiso   1.00
C366   C     0.50839   0.84451   0.47826   0.00000  Uiso   1.00
C367   C     0.48955   0.83019   0.02327   0.00000  Uiso   1.00
C368   C     0.42560   0.80424   0.04118   0.00000  Uiso   1.00
C369   C     0.57106   0.87353   0.46107   0.00000  Uiso   1.00
C370   C     0.38205   0.79177   0.01587   0.00000  Uiso   1.00
C371   C     0.61429   0.88691   0.48657   0.00000  Uiso   1.00
C372   C     0.51765   0.98794   0.25871   0.00000  Uiso   1.00
C373   C     0.48235   0.67873   0.24132   0.00000  Uiso   1.00
C374   C     0.46077   0.82882   0.33331   0.00000  Uiso   1.00
Cl375  Cl    0.35118   0.89595   0.12831   0.00000  Uiso   1.00
Cl376  Cl    0.64599   0.77961   0.37365   0.00000  Uiso   1.00
Cl377  Cl    0.56267   0.68463   0.29603   0.00000  Uiso   1.00
Cl378  Cl    0.43737   0.98206   0.20399   0.00000  Uiso   1.00
Cu379  Cu    0.44071   0.82775   0.24517   0.00000  Uiso   1.00
Cu380  Cu    0.55929   0.83892   0.25484   0.00000  Uiso   1.00
H381   H     0.33350   0.77219   0.03114   0.00000  Uiso   1.00
H382   H     0.66538   0.79527   0.21567   0.00000  Uiso   1.00
H383   H     0.66174   0.90920   0.47194   0.00000  Uiso   1.00
H384   H     0.47476   0.80602   0.10908   0.00000  Uiso   1.00
H385   H     0.52834   0.85612   0.38989   0.00000  Uiso   1.00
H386   H     0.63983   0.77140   0.46229   0.00000  Uiso   1.00
H387   H     0.35632   0.90809   0.04026   0.00000  Uiso   1.00
H388   H     0.40664   0.79360   0.07504   0.00000  Uiso   1.00
H389   H     0.58846   0.88776   0.42810   0.00000  Uiso   1.00
H390   H     0.33462   0.87140   0.28433   0.00000  Uiso   1.00
N391   N     0.64839   0.84735   0.26212   0.00000  Uiso   1.00
N392   N     0.35161   0.81932   0.23788   0.00000  Uiso   1.00
O393   O     0.46148   0.90476   0.24686   0.00000  Uiso   1.00
O394   O     0.53852   0.76191   0.25314   0.00000  Uiso   1.00
O395   O     0.56163   0.91420   0.25503   0.00000  Uiso   1.00
O396   O     0.43837   0.75247   0.24498   0.00000  Uiso   1.00
O397   O     0.42185   0.82597   0.30855   0.00000  Uiso   1.00
O398   O     0.57815   0.84070   0.19146   0.00000  Uiso   1.00
O399   O     0.52199   0.83540   0.31671   0.00000  Uiso   1.00
O400   O     0.47801   0.83126   0.18329   0.00000  Uiso   1.00
C401   C     0.84758   0.93315   0.25190   0.00000  Uiso   1.00
C402   C     0.87256   0.83817   0.16675   0.00000  Uiso   1.00
C403   C     0.76953   0.82322   0.38134   0.00000  Uiso   1.00
C404   C     0.89709   0.84598   0.11901   0.00000  Uiso   1.00
C405   C     0.68857   0.79037   0.44685   0.00000  Uiso   1.00
C406   C     0.97534   0.88630   0.05507   0.00000  Uiso   1.00
C407   C     0.70576   0.79997   0.40202   0.00000  Uiso   1.00
C408   C     0.95918   0.87378   0.09929   0.00000  Uiso   1.00
C409   C     0.81362   0.83868   0.40679   0.00000  Uiso   1.00
C410   C     0.85369   0.82937   0.09325   0.00000  Uiso   1.00
C411   C     0.79692   0.82987   0.45214   0.00000  Uiso   1.00
C412   C     0.81909   0.73352   0.24812   0.00000  Uiso   1.00
C413   C     0.86834   0.84326   0.04899   0.00000  Uiso   1.00
C414   C     0.73353   0.80411   0.47169   0.00000  Uiso   1.00
C415   C     0.93056   0.87200   0.03011   0.00000  Uiso   1.00
C416   C     0.84172   0.84451   0.47826   0.00000  Uiso   1.00
C417   C     0.82288   0.83019   0.02327   0.00000  Uiso   1.00
C418   C     0.75894   0.80424   0.04118   0.00000  Uiso   1.00
C419   C     0.90440   0.87353   0.46107   0.00000  Uiso   1.00
C420   C     0.71539   0.79177   0.01587   0.00000  Uiso   1.00
C421   C     0.94763   0.88691   0.48657   0.00000  Uiso   1.00
C422   C     0.85099   0.98794   0.25871   0.00000  Uiso   1.00
C423   C     0.81569   0.67873   0.24132   0.00000  Uiso   1.00
C424   C     0.79410   0.82882   0.33331   0.00000  Uiso   1.00
Cl425  Cl    0.68451   0.89595   0.12831   0.00000  Uiso   1.00
Cl426  Cl    0.97932   0.77961   0.37365   0.00000  Uiso   1.00
Cl427  Cl    0.89600   0.68463   0.29603   0.00000  Uiso   1.00
Cl428  Cl    0.77070   0.98206   0.20399   0.00000  Uiso   1.00
Cu429  Cu    0.77404   0.82775   0.24517   0.00000  Uiso   1.00
Cu430  Cu    0.89263   0.83892   0.25484   0.00000  Uiso   1.00
H431   H     0.66683   0.77219   0.03114   0.00000  Uiso   1.00
H432   H     0.99872   0.79527   0.21567   0.00000  Uiso   1.00
H433   H     0.99507   0.90920   0.47194   0.00000  Uiso   1.00
H434   H     0.80809   0.80602   0.10908   0.00000  Uiso   1.00
H435   H     0.86168   0.85612   0.38989   0.00000  Uiso   1.00
H436   H     0.97316   0.77140   0.46229   0.00000  Uiso   1.00
H437   H     0.68966   0.90809   0.04026   0.00000  Uiso   1.00
H438   H     0.73998   0.79360   0.07504   0.00000  Uiso   1.00
H439   H     0.92180   0.88776   0.42810   0.00000  Uiso   1.00
H440   H     0.66795   0.87140   0.28433   0.00000  Uiso   1.00
N441   N     0.98173   0.84735   0.26212   0.00000  Uiso   1.00
N442   N     0.68494   0.81932   0.23788   0.00000  Uiso   1.00
O443   O     0.79482   0.90476   0.24686   0.00000  Uiso   1.00
O444   O     0.87185   0.76191   0.25314   0.00000  Uiso   1.00
O445   O     0.89496   0.91420   0.25503   0.00000  Uiso   1.00
O446   O     0.77171   0.75247   0.24498   0.00000  Uiso   1.00
O447   O     0.75518   0.82597   0.30855   0.00000  Uiso   1.00
O448   O     0.91149   0.84070   0.19146   0.00000  Uiso   1.00
O449   O     0.85532   0.83540   0.31671   0.00000  Uiso   1.00
O450   O     0.81134   0.83126   0.18329   0.00000  Uiso   1.00
C451   C     0.18091   0.26648   0.75190   0.00000  Uiso   1.00
C452   C     0.20590   0.17150   0.66675   0.00000  Uiso   1.00
C453   C     0.10287   0.15656   0.88134   0.00000  Uiso   1.00
C454   C     0.23042   0.17932   0.61901   0.00000  Uiso   1.00
C455   C     0.02190   0.12370   0.94685   0.00000  Uiso   1.00
C456   C     0.30867   0.21963   0.55507   0.00000  Uiso   1.00
C457   C     0.03910   0.13330   0.90202   0.00000  Uiso   1.00
C458   C     0.29252   0.20711   0.59929   0.00000  Uiso   1.00
C459   C     0.14695   0.17202   0.90679   0.00000  Uiso   1.00
C460   C     0.18702   0.16270   0.59325   0.00000  Uiso   1.00
C461   C     0.13026   0.16321   0.95214   0.00000  Uiso   1.00
C462   C     0.15242   0.06685   0.74812   0.00000  Uiso   1.00
C463   C     0.20168   0.17659   0.54899   0.00000  Uiso   1.00
C464   C     0.06687   0.13744   0.97169   0.00000  Uiso   1.00
C465   C     0.26389   0.20533   0.53011   0.00000  Uiso   1.00
C466   C     0.17505   0.17784   0.97826   0.00000  Uiso   1.00
C467   C     0.15622   0.16353   0.52327   0.00000  Uiso   1.00
C468   C     0.09227   0.13757   0.54118   0.00000  Uiso   1.00
C469   C     0.23773   0.20686   0.96107   0.00000  Uiso   1.00
C470   C     0.04872   0.12510   0.51587   0.00000  Uiso   1.00
C471   C     0.28096   0.22024   0.98657   0.00000  Uiso   1.00
C472   C     0.18432   0.32128   0.75871   0.00000  Uiso   1.00
C473   C     0.14902   0.01206   0.74132   0.00000  Uiso   1.00
C474   C     0.12744   0.16216   0.83331   0.00000  Uiso   1.00
Cl475  Cl    0.01785   0.22928   0.62831   0.00000  Uiso   1.00
Cl476  Cl    0.31265   0.11294   0.87365   0.00000  Uiso   1.00
Cl477  Cl    0.22934   0.01796   0.79603   0.00000  Uiso   1.00
Cl478  Cl    0.10404   0.31539   0.70399   0.00000  Uiso   1.00
Cu479  Cu    0.10737   0.16108   0.74517   0.00000  Uiso   1.00
Cu480  Cu    0.22596   0.17225   0.75484   0.00000  Uiso   1.00
H481   H     0.00017   0.10552   0.53114   0.00000  Uiso   1.00
H482   H     0.33205   0.12860   0.71567   0.00000  Uiso   1.00
H483   H     0.32841   0.24254   0.97194   0.00000  Uiso   1.00
H484   H     0.14143   0.13935   0.60908   0.00000  Uiso   1.00
H485   H     0.19501   0.18946   0.88989   0.00000  Uiso   1.00
H486   H     0.30650   0.10473   0.96229   0.00000  Uiso   1.00
H487   H     0.02299   0.24143   0.54026   0.00000  Uiso   1.00
H488   H     0.07331   0.12693   0.57504   0.00000  Uiso   1.00
H489   H     0.25513   0.22109   0.92810   0.00000  Uiso   1.00
H490   H     0.00128   0.20473   0.78433   0.00000  Uiso   1.00
N491   N     0.31506   0.18068   0.76212   0.00000  Uiso   1.00
N492   N     0.01827   0.15265   0.73788   0.00000  Uiso   1.00
O493   O     0.12815   0.23809   0.74686   0.00000  Uiso   1.00
O494   O     0.20518   0.09524   0.75314   0.00000  Uiso   1.00
O495   O     0.22829   0.24753   0.75503   0.00000  Uiso   1.00
O496   O     0.10504   0.08580   0.74498   0.00000  Uiso   1.00
O497   O     0.08851   0.15930   0.80855   0.00000  Uiso   1.00
O498   O     0.24482   0.17403   0.69146   0.00000  Uiso   1.00
O499   O     0.18866   0.16874   0.81671   0.00000  Uiso   1.00
O500   O     0.14468   0.16460   0.68329   0.00000  Uiso   1.00
C501   C     0.51424   0.26648   0.75190   0.00000  Uiso   1.00
C502   C     0.53923   0.17150   0.66675   0.00000  Uiso   1.00
C503   C     0.43620   0.15656   0.88134   0.00000  Uiso   1.00
C504   C     0.56376   0.17932   0.61901   0.00000  Uiso   1.00
C505   C     0.35524   0.12370   0.94685   0.00000  Uiso   1.00
C506   C     0.64201   0.21963   0.55507   0.00000  Uiso   1.00
C507   C     0.37243   0.13330   0.90202   0.00000  Uiso   1.00
C508   C     0.62585   0.20711   0.59929   0.00000  Uiso   1.00
C509   C     0.48028   0.17202   0.90679   0.00000  Uiso   1.00
C510   C     0.52036   0.16270   0.59325   0.00000  Uiso   1.00
C511   C     0.46359   0.16321   0.95214   0.00000  Uiso   1.00
C512   C     0.48575   0.06685   0.74812   0.00000  Uiso   1.00
C513   C     0.53501   0.17659   0.54899   0.00000  Uiso   1.00
C514   C     0.40020   0.13744   0.97169   0.00000  Uiso   1.00
C515   C     0.59722   0.20533   0.53011   0.00000  Uiso   1.00
C516   C     0.50839   0.17784   0.97826   0.00000  Uiso   1.00
C517   C     0.48955   0.16353   0.52327   0.00000  Uiso   1.00
C518   C     0.42560   0.13757   0.54118   0.00000  Uiso   1.00
C519   C     0.57106   0.20686   0.96107   0.00000  Uiso   1.00
C520   C     0.38205   0.12510   0.51587   0.00000  Uiso   1.00
C521   C     0.61429   0.22024   0.98657   0.00000  Uiso   1.00
C522   C     0.51765   0.32128   0.75871   0.00000  Uiso   1.00
C523   C     0.48235   0.01206   0.74132   0.00000  Uiso   1.00
C524   C     0.46077   0.16216   0.83331   0.00000  Uiso   1.00
Cl525  Cl    0.35118   0.22928   0.62831   0.00000  Uiso   1.00
Cl526  Cl    0.64599   0.11294   0.87365   0.00000  Uiso   1.00
Cl527  Cl    0.56267   0.01796   0.79603   0.00000  Uiso   1.00
Cl528  Cl    0.43737   0.31539   0.70399   0.00000  Uiso   1.00
Cu529  Cu    0.44071   0.16108   0.74517   0.00000  Uiso   1.00
Cu530  Cu    0.55929   0.17225   0.75484   0.00000  Uiso   1.00
H531   H     0.33350   0.10552   0.53114   0.00000  Uiso   1.00
H532   H     0.66538   0.12860   0.71567   0.00000  Uiso   1.00
H533   H     0.66174   0.24254   0.97194   0.00000  Uiso   1.00
H534   H     0.47476   0.13935   0.60908   0.00000  Uiso   1.00
H535   H     0.52834   0.18946   0.88989   0.00000  Uiso   1.00
H536   H     0.63983   0.10473   0.96229   0.00000  Uiso   1.00
H537   H     0.35632   0.24143   0.54026   0.00000  Uiso   1.00
H538   H     0.40664   0.12693   0.57504   0.00000  Uiso   1.00
H539   H     0.58846   0.22109   0.92810   0.00000  Uiso   1.00
H540   H     0.33462   0.20473   0.78433   0.00000  Uiso   1.00
N541   N     0.64839   0.18068   0.76212   0.00000  Uiso   1.00
N542   N     0.35161   0.15265   0.73788   0.00000  Uiso   1.00
O543   O     0.46148   0.23809   0.74686   0.00000  Uiso   1.00
O544   O     0.53852   0.09524   0.75314   0.00000  Uiso   1.00
O545   O     0.56163   0.24753   0.75503   0.00000  Uiso   1.00
O546   O     0.43837   0.08580   0.74498   0.00000  Uiso   1.00
O547   O     0.42185   0.15930   0.80855   0.00000  Uiso   1.00
O548   O     0.57815   0.17403   0.69146   0.00000  Uiso   1.00
O549   O     0.52199   0.16874   0.81671   0.00000  Uiso   1.00
O550   O     0.47801   0.16460   0.68329   0.00000  Uiso   1.00
C551   C     0.84758   0.26648   0.75190   0.00000  Uiso   1.00
C552   C     0.87256   0.17150   0.66675   0.00000  Uiso   1.00
C553   C     0.76953   0.15656   0.88134   0.00000  Uiso   1.00
C554   C     0.89709   0.17932   0.61901   0.00000  Uiso   1.00
C555   C     0.68857   0.12370   0.94685   0.00000  Uiso   1.00
C556   C     0.97534   0.21963   0.55507   0.00000  Uiso   1.00
C557   C     0.70576   0.13330   0.90202   0.00000  Uiso   1.00
C558   C     0.95918   0.20711   0.59929   0.00000  Uiso   1.00
C559   C     0.81362   0.17202   0.90679   0.00000  Uiso   1.00
C560   C     0.85369   0.16270   0.59325   0.00000  Uiso   1.00
C561   C     0.79692   0.16321   0.95214   0.00000  Uiso   1.00
C562   C     0.81909   0.06685   0.74812   0.00000  Uiso   1.00
C563   C     0.86834   0.17659   0.54899   0.00000  Uiso   1.00
C564   C     0.73353   0.13744   0.97169   0.00000  Uiso   1.00
C565   C     0.93056   0.20533   0.53011   0.00000  Uiso   1.00
C566   C     0.84172   0.17784   0.97826   0.00000  Uiso   1.00
C567   C     0.82288   0.16353   0.52327   0.00000  Uiso   1.00
C568   C     0.75894   0.13757   0.54118   0.00000  Uiso   1.00
C569   C     0.90440   0.20686   0.96107   0.00000  Uiso   1.00
C570   C     0.71539   0.12510   0.51587   0.00000  Uiso   1.00
C571   C     0.94763   0.22024   0.98657   0.00000  Uiso   1.00
C572   C     0.85099   0.32128   0.75871   0.00000  Uiso   1.00
C573   C     0.81569   0.01206   0.74132   0.00000  Uiso   1.00
C574   C     0.79410   0.16216   0.83331   0.00000  Uiso   1.00
Cl575  Cl    0.68451   0.22928   0.62831   0.00000  Uiso   1.00
Cl576  Cl    0.97932   0.11294   0.87365   0.00000  Uiso   1.00
Cl577  Cl    0.89600   0.01796   0.79603   0.00000  Uiso   1.00
Cl578  Cl    0.77070   0.31539   0.70399   0.00000  Uiso   1.00
Cu579  Cu    0.77404   0.16108   0.74517   0.00000  Uiso   1.00
Cu580  Cu    0.89263   0.17225   0.75484   0.00000  Uiso   1.00
H581   H     0.66683   0.10552   0.53114   0.00000  Uiso   1.00
H582   H     0.99872   0.12860   0.71567   0.00000  Uiso   1.00
H583   H     0.99507   0.24254   0.97194   0.00000  Uiso   1.00
H584   H     0.80809   0.13935   0.60908   0.00000  Uiso   1.00
H585   H     0.86168   0.18946   0.88989   0.00000  Uiso   1.00
H586   H     0.97316   0.10473   0.96229   0.00000  Uiso   1.00
H587   H     0.68966   0.24143   0.54026   0.00000  Uiso   1.00
H588   H     0.73998   0.12693   0.57504   0.00000  Uiso   1.00
H589   H     0.92180   0.22109   0.92810   0.00000  Uiso   1.00
H590   H     0.66795   0.20473   0.78433   0.00000  Uiso   1.00
N591   N     0.98173   0.18068   0.76212   0.00000  Uiso   1.00
N592   N     0.68494   0.15265   0.73788   0.00000  Uiso   1.00
O593   O     0.79482   0.23809   0.74686   0.00000  Uiso   1.00
O594   O     0.87185   0.09524   0.75314   0.00000  Uiso   1.00
O595   O     0.89496   0.24753   0.75503   0.00000  Uiso   1.00
O596   O     0.77171   0.08580   0.74498   0.00000  Uiso   1.00
O597   O     0.75518   0.15930   0.80855   0.00000  Uiso   1.00
O598   O     0.91149   0.17403   0.69146   0.00000  Uiso   1.00
O599   O     0.85532   0.16874   0.81671   0.00000  Uiso   1.00
O600   O     0.81134   0.16460   0.68329   0.00000  Uiso   1.00
C601   C     0.18091   0.59981   0.75190   0.00000  Uiso   1.00
C602   C     0.20590   0.50484   0.66675   0.00000  Uiso   1.00
C603   C     0.10287   0.48989   0.88134   0.00000  Uiso   1.00
C604   C     0.23042   0.51265   0.61901   0.00000  Uiso   1.00
C605   C     0.02190   0.45703   0.94685   0.00000  Uiso   1.00
C606   C     0.30867   0.55297   0.55507   0.00000  Uiso   1.00
C607   C     0.03910   0.46664   0.90202   0.00000  Uiso   1.00
C608   C     0.29252   0.54044   0.59929   0.00000  Uiso   1.00
C609   C     0.14695   0.50535   0.90679   0.00000  Uiso   1.00
C610   C     0.18702   0.49604   0.59325   0.00000  Uiso   1.00
C611   C     0.13026   0.49654   0.95214   0.00000  Uiso   1.00
C612   C     0.15242   0.40019   0.74812   0.00000  Uiso   1.00
C613   C     0.20168   0.50992   0.54899   0.00000  Uiso   1.00
C614   C     0.06687   0.47077   0.97169   0.00000  Uiso   1.00
C615   C     0.26389   0.53867   0.53011   0.00000  Uiso   1.00
C616   C     0.17505   0.51117   0.97826   0.00000  Uiso   1.00
C617   C     0.15622   0.49686   0.52327   0.00000  Uiso   1.00
C618   C     0.09227   0.47091   0.54118   0.00000  Uiso   1.00
C619   C     0.23773   0.54020   0.96107   0.00000  Uiso   1.00
C620   C     0.04872   0.45843   0.51587   0.00000  Uiso   1.00
C621   C     0.28096   0.55357   0.98657   0.00000  Uiso   1.00
C622   C     0.18432   0.65461   0.75871   0.00000  Uiso   1.00
C623   C     0.14902   0.34540   0.74132   0.00000  Uiso   1.00
C624   C     0.12744   0.49549   0.83331   0.00000  Uiso   1.00
Cl625  Cl    0.01785   0.56261   0.62831   0.00000  Uiso   1.00
Cl626  Cl    0.31265   0.44628   0.87365   0.00000  Uiso   1.00
Cl627  Cl    0.22934   0.35130   0.79603   0.00000  Uiso   1.00
Cl628  Cl    0.10404   0.64872   0.70399   0.00000  Uiso   1.00
Cu629  Cu    0.10737   0.49441   0.74517   0.00000  Uiso   1.00
Cu630  Cu    0.22596   0.50559   0.75484   0.00000  Uiso   1.00
H631   H     0.00017   0.43885   0.53114   0.00000  Uiso   1.00
H632   H     0.33205   0.46193   0.71567   0.00000  Uiso   1.00
H633   H     0.32841   0.57587   0.97194   0.00000  Uiso   1.00
H634   H     0.14143   0.47269   0.60908   0.00000  Uiso   1.00
H635   H     0.19501   0.52279   0.88989   0.00000  Uiso   1.00
H636   H     0.30650   0.43806   0.96229   0.00000  Uiso   1.00
H637   H     0.02299   0.57476   0.54026   0.00000  Uiso   1.00
H638   H     0.07331   0.46027   0.57504   0.00000  Uiso   1.00
H639   H     0.25513   0.55442   0.92810   0.00000  Uiso   1.00
H640   H     0.00128   0.53807   0.78433   0.00000  Uiso   1.00
N641   N     0.31506   0.51401   0.76212   0.00000  Uiso   1.00
N642   N     0.01827   0.48599   0.73788   0.00000  Uiso   1.00
O643   O     0.12815   0.57142   0.74686   0.00000  Uiso   1.00
O644   O     0.20518   0.42858   0.75314   0.00000  Uiso   1.00
O645   O     0.22829   0.58086   0.75503   0.00000  Uiso   1.00
O646   O     0.10504   0.41914   0.74498   0.00000  Uiso   1.00
O647   O     0.08851   0.49263   0.80855   0.00000  Uiso   1.00
O648   O     0.24482   0.50737   0.69146   0.00000  Uiso   1.00
O649   O     0.18866   0.50207   0.81671   0.00000  Uiso   1.00
O650   O     0.14468   0.49793   0.68329   0.00000  Uiso   1.00
C651   C     0.51424   0.59981   0.75190   0.00000  Uiso   1.00
C652   C     0.53923   0.50484   0.66675   0.00000  Uiso   1.00
C653   C     0.43620   0.48989   0.88134   0.00000  Uiso   1.00
C654   C     0.56376   0.51265   0.61901   0.00000  Uiso   1.00
C655   C     0.35524   0.45703   0.94685   0.00000  Uiso   1.00
C656   C     0.64201   0.55297   0.55507   0.00000  Uiso   1.00
C657   C     0.37243   0.46664   0.90202   0.00000  Uiso   1.00
C658   C     0.62585   0.54044   0.59929   0.00000  Uiso   1.00
C659   C     0.48028   0.50535   0.90679   0.00000  Uiso   1.00
C660   C     0.52036   0.49604   0.59325   0.00000  Uiso   1.00
C661   C     0.46359   0.49654   0.95214   0.00000  Uiso   1.00
C662   C     0.48575   0.40019   0.74812   0.00000  Uiso   1.00
C663   C     0.53501   0.50992   0.54899   0.00000  Uiso   1.00
C664   C     0.40020   0.47077   0.97169   0.00000  Uiso   1.00
C665   C     0.59722   0.53867   0.53011   0.00000  Uiso   1.00
C666   C     0.50839   0.51117   0.97826   0.00000  Uiso   1.00
C667   C     0.48955   0.49686   0.52327   0.00000  Uiso   1.00
C668   C     0.42560   0.47091   0.54118   0.00000  Uiso   1.00
C669   C     0.57106   0.54020   0.96107   0.00000  Uiso   1.00
C670   C     0.38205   0.45843   0.51587   0.00000  Uiso   1.00
C671   C     0.61429   0.55357   0.98657   0.00000  Uiso   1.00
C672   C     0.51765   0.65461   0.75871   0.00000  Uiso   1.00
C673   C     0.48235   0.34540   0.74132   0.00000  Uiso   1.00
C674   C     0.46077   0.49549   0.83331   0.00000  Uiso   1.00
Cl675  Cl    0.35118   0.56261   0.62831   0.00000  Uiso   1.00
Cl676  Cl    0.64599   0.44628   0.87365   0.00000  Uiso   1.00
Cl677  Cl    0.56267   0.35130   0.79603   0.00000  Uiso   1.00
Cl678  Cl    0.43737   0.64872   0.70399   0.00000  Uiso   1.00
Cu679  Cu    0.44071   0.49441   0.74517   0.00000  Uiso   1.00
Cu680  Cu    0.55929   0.50559   0.75484   0.00000  Uiso   1.00
H681   H     0.33350   0.43885   0.53114   0.00000  Uiso   1.00
H682   H     0.66538   0.46193   0.71567   0.00000  Uiso   1.00
H683   H     0.66174   0.57587   0.97194   0.00000  Uiso   1.00
H684   H     0.47476   0.47269   0.60908   0.00000  Uiso   1.00
H685   H     0.52834   0.52279   0.88989   0.00000  Uiso   1.00
H686   H     0.63983   0.43806   0.96229   0.00000  Uiso   1.00
H687   H     0.35632   0.57476   0.54026   0.00000  Uiso   1.00
H688   H     0.40664   0.46027   0.57504   0.00000  Uiso   1.00
H689   H     0.58846   0.55442   0.92810   0.00000  Uiso   1.00
H690   H     0.33462   0.53807   0.78433   0.00000  Uiso   1.00
N691   N     0.64839   0.51401   0.76212   0.00000  Uiso   1.00
N692   N     0.35161   0.48599   0.73788   0.00000  Uiso   1.00
O693   O     0.46148   0.57142   0.74686   0.00000  Uiso   1.00
O694   O     0.53852   0.42858   0.75314   0.00000  Uiso   1.00
O695   O     0.56163   0.58086   0.75503   0.00000  Uiso   1.00
O696   O     0.43837   0.41914   0.74498   0.00000  Uiso   1.00
O697   O     0.42185   0.49263   0.80855   0.00000  Uiso   1.00
O698   O     0.57815   0.50737   0.69146   0.00000  Uiso   1.00
O699   O     0.52199   0.50207   0.81671   0.00000  Uiso   1.00
O700   O     0.47801   0.49793   0.68329   0.00000  Uiso   1.00
C701   C     0.84758   0.59981   0.75190   0.00000  Uiso   1.00
C702   C     0.87256   0.50484   0.66675   0.00000  Uiso   1.00
C703   C     0.76953   0.48989   0.88134   0.00000  Uiso   1.00
C704   C     0.89709   0.51265   0.61901   0.00000  Uiso   1.00
C705   C     0.68857   0.45703   0.94685   0.00000  Uiso   1.00
C706   C     0.97534   0.55297   0.55507   0.00000  Uiso   1.00
C707   C     0.70576   0.46664   0.90202   0.00000  Uiso   1.00
C708   C     0.95918   0.54044   0.59929   0.00000  Uiso   1.00
C709   C     0.81362   0.50535   0.90679   0.00000  Uiso   1.00
C710   C     0.85369   0.49604   0.59325   0.00000  Uiso   1.00
C711   C     0.79692   0.49654   0.95214   0.00000  Uiso   1.00
C712   C     0.81909   0.40019   0.74812   0.00000  Uiso   1.00
C713   C     0.86834   0.50992   0.54899   0.00000  Uiso   1.00
C714   C     0.73353   0.47077   0.97169   0.00000  Uiso   1.00
C715   C     0.93056   0.53867   0.53011   0.00000  Uiso   1.00
C716   C     0.84172   0.51117   0.97826   0.00000  Uiso   1.00
C717   C     0.82288   0.49686   0.52327   0.00000  Uiso   1.00
C718   C     0.75894   0.47091   0.54118   0.00000  Uiso   1.00
C719   C     0.90440   0.54020   0.96107   0.00000  Uiso   1.00
C720   C     0.71539   0.45843   0.51587   0.00000  Uiso   1.00
C721   C     0.94763   0.55357   0.98657   0.00000  Uiso   1.00
C722   C     0.85099   0.65461   0.75871   0.00000  Uiso   1.00
C723   C     0.81569   0.34540   0.74132   0.00000  Uiso   1.00
C724   C     0.79410   0.49549   0.83331   0.00000  Uiso   1.00
Cl725  Cl    0.68451   0.56261   0.62831   0.00000  Uiso   1.00
Cl726  Cl    0.97932   0.44628   0.87365   0.00000  Uiso   1.00
Cl727  Cl    0.89600   0.35130   0.79603   0.00000  Uiso   1.00
Cl728  Cl    0.77070   0.64872   0.70399   0.00000  Uiso   1.00
Cu729  Cu    0.77404   0.49441   0.74517   0.00000  Uiso   1.00
Cu730  Cu    0.89263   0.50559   0.75484   0.00000  Uiso   1.00
H731   H     0.66683   0.43885   0.53114   0.00000  Uiso   1.00
H732   H     0.99872   0.46193   0.71567   0.00000  Uiso   1.00
H733   H     0.99507   0.57587   0.97194   0.00000  Uiso   1.00
H734   H     0.80809   0.47269   0.60908   0.00000  Uiso   1.00
H735   H     0.86168   0.52279   0.88989   0.00000  Uiso   1.00
H736   H     0.97316   0.43806   0.96229   0.00000  Uiso   1.00
H737   H     0.68966   0.57476   0.54026   0.00000  Uiso   1.00
H738   H     0.73998   0.46027   0.57504   0.00000  Uiso   1.00
H739   H     0.92180   0.55442   0.92810   0.00000  Uiso   1.00
H740   H     0.66795   0.53807   0.78433   0.00000  Uiso   1.00
N741   N     0.98173   0.51401   0.76212   0.00000  Uiso   1.00
N742   N     0.68494   0.48599   0.73788   0.00000  Uiso   1.00
O743   O     0.79482   0.57142   0.74686   0.00000  Uiso   1.00
O744   O     0.87185   0.42858   0.75314   0.00000  Uiso   1.00
O745   O     0.89496   0.58086   0.75503   0.00000  Uiso   1.00
O746   O     0.77171   0.41914   0.74498   0.00000  Uiso   1.00
O747   O     0.75518   0.49263   0.80855   0.00000  Uiso   1.00
O748   O     0.91149   0.50737   0.69146   0.00000  Uiso   1.00
O749   O     0.85532   0.50207   0.81671   0.00000  Uiso   1.00
O750   O     0.81134   0.49793   0.68329   0.00000  Uiso   1.00
C751   C     0.18091   0.93315   0.75190   0.00000  Uiso   1.00
C752   C     0.20590   0.83817   0.66675   0.00000  Uiso   1.00
C753   C     0.10287   0.82322   0.88134   0.00000  Uiso   1.00
C754   C     0.23042   0.84598   0.61901   0.00000  Uiso   1.00
C755   C     0.02190   0.79037   0.94685   0.00000  Uiso   1.00
C756   C     0.30867   0.88630   0.55507   0.00000  Uiso   1.00
C757   C     0.03910   0.79997   0.90202   0.00000  Uiso   1.00
C758   C     0.29252   0.87378   0.59929   0.00000  Uiso   1.00
C759   C     0.14695   0.83868   0.90679   0.00000  Uiso   1.00
C760   C     0.18702   0.82937   0.59325   0.00000  Uiso   1.00
C761   C     0.13026   0.82987   0.95214   0.00000  Uiso   1.00
C762   C     0.15242   0.73352   0.74812   0.00000  Uiso   1.00
C763   C     0.20168   0.84326   0.54899   0.00000  Uiso   1.00
C764   C     0.06687   0.80411   0.97169   0.00000  Uiso   1.00
C765   C     0.26389   0.87200   0.53011   0.00000  Uiso   1.00
C766   C     0.17505   0.84451   0.97826   0.00000  Uiso   1.00
C767   C     0.15622   0.83019   0.52327   0.00000  Uiso   1.00
C768   C     0.09227   0.80424   0.54118   0.00000  Uiso   1.00
C769   C     0.23773   0.87353   0.96107   0.00000  Uiso   1.00
C770   C     0.04872   0.79177   0.51587   0.00000  Uiso   1.00
C771   C     0.28096   0.88691   0.98657   0.00000  Uiso   1.00
C772   C     0.18432   0.98794   0.75871   0.00000  Uiso   1.00
C773   C     0.14902   0.67873   0.74132   0.00000  Uiso   1.00
C774   C     0.12744   0.82882   0.83331   0.00000  Uiso   1.00
Cl775  Cl    0.01785   0.89595   0.62831   0.00000  Uiso   1.00
Cl776  Cl    0.31265   0.77961   0.87365   0.00000  Uiso   1.00
Cl777  Cl    0.22934   0.68463   0.79603   0.00000  Uiso   1.00
Cl778  Cl    0.10404   0.98206   0.70399   0.00000  Uiso   1.00
Cu779  Cu    0.10737   0.82775   0.74517   0.00000  Uiso   1.00
Cu780  Cu    0.22596   0.83892   0.75484   0.00000  Uiso   1.00
H781   H     0.00017   0.77219   0.53114   0.00000  Uiso   1.00
H782   H     0.33205   0.79527   0.71567   0.00000  Uiso   1.00
H783   H     0.32841   0.90920   0.97194   0.00000  Uiso   1.00
H784   H     0.14143   0.80602   0.60908   0.00000  Uiso   1.00
H785   H     0.19501   0.85612   0.88989   0.00000  Uiso   1.00
H786   H     0.30650   0.77140   0.96229   0.00000  Uiso   1.00
H787   H     0.02299   0.90809   0.54026   0.00000  Uiso   1.00
H788   H     0.07331   0.79360   0.57504   0.00000  Uiso   1.00
H789   H     0.25513   0.88776   0.92810   0.00000  Uiso   1.00
H790   H     0.00128   0.87140   0.78433   0.00000  Uiso   1.00
N791   N     0.31506   0.84735   0.76212   0.00000  Uiso   1.00
N792   N     0.01827   0.81932   0.73788   0.00000  Uiso   1.00
O793   O     0.12815   0.90476   0.74686   0.00000  Uiso   1.00
O794   O     0.20518   0.76191   0.75314   0.00000  Uiso   1.00
O795   O     0.22829   0.91420   0.75503   0.00000  Uiso   1.00
O796   O     0.10504   0.75247   0.74498   0.00000  Uiso   1.00
O797   O     0.08851   0.82597   0.80855   0.00000  Uiso   1.00
O798   O     0.24482   0.84070   0.69146   0.00000  Uiso   1.00
O799   O     0.18866   0.83540   0.81671   0.00000  Uiso   1.00
O800   O     0.14468   0.83126   0.68329   0.00000  Uiso   1.00
C801   C     0.51424   0.93315   0.75190   0.00000  Uiso   1.00
C802   C     0.53923   0.83817   0.66675   0.00000  Uiso   1.00
C803   C     0.43620   0.82322   0.88134   0.00000  Uiso   1.00
C804   C     0.56376   0.84598   0.61901   0.00000  Uiso   1.00
C805   C     0.35524   0.79037   0.94685   0.00000  Uiso   1.00
C806   C     0.64201   0.88630   0.55507   0.00000  Uiso   1.00
C807   C     0.37243   0.79997   0.90202   0.00000  Uiso   1.00
C808   C     0.62585   0.87378   0.59929   0.00000  Uiso   1.00
C809   C     0.48028   0.83868   0.90679   0.00000  Uiso   1.00
C810   C     0.52036   0.82937   0.59325   0.00000  Uiso   1.00
C811   C     0.46359   0.82987   0.95214   0.00000  Uiso   1.00
C812   C     0.48575   0.73352   0.74812   0.00000  Uiso   1.00
C813   C     0.53501   0.84326   0.54899   0.00000  Uiso   1.00
C814   C     0.40020   0.80411   0.97169   0.00000  Uiso   1.00
C815   C     0.59722   0.87200   0.53011   0.00000  Uiso   1.00
C816   C     0.50839   0.84451   0.97826   0.00000  Uiso   1.00
C817   C     0.48955   0.83019   0.52327   0.00000  Uiso   1.00
C818   C     0.42560   0.80424   0.54118   0.00000  Uiso   1.00
C819   C     0.57106   0.87353   0.96107   0.00000  Uiso   1.00
C820   C     0.38205   0.79177   0.51587   0.00000  Uiso   1.00
C821   C     0.61429   0.88691   0.98657   0.00000  Uiso   1.00
C822   C     0.51765   0.98794   0.75871   0.00000  Uiso   1.00
C823   C     0.48235   0.67873   0.74132   0.00000  Uiso   1.00
C824   C     0.46077   0.82882   0.83331   0.00000  Uiso   1.00
Cl825  Cl    0.35118   0.89595   0.62831   0.00000  Uiso   1.00
Cl826  Cl    0.64599   0.77961   0.87365   0.00000  Uiso   1.00
Cl827  Cl    0.56267   0.68463   0.79603   0.00000  Uiso   1.00
Cl828  Cl    0.43737   0.98206   0.70399   0.00000  Uiso   1.00
Cu829  Cu    0.44071   0.82775   0.74517   0.00000  Uiso   1.00
Cu830  Cu    0.55929   0.83892   0.75484   0.00000  Uiso   1.00
H831   H     0.33350   0.77219   0.53114   0.00000  Uiso   1.00
H832   H     0.66538   0.79527   0.71567   0.00000  Uiso   1.00
H833   H     0.66174   0.90920   0.97194   0.00000  Uiso   1.00
H834   H     0.47476   0.80602   0.60908   0.00000  Uiso   1.00
H835   H     0.52834   0.85612   0.88989   0.00000  Uiso   1.00
H836   H     0.63983   0.77140   0.96229   0.00000  Uiso   1.00
H837   H     0.35632   0.90809   0.54026   0.00000  Uiso   1.00
H838   H     0.40664   0.79360   0.57504   0.00000  Uiso   1.00
H839   H     0.58846   0.88776   0.92810   0.00000  Uiso   1.00
H840   H     0.33462   0.87140   0.78433   0.00000  Uiso   1.00
N841   N     0.64839   0.84735   0.76212   0.00000  Uiso   1.00
N842   N     0.35161   0.81932   0.73788   0.00000  Uiso   1.00
O843   O     0.46148   0.90476   0.74686   0.00000  Uiso   1.00
O844   O     0.53852   0.76191   0.75314   0.00000  Uiso   1.00
O845   O     0.56163   0.91420   0.75503   0.00000  Uiso   1.00
O846   O     0.43837   0.75247   0.74498   0.00000  Uiso   1.00
O847   O     0.42185   0.82597   0.80855   0.00000  Uiso   1.00
O848   O     0.57815   0.84070   0.69146   0.00000  Uiso   1.00
O849   O     0.52199   0.83540   0.81671   0.00000  Uiso   1.00
O850   O     0.47801   0.83126   0.68329   0.00000  Uiso   1.00
C851   C     0.84758   0.93315   0.75190   0.00000  Uiso   1.00
C852   C     0.87256   0.83817   0.66675   0.00000  Uiso   1.00
C853   C     0.76953   0.82322   0.88134   0.00000  Uiso   1.00
C854   C     0.89709   0.84598   0.61901   0.00000  Uiso   1.00
C855   C     0.68857   0.79037   0.94685   0.00000  Uiso   1.00
C856   C     0.97534   0.88630   0.55507   0.00000  Uiso   1.00
C857   C     0.70576   0.79997   0.90202   0.00000  Uiso   1.00
C858   C     0.95918   0.87378   0.59929   0.00000  Uiso   1.00
C859   C     0.81362   0.83868   0.90679   0.00000  Uiso   1.00
C860   C     0.85369   0.82937   0.59325   0.00000  Uiso   1.00
C861   C     0.79692   0.82987   0.95214   0.00000  Uiso   1.00
C862   C     0.81909   0.73352   0.74812   0.00000  Uiso   1.00
C863   C     0.86834   0.84326   0.54899   0.00000  Uiso   1.00
C864   C     0.73353   0.80411   0.97169   0.00000  Uiso   1.00
C865   C     0.93056   0.87200   0.53011   0.00000  Uiso   1.00
C866   C     0.84172   0.84451   0.97826   0.00000  Uiso   1.00
C867   C     0.82288   0.83019   0.52327   0.00000  Uiso   1.00
C868   C     0.75894   0.80424   0.54118   0.00000  Uiso   1.00
C869   C     0.90440   0.87353   0.96107   0.00000  Uiso   1.00
C870   C     0.71539   0.79177   0.51587   0.00000  Uiso   1.00
C871   C     0.94763   0.88691   0.98657   0.00000  Uiso   1.00
C872   C     0.85099   0.98794   0.75871   0.00000  Uiso   1.00
C873   C     0.81569   0.67873   0.74132   0.00000  Uiso   1.00
C874   C     0.79410   0.82882   0.83331   0.00000  Uiso   1.00
Cl875  Cl    0.68451   0.89595   0.62831   0.00000  Uiso   1.00
Cl876  Cl    0.97932   0.77961   0.87365   0.00000  Uiso   1.00
Cl877  Cl    0.89600   0.68463   0.79603   0.00000  Uiso   1.00
Cl878  Cl    0.77070   0.98206   0.70399   0.00000  Uiso   1.00
Cu879  Cu    0.77404   0.82775   0.74517   0.00000  Uiso   1.00
Cu880  Cu    0.89263   0.83892   0.75484   0.00000  Uiso   1.00
H881   H     0.66683   0.77219   0.53114   0.00000  Uiso   1.00
H882   H     0.99872   0.79527   0.71567   0.00000  Uiso   1.00
H883   H     0.99507   0.90920   0.97194   0.00000  Uiso   1.00
H884   H     0.80809   0.80602   0.60908   0.00000  Uiso   1.00
H885   H     0.86168   0.85612   0.88989   0.00000  Uiso   1.00
H886   H     0.97316   0.77140   0.96229   0.00000  Uiso   1.00
H887   H     0.68966   0.90809   0.54026   0.00000  Uiso   1.00
H888   H     0.73998   0.79360   0.57504   0.00000  Uiso   1.00
H889   H     0.92180   0.88776   0.92810   0.00000  Uiso   1.00
H890   H     0.66795   0.87140   0.78433   0.00000  Uiso   1.00
N891   N     0.98173   0.84735   0.76212   0.00000  Uiso   1.00
N892   N     0.68494   0.81932   0.73788   0.00000  Uiso   1.00
O893   O     0.79482   0.90476   0.74686   0.00000  Uiso   1.00
O894   O     0.87185   0.76191   0.75314   0.00000  Uiso   1.00
O895   O     0.89496   0.91420   0.75503   0.00000  Uiso   1.00
O896   O     0.77171   0.75247   0.74498   0.00000  Uiso   1.00
O897   O     0.75518   0.82597   0.80855   0.00000  Uiso   1.00
O898   O     0.91149   0.84070   0.69146   0.00000  Uiso   1.00
O899   O     0.85532   0.83540   0.81671   0.00000  Uiso   1.00
O900   O     0.81134   0.83126   0.68329   0.00000  Uiso   1.00
loop_
_geom_bond_atom_site_label_1
_geom_bond_atom_site_label_2
_geom_bond_distance
_geom_bond_site_symmetry_2
_ccdc_geom_bond_type
C1     O45     1.288   .     A
C1     C22     1.427   .     S
C1     O43     1.285   .     A
C2     C4      1.477   .     S
C2     O50     1.298   .     A
C2     O48     1.300   .     A
C3     C9      1.404   .     A
C3     C24     1.479   .     S
C3     C7      1.412   .     A
C4     C8      1.411   .     A
C4     C10     1.402   .     A
C5     C7      1.394   .     A
C5     C14     1.402   .     A
C5     H136    1.085   1_455 S
C6     C8      1.394   .     A
C6     C15     1.402   .     A
C6     H87     1.085   .     S
C7     Cl126   1.763   1_455 S
C8     Cl75    1.762   .     S
C9     C11     1.407   .     A
C9     H35     1.074   .     S
C10    C13     1.407   .     A
C10    H34     1.074   .     S
C11    C14     1.415   .     A
C11    C16     1.430   .     A
C12    C23     1.426   .     S
C12    O46     1.288   .     A
C12    O44     1.285   .     A
C13    C17     1.430   .     A
C13    C15     1.416   .     A
C14    C470    1.390   .     S
C15    C471    1.390   1_554 S
C16    C19     1.416   .     A
C16    C467    1.427   .     S
C17    C18     1.416   .     A
C17    C466    1.427   1_554 S
C18    C20     1.386   .     A
C18    H38     1.075   .     S
C19    H39     1.075   .     S
C19    C21     1.386   .     A
C20    H31     1.085   .     S
C20    C464    1.390   1_554 S
C21    H33     1.085   .     S
C21    C465    1.390   .     S
C22    C173    1.348   .     S
C22    Cl177   1.778   .     S
C23    C322    1.348   1_545 S
C23    Cl328   1.778   1_545 S
C24    O49     1.299   .     A
C24    O47     1.300   .     A
Cl25   C108    1.762   1_455 S
Cl26   C57     1.763   .     S
Cl27   C322    1.778   1_545 S
Cl28   C173    1.778   .     S
Cu29   Cu30    2.683   .     S
Cu29   N42     2.016   .     S
Cu29   O46     1.964   .     S
Cu29   O43     1.971   .     S
Cu29   O47     1.940   .     S
Cu29   O50     1.914   .     S
Cu30   N41     2.016   .     S
Cu30   O45     1.964   .     S
Cu30   O44     1.971   .     S
Cu30   O48     1.940   .     S
Cu30   O49     1.914   .     S
H32    N92     1.029   .     S
H36    C55     1.085   .     S
H37    C106    1.085   1_455 S
H40    N141    1.029   1_455 S
N41    H90     1.029   .     S
N41    N92     1.281   .     S
N42    H132    1.029   1_455 S
N42    N141    1.281   1_455 S
C51    O95     1.288   .     A
C51    C72     1.427   .     S
C51    O93     1.285   .     A
C52    C54     1.477   .     S
C52    O100    1.298   .     A
C52    O98     1.300   .     A
C53    C59     1.404   .     A
C53    C74     1.479   .     S
C53    C57     1.412   .     A
C54    C58     1.411   .     A
C54    C60     1.402   .     A
C55    C57     1.394   .     A
C55    C64     1.402   .     A
C56    C58     1.394   .     A
C56    C65     1.402   .     A
C56    H137    1.085   .     S
C58    Cl125   1.762   .     S
C59    C61     1.407   .     A
C59    H85     1.074   .     S
C60    C63     1.407   .     A
C60    H84     1.074   .     S
C61    C64     1.415   .     A
C61    C66     1.430   .     A
C62    C73     1.426   .     S
C62    O96     1.288   .     A
C62    O94     1.285   .     A
C63    C67     1.430   .     A
C63    C65     1.416   .     A
C64    C520    1.390   .     S
C65    C521    1.390   1_554 S
C66    C69     1.416   .     A
C66    C517    1.427   .     S
C67    C68     1.416   .     A
C67    C516    1.427   1_554 S
C68    C70     1.386   .     A
C68    H88     1.075   .     S
C69    H89     1.075   .     S
C69    C71     1.386   .     A
C70    H81     1.085   .     S
C70    C514    1.390   1_554 S
C71    H83     1.085   .     S
C71    C515    1.390   .     S
C72    C223    1.348   .     S
C72    Cl227   1.778   .     S
C73    C372    1.348   1_545 S
C73    Cl378   1.778   1_545 S
C74    O99     1.299   .     A
C74    O97     1.300   .     A
Cl76   C107    1.763   .     S
Cl77   C372    1.778   1_545 S
Cl78   C223    1.778   .     S
Cu79   Cu80    2.683   .     S
Cu79   N92     2.016   .     S
Cu79   O96     1.964   .     S
Cu79   O93     1.971   .     S
Cu79   O97     1.940   .     S
Cu79   O100    1.914   .     S
Cu80   N91     2.016   .     S
Cu80   O95     1.964   .     S
Cu80   O94     1.971   .     S
Cu80   O98     1.940   .     S
Cu80   O99     1.914   .     S
H82    N142    1.029   .     S
H86    C105    1.085   .     S
N91    H140    1.029   .     S
N91    N142    1.281   .     S
C101   O145    1.288   .     A
C101   C122    1.427   .     S
C101   O143    1.285   .     A
C102   C104    1.477   .     S
C102   O150    1.298   .     A
C102   O148    1.300   .     A
C103   C109    1.404   .     A
C103   C124    1.479   .     S
C103   C107    1.412   .     A
C104   C108    1.411   .     A
C104   C110    1.402   .     A
C105   C107    1.394   .     A
C105   C114    1.402   .     A
C106   C108    1.394   .     A
C106   C115    1.402   .     A
C106   H37     1.085   1_655 S
C108   Cl25    1.762   1_655 S
C109   C111    1.407   .     A
C109   H135    1.074   .     S
C110   C113    1.407   .     A
C110   H134    1.074   .     S
C111   C114    1.415   .     A
C111   C116    1.430   .     A
C112   C123    1.426   .     S
C112   O146    1.288   .     A
C112   O144    1.285   .     A
C113   C117    1.430   .     A
C113   C115    1.416   .     A
C114   C570    1.390   .     S
C115   C571    1.390   1_554 S
C116   C119    1.416   .     A
C116   C567    1.427   .     S
C117   C118    1.416   .     A
C117   C566    1.427   1_554 S
C118   C120    1.386   .     A
C118   H138    1.075   .     S
C119   H139    1.075   .     S
C119   C121    1.386   .     A
C120   H131    1.085   .     S
C120   C564    1.390   1_554 S
C121   H133    1.085   .     S
C121   C565    1.390   .     S
C122   C273    1.348   .     S
C122   Cl277   1.778   .     S
C123   C422    1.348   1_545 S
C123   Cl428   1.778   1_545 S
C124   O149    1.299   .     A
C124   O147    1.300   .     A
Cl126  C7      1.763   1_655 S
Cl127  C422    1.778   1_545 S
Cl128  C273    1.778   .     S
Cu129  Cu130   2.683   .     S
Cu129  N142    2.016   .     S
Cu129  O146    1.964   .     S
Cu129  O143    1.971   .     S
Cu129  O147    1.940   .     S
Cu129  O150    1.914   .     S
Cu130  N141    2.016   .     S
Cu130  O145    1.964   .     S
Cu130  O144    1.971   .     S
Cu130  O148    1.940   .     S
Cu130  O149    1.914   .     S
H132   N42     1.029   1_655 S
H136   C5      1.085   1_655 S
N141   H40     1.029   1_655 S
N141   N42     1.281   1_655 S
C151   O195    1.288   .     A
C151   C172    1.427   .     S
C151   O193    1.285   .     A
C152   C154    1.477   .     S
C152   O200    1.298   .     A
C152   O198    1.300   .     A
C153   C159    1.404   .     A
C153   C174    1.479   .     S
C153   C157    1.412   .     A
C154   C158    1.411   .     A
C154   C160    1.402   .     A
C155   C157    1.394   .     A
C155   C164    1.402   .     A
C155   H286    1.085   1_455 S
C156   C158    1.394   .     A
C156   C165    1.402   .     A
C156   H237    1.085   .     S
C157   Cl276   1.763   1_455 S
C158   Cl225   1.762   .     S
C159   C161    1.407   .     A
C159   H185    1.074   .     S
C160   C163    1.407   .     A
C160   H184    1.074   .     S
C161   C164    1.415   .     A
C161   C166    1.430   .     A
C162   C173    1.426   .     S
C162   O196    1.288   .     A
C162   O194    1.285   .     A
C163   C167    1.430   .     A
C163   C165    1.416   .     A
C164   C620    1.390   .     S
C165   C621    1.390   1_554 S
C166   C169    1.416   .     A
C166   C617    1.427   .     S
C167   C168    1.416   .     A
C167   C616    1.427   1_554 S
C168   C170    1.386   .     A
C168   H188    1.075   .     S
C169   H189    1.075   .     S
C169   C171    1.386   .     A
C170   H181    1.085   .     S
C170   C614    1.390   1_554 S
C171   H183    1.085   .     S
C171   C615    1.390   .     S
C172   C323    1.348   .     S
C172   Cl327   1.778   .     S
C174   O199    1.299   .     A
C174   O197    1.300   .     A
Cl175  C258    1.762   1_455 S
Cl176  C207    1.763   .     S
Cl178  C323    1.778   .     S
Cu179  Cu180   2.683   .     S
Cu179  N192    2.016   .     S
Cu179  O196    1.964   .     S
Cu179  O193    1.971   .     S
Cu179  O197    1.940   .     S
Cu179  O200    1.914   .     S
Cu180  N191    2.016   .     S
Cu180  O195    1.964   .     S
Cu180  O194    1.971   .     S
Cu180  O198    1.940   .     S
Cu180  O199    1.914   .     S
H182   N242    1.029   .     S
H186   C205    1.085   .     S
H187   C256    1.085   1_455 S
H190   N291    1.029   1_455 S
N191   H240    1.029   .     S
N191   N242    1.281   .     S
N192   H282    1.029   1_455 S
N192   N291    1.281   1_455 S
C201   O245    1.288   .     A
C201   C222    1.427   .     S
C201   O243    1.285   .     A
C202   C204    1.477   .     S
C202   O250    1.298   .     A
C202   O248    1.300   .     A
C203   C209    1.404   .     A
C203   C224    1.479   .     S
C203   C207    1.412   .     A
C204   C208    1.411   .     A
C204   C210    1.402   .     A
C205   C207    1.394   .     A
C205   C214    1.402   .     A
C206   C208    1.394   .     A
C206   C215    1.402   .     A
C206   H287    1.085   .     S
C208   Cl275   1.762   .     S
C209   C211    1.407   .     A
C209   H235    1.074   .     S
C210   C213    1.407   .     A
C210   H234    1.074   .     S
C211   C214    1.415   .     A
C211   C216    1.430   .     A
C212   C223    1.426   .     S
C212   O246    1.288   .     A
C212   O244    1.285   .     A
C213   C217    1.430   .     A
C213   C215    1.416   .     A
C214   C670    1.390   .     S
C215   C671    1.390   1_554 S
C216   C219    1.416   .     A
C216   C667    1.427   .     S
C217   C218    1.416   .     A
C217   C666    1.427   1_554 S
C218   C220    1.386   .     A
C218   H238    1.075   .     S
C219   H239    1.075   .     S
C219   C221    1.386   .     A
C220   H231    1.085   .     S
C220   C664    1.390   1_554 S
C221   H233    1.085   .     S
C221   C665    1.390   .     S
C222   C373    1.348   .     S
C222   Cl377   1.778   .     S
C224   O249    1.299   .     A
C224   O247    1.300   .     A
Cl226  C257    1.763   .     S
Cl228  C373    1.778   .     S
Cu229  Cu230   2.683   .     S
Cu229  N242    2.016   .     S
Cu229  O246    1.964   .     S
Cu229  O243    1.971   .     S
Cu229  O247    1.940   .     S
Cu229  O250    1.914   .     S
Cu230  N241    2.016   .     S
Cu230  O245    1.964   .     S
Cu230  O244    1.971   .     S
Cu230  O248    1.940   .     S
Cu230  O249    1.914   .     S
H232   N292    1.029   .     S
H236   C255    1.085   .     S
N241   H290    1.029   .     S
N241   N292    1.281   .     S
C251   O295    1.288   .     A
C251   C272    1.427   .     S
C251   O293    1.285   .     A
C252   C254    1.477   .     S
C252   O300    1.298   .     A
C252   O298    1.300   .     A
C253   C259    1.404   .     A
C253   C274    1.479   .     S
C253   C257    1.412   .     A
C254   C258    1.411   .     A
C254   C260    1.402   .     A
C255   C257    1.394   .     A
C255   C264    1.402   .     A
C256   C258    1.394   .     A
C256   C265    1.402   .     A
C256   H187    1.085   1_655 S
C258   Cl175   1.762   1_655 S
C259   C261    1.407   .     A
C259   H285    1.074   .     S
C260   C263    1.407   .     A
C260   H284    1.074   .     S
C261   C264    1.415   .     A
C261   C266    1.430   .     A
C262   C273    1.426   .     S
C262   O296    1.288   .     A
C262   O294    1.285   .     A
C263   C267    1.430   .     A
C263   C265    1.416   .     A
C264   C720    1.390   .     S
C265   C721    1.390   1_554 S
C266   C269    1.416   .     A
C266   C717    1.427   .     S
C267   C268    1.416   .     A
C267   C716    1.427   1_554 S
C268   C270    1.386   .     A
C268   H288    1.075   .     S
C269   H289    1.075   .     S
C269   C271    1.386   .     A
C270   H281    1.085   .     S
C270   C714    1.390   1_554 S
C271   H283    1.085   .     S
C271   C715    1.390   .     S
C272   C423    1.348   .     S
C272   Cl427   1.778   .     S
C274   O299    1.299   .     A
C274   O297    1.300   .     A
Cl276  C157    1.763   1_655 S
Cl278  C423    1.778   .     S
Cu279  Cu280   2.683   .     S
Cu279  N292    2.016   .     S
Cu279  O296    1.964   .     S
Cu279  O293    1.971   .     S
Cu279  O297    1.940   .     S
Cu279  O300    1.914   .     S
Cu280  N291    2.016   .     S
Cu280  O295    1.964   .     S
Cu280  O294    1.971   .     S
Cu280  O298    1.940   .     S
Cu280  O299    1.914   .     S
H282   N192    1.029   1_655 S
H286   C155    1.085   1_655 S
N291   H190    1.029   1_655 S
N291   N192    1.281   1_655 S
C301   O345    1.288   .     A
C301   C322    1.427   .     S
C301   O343    1.285   .     A
C302   C304    1.477   .     S
C302   O350    1.298   .     A
C302   O348    1.300   .     A
C303   C309    1.404   .     A
C303   C324    1.479   .     S
C303   C307    1.412   .     A
C304   C308    1.411   .     A
C304   C310    1.402   .     A
C305   C307    1.394   .     A
C305   C314    1.402   .     A
C305   H436    1.085   1_455 S
C306   C308    1.394   .     A
C306   C315    1.402   .     A
C306   H387    1.085   .     S
C307   Cl426   1.763   1_455 S
C308   Cl375   1.762   .     S
C309   C311    1.407   .     A
C309   H335    1.074   .     S
C310   C313    1.407   .     A
C310   H334    1.074   .     S
C311   C314    1.415   .     A
C311   C316    1.430   .     A
C312   C323    1.426   .     S
C312   O346    1.288   .     A
C312   O344    1.285   .     A
C313   C317    1.430   .     A
C313   C315    1.416   .     A
C314   C770    1.390   .     S
C315   C771    1.390   1_554 S
C316   C319    1.416   .     A
C316   C767    1.427   .     S
C317   C318    1.416   .     A
C317   C766    1.427   1_554 S
C318   C320    1.386   .     A
C318   H338    1.075   .     S
C319   H339    1.075   .     S
C319   C321    1.386   .     A
C320   H331    1.085   .     S
C320   C764    1.390   1_554 S
C321   H333    1.085   .     S
C321   C765    1.390   .     S
C322   C23     1.348   1_565 S
C322   Cl27    1.778   1_565 S
C324   O349    1.299   .     A
C324   O347    1.300   .     A
Cl325  C408    1.762   1_455 S
Cl326  C357    1.763   .     S
Cl328  C23     1.778   1_565 S
Cu329  Cu330   2.683   .     S
Cu329  N342    2.016   .     S
Cu329  O346    1.964   .     S
Cu329  O343    1.971   .     S
Cu329  O347    1.940   .     S
Cu329  O350    1.914   .     S
Cu330  N341    2.016   .     S
Cu330  O345    1.964   .     S
Cu330  O344    1.971   .     S
Cu330  O348    1.940   .     S
Cu330  O349    1.914   .     S
H332   N392    1.029   .     S
H336   C355    1.085   .     S
H337   C406    1.085   1_455 S
H340   N441    1.029   1_455 S
N341   H390    1.029   .     S
N341   N392    1.281   .     S
N342   H432    1.029   1_455 S
N342   N441    1.281   1_455 S
C351   O395    1.288   .     A
C351   C372    1.427   .     S
C351   O393    1.285   .     A
C352   C354    1.477   .     S
C352   O400    1.298   .     A
C352   O398    1.300   .     A
C353   C359    1.404   .     A
C353   C374    1.479   .     S
C353   C357    1.412   .     A
C354   C358    1.411   .     A
C354   C360    1.402   .     A
C355   C357    1.394   .     A
C355   C364    1.402   .     A
C356   C358    1.394   .     A
C356   C365    1.402   .     A
C356   H437    1.085   .     S
C358   Cl425   1.762   .     S
C359   C361    1.407   .     A
C359   H385    1.074   .     S
C360   C363    1.407   .     A
C360   H384    1.074   .     S
C361   C364    1.415   .     A
C361   C366    1.430   .     A
C362   C373    1.426   .     S
C362   O396    1.288   .     A
C362   O394    1.285   .     A
C363   C367    1.430   .     A
C363   C365    1.416   .     A
C364   C820    1.390   .     S
C365   C821    1.390   1_554 S
C366   C369    1.416   .     A
C366   C817    1.427   .     S
C367   C368    1.416   .     A
C367   C816    1.427   1_554 S
C368   C370    1.386   .     A
C368   H388    1.075   .     S
C369   H389    1.075   .     S
C369   C371    1.386   .     A
C370   H381    1.085   .     S
C370   C814    1.390   1_554 S
C371   H383    1.085   .     S
C371   C815    1.390   .     S
C372   C73     1.348   1_565 S
C372   Cl77    1.778   1_565 S
C374   O399    1.299   .     A
C374   O397    1.300   .     A
Cl376  C407    1.763   .     S
Cl378  C73     1.778   1_565 S
Cu379  Cu380   2.683   .     S
Cu379  N392    2.016   .     S
Cu379  O396    1.964   .     S
Cu379  O393    1.971   .     S
Cu379  O397    1.940   .     S
Cu379  O400    1.914   .     S
Cu380  N391    2.016   .     S
Cu380  O395    1.964   .     S
Cu380  O394    1.971   .     S
Cu380  O398    1.940   .     S
Cu380  O399    1.914   .     S
H382   N442    1.029   .     S
H386   C405    1.085   .     S
N391   H440    1.029   .     S
N391   N442    1.281   .     S
C401   O445    1.288   .     A
C401   C422    1.427   .     S
C401   O443    1.285   .     A
C402   C404    1.477   .     S
C402   O450    1.298   .     A
C402   O448    1.300   .     A
C403   C409    1.404   .     A
C403   C424    1.479   .     S
C403   C407    1.412   .     A
C404   C408    1.411   .     A
C404   C410    1.402   .     A
C405   C407    1.394   .     A
C405   C414    1.402   .     A
C406   C408    1.394   .     A
C406   C415    1.402   .     A
C406   H337    1.085   1_655 S
C408   Cl325   1.762   1_655 S
C409   C411    1.407   .     A
C409   H435    1.074   .     S
C410   C413    1.407   .     A
C410   H434    1.074   .     S
C411   C414    1.415   .     A
C411   C416    1.430   .     A
C412   C423    1.426   .     S
C412   O446    1.288   .     A
C412   O444    1.285   .     A
C413   C417    1.430   .     A
C413   C415    1.416   .     A
C414   C870    1.390   .     S
C415   C871    1.390   1_554 S
C416   C419    1.416   .     A
C416   C867    1.427   .     S
C417   C418    1.416   .     A
C417   C866    1.427   1_554 S
C418   C420    1.386   .     A
C418   H438    1.075   .     S
C419   H439    1.075   .     S
C419   C421    1.386   .     A
C420   H431    1.085   .     S
C420   C864    1.390   1_554 S
C421   H433    1.085   .     S
C421   C865    1.390   .     S
C422   C123    1.348   1_565 S
C422   Cl127   1.778   1_565 S
C424   O449    1.299   .     A
C424   O447    1.300   .     A
Cl426  C307    1.763   1_655 S
Cl428  C123    1.778   1_565 S
Cu429  Cu430   2.683   .     S
Cu429  N442    2.016   .     S
Cu429  O446    1.964   .     S
Cu429  O443    1.971   .     S
Cu429  O447    1.940   .     S
Cu429  O450    1.914   .     S
Cu430  N441    2.016   .     S
Cu430  O445    1.964   .     S
Cu430  O444    1.971   .     S
Cu430  O448    1.940   .     S
Cu430  O449    1.914   .     S
H432   N342    1.029   1_655 S
H436   C305    1.085   1_655 S
N441   H340    1.029   1_655 S
N441   N342    1.281   1_655 S
C451   O495    1.288   .     A
C451   C472    1.427   .     S
C451   O493    1.285   .     A
C452   C454    1.477   .     S
C452   O500    1.298   .     A
C452   O498    1.300   .     A
C453   C459    1.404   .     A
C453   C474    1.479   .     S
C453   C457    1.412   .     A
C454   C458    1.411   .     A
C454   C460    1.402   .     A
C455   C457    1.394   .     A
C455   C464    1.402   .     A
C455   H586    1.085   1_455 S
C456   C458    1.394   .     A
C456   C465    1.402   .     A
C456   H537    1.085   .     S
C457   Cl576   1.763   1_455 S
C458   Cl525   1.762   .     S
C459   C461    1.407   .     A
C459   H485    1.074   .     S
C460   C463    1.407   .     A
C460   H484    1.074   .     S
C461   C464    1.415   .     A
C461   C466    1.430   .     A
C462   C473    1.426   .     S
C462   O496    1.288   .     A
C462   O494    1.285   .     A
C463   C467    1.430   .     A
C463   C465    1.416   .     A
C464   C20     1.390   1_556 S
C466   C469    1.416   .     A
C466   C17     1.427   1_556 S
C467   C468    1.416   .     A
C468   C470    1.386   .     A
C468   H488    1.075   .     S
C469   H489    1.075   .     S
C469   C471    1.386   .     A
C470   H481    1.085   .     S
C471   H483    1.085   .     S
C471   C15     1.390   1_556 S
C472   C623    1.348   .     S
C472   Cl627   1.778   .     S
C473   C772    1.348   1_545 S
C473   Cl778   1.778   1_545 S
C474   O499    1.299   .     A
C474   O497    1.300   .     A
Cl475  C558    1.762   1_455 S
Cl476  C507    1.763   .     S
Cl477  C772    1.778   1_545 S
Cl478  C623    1.778   .     S
Cu479  Cu480   2.683   .     S
Cu479  N492    2.016   .     S
Cu479  O496    1.964   .     S
Cu479  O493    1.971   .     S
Cu479  O497    1.940   .     S
Cu479  O500    1.914   .     S
Cu480  N491    2.016   .     S
Cu480  O495    1.964   .     S
Cu480  O494    1.971   .     S
Cu480  O498    1.940   .     S
Cu480  O499    1.914   .     S
H482   N542    1.029   .     S
H486   C505    1.085   .     S
H487   C556    1.085   1_455 S
H490   N591    1.029   1_455 S
N491   H540    1.029   .     S
N491   N542    1.281   .     S
N492   H582    1.029   1_455 S
N492   N591    1.281   1_455 S
C501   O545    1.288   .     A
C501   C522    1.427   .     S
C501   O543    1.285   .     A
C502   C504    1.477   .     S
C502   O550    1.298   .     A
C502   O548    1.300   .     A
C503   C509    1.404   .     A
C503   C524    1.479   .     S
C503   C507    1.412   .     A
C504   C508    1.411   .     A
C504   C510    1.402   .     A
C505   C507    1.394   .     A
C505   C514    1.402   .     A
C506   C508    1.394   .     A
C506   C515    1.402   .     A
C506   H587    1.085   .     S
C508   Cl575   1.762   .     S
C509   C511    1.407   .     A
C509   H535    1.074   .     S
C510   C513    1.407   .     A
C510   H534    1.074   .     S
C511   C514    1.415   .     A
C511   C516    1.430   .     A
C512   C523    1.426   .     S
C512   O546    1.288   .     A
C512   O544    1.285   .     A
C513   C517    1.430   .     A
C513   C515    1.416   .     A
C514   C70     1.390   1_556 S
C516   C519    1.416   .     A
C516   C67     1.427   1_556 S
C517   C518    1.416   .     A
C518   C520    1.386   .     A
C518   H538    1.075   .     S
C519   H539    1.075   .     S
C519   C521    1.386   .     A
C520   H531    1.085   .     S
C521   H533    1.085   .     S
C521   C65     1.390   1_556 S
C522   C673    1.348   .     S
C522   Cl677   1.778   .     S
C523   C822    1.348   1_545 S
C523   Cl828   1.778   1_545 S
C524   O549    1.299   .     A
C524   O547    1.300   .     A
Cl526  C557    1.763   .     S
Cl527  C822    1.778   1_545 S
Cl528  C673    1.778   .     S
Cu529  Cu530   2.683   .     S
Cu529  N542    2.016   .     S
Cu529  O546    1.964   .     S
Cu529  O543    1.971   .     S
Cu529  O547    1.940   .     S
Cu529  O550    1.914   .     S
Cu530  N541    2.016   .     S
Cu530  O545    1.964   .     S
Cu530  O544    1.971   .     S
Cu530  O548    1.940   .     S
Cu530  O549    1.914   .     S
H532   N592    1.029   .     S
H536   C555    1.085   .     S
N541   H590    1.029   .     S
N541   N592    1.281   .     S
C551   O595    1.288   .     A
C551   C572    1.427   .     S
C551   O593    1.285   .     A
C552   C554    1.477   .     S
C552   O600    1.298   .     A
C552   O598    1.300   .     A
C553   C559    1.404   .     A
C553   C574    1.479   .     S
C553   C557    1.412   .     A
C554   C558    1.411   .     A
C554   C560    1.402   .     A
C555   C557    1.394   .     A
C555   C564    1.402   .     A
C556   C558    1.394   .     A
C556   C565    1.402   .     A
C556   H487    1.085   1_655 S
C558   Cl475   1.762   1_655 S
C559   C561    1.407   .     A
C559   H585    1.074   .     S
C560   C563    1.407   .     A
C560   H584    1.074   .     S
C561   C564    1.415   .     A
C561   C566    1.430   .     A
C562   C573    1.426   .     S
C562   O596    1.288   .     A
C562   O594    1.285   .     A
C563   C567    1.430   .     A
C563   C565    1.416   .     A
C564   C120    1.390   1_556 S
C566   C569    1.416   .     A
C566   C117    1.427   1_556 S
C567   C568    1.416   .     A
C568   C570    1.386   .     A
C568   H588    1.075   .     S
C569   H589    1.075   .     S
C569   C571    1.386   .     A
C570   H581    1.085   .     S
C571   H583    1.085   .     S
C571   C115    1.390   1_556 S
C572   C723    1.348   .     S
C572   Cl727   1.778   .     S
C573   C872    1.348   1_545 S
C573   Cl878   1.778   1_545 S
C574   O599    1.299   .     A
C574   O597    1.300   .     A
Cl576  C457    1.763   1_655 S
Cl577  C872    1.778   1_545 S
Cl578  C723    1.778   .     S
Cu579  Cu580   2.683   .     S
Cu579  N592    2.016   .     S
Cu579  O596    1.964   .     S
Cu579  O593    1.971   .     S
Cu579  O597    1.940   .     S
Cu579  O600    1.914   .     S
Cu580  N591    2.016   .     S
Cu580  O595    1.964   .     S
Cu580  O594    1.971   .     S
Cu580  O598    1.940   .     S
Cu580  O599    1.914   .     S
H582   N492    1.029   1_655 S
H586   C455    1.085   1_655 S
N591   H490    1.029   1_655 S
N591   N492    1.281   1_655 S
C601   O645    1.288   .     A
C601   C622    1.427   .     S
C601   O643    1.285   .     A
C602   C604    1.477   .     S
C602   O650    1.298   .     A
C602   O648    1.300   .     A
C603   C609    1.404   .     A
C603   C624    1.479   .     S
C603   C607    1.412   .     A
C604   C608    1.411   .     A
C604   C610    1.402   .     A
C605   C607    1.394   .     A
C605   C614    1.402   .     A
C605   H736    1.085   1_455 S
C606   C608    1.394   .     A
C606   C615    1.402   .     A
C606   H687    1.085   .     S
C607   Cl726   1.763   1_455 S
C608   Cl675   1.762   .     S
C609   C611    1.407   .     A
C609   H635    1.074   .     S
C610   C613    1.407   .     A
C610   H634    1.074   .     S
C611   C614    1.415   .     A
C611   C616    1.430   .     A
C612   C623    1.426   .     S
C612   O646    1.288   .     A
C612   O644    1.285   .     A
C613   C617    1.430   .     A
C613   C615    1.416   .     A
C614   C170    1.390   1_556 S
C616   C619    1.416   .     A
C616   C167    1.427   1_556 S
C617   C618    1.416   .     A
C618   C620    1.386   .     A
C618   H638    1.075   .     S
C619   H639    1.075   .     S
C619   C621    1.386   .     A
C620   H631    1.085   .     S
C621   H633    1.085   .     S
C621   C165    1.390   1_556 S
C622   C773    1.348   .     S
C622   Cl777   1.778   .     S
C624   O649    1.299   .     A
C624   O647    1.300   .     A
Cl625  C708    1.762   1_455 S
Cl626  C657    1.763   .     S
Cl628  C773    1.778   .     S
Cu629  Cu630   2.683   .     S
Cu629  N642    2.016   .     S
Cu629  O646    1.964   .     S
Cu629  O643    1.971   .     S
Cu629  O647    1.940   .     S
Cu629  O650    1.914   .     S
Cu630  N641    2.016   .     S
Cu630  O645    1.964   .     S
Cu630  O644    1.971   .     S
Cu630  O648    1.940   .     S
Cu630  O649    1.914   .     S
H632   N692    1.029   .     S
H636   C655    1.085   .     S
H637   C706    1.085   1_455 S
H640   N741    1.029   1_455 S
N641   H690    1.029   .     S
N641   N692    1.281   .     S
N642   H732    1.029   1_455 S
N642   N741    1.281   1_455 S
C651   O695    1.288   .     A
C651   C672    1.427   .     S
C651   O693    1.285   .     A
C652   C654    1.477   .     S
C652   O700    1.298   .     A
C652   O698    1.300   .     A
C653   C659    1.404   .     A
C653   C674    1.479   .     S
C653   C657    1.412   .     A
C654   C658    1.411   .     A
C654   C660    1.402   .     A
C655   C657    1.394   .     A
C655   C664    1.402   .     A
C656   C658    1.394   .     A
C656   C665    1.402   .     A
C656   H737    1.085   .     S
C658   Cl725   1.762   .     S
C659   C661    1.407   .     A
C659   H685    1.074   .     S
C660   C663    1.407   .     A
C660   H684    1.074   .     S
C661   C664    1.415   .     A
C661   C666    1.430   .     A
C662   C673    1.426   .     S
C662   O696    1.288   .     A
C662   O694    1.285   .     A
C663   C667    1.430   .     A
C663   C665    1.416   .     A
C664   C220    1.390   1_556 S
C666   C669    1.416   .     A
C666   C217    1.427   1_556 S
C667   C668    1.416   .     A
C668   C670    1.386   .     A
C668   H688    1.075   .     S
C669   H689    1.075   .     S
C669   C671    1.386   .     A
C670   H681    1.085   .     S
C671   H683    1.085   .     S
C671   C215    1.390   1_556 S
C672   C823    1.348   .     S
C672   Cl827   1.778   .     S
C674   O699    1.299   .     A
C674   O697    1.300   .     A
Cl676  C707    1.763   .     S
Cl678  C823    1.778   .     S
Cu679  Cu680   2.683   .     S
Cu679  N692    2.016   .     S
Cu679  O696    1.964   .     S
Cu679  O693    1.971   .     S
Cu679  O697    1.940   .     S
Cu679  O700    1.914   .     S
Cu680  N691    2.016   .     S
Cu680  O695    1.964   .     S
Cu680  O694    1.971   .     S
Cu680  O698    1.940   .     S
Cu680  O699    1.914   .     S
H682   N742    1.029   .     S
H686   C705    1.085   .     S
N691   H740    1.029   .     S
N691   N742    1.281   .     S
C701   O745    1.288   .     A
C701   C722    1.427   .     S
C701   O743    1.285   .     A
C702   C704    1.477   .     S
C702   O750    1.298   .     A
C702   O748    1.300   .     A
C703   C709    1.404   .     A
C703   C724    1.479   .     S
C703   C707    1.412   .     A
C704   C708    1.411   .     A
C704   C710    1.402   .     A
C705   C707    1.394   .     A
C705   C714    1.402   .     A
C706   C708    1.394   .     A
C706   C715    1.402   .     A
C706   H637    1.085   1_655 S
C708   Cl625   1.762   1_655 S
C709   C711    1.407   .     A
C709   H735    1.074   .     S
C710   C713    1.407   .     A
C710   H734    1.074   .     S
C711   C714    1.415   .     A
C711   C716    1.430   .     A
C712   C723    1.426   .     S
C712   O746    1.288   .     A
C712   O744    1.285   .     A
C713   C717    1.430   .     A
C713   C715    1.416   .     A
C714   C270    1.390   1_556 S
C716   C719    1.416   .     A
C716   C267    1.427   1_556 S
C717   C718    1.416   .     A
C718   C720    1.386   .     A
C718   H738    1.075   .     S
C719   H739    1.075   .     S
C719   C721    1.386   .     A
C720   H731    1.085   .     S
C721   H733    1.085   .     S
C721   C265    1.390   1_556 S
C722   C873    1.348   .     S
C722   Cl877   1.778   .     S
C724   O749    1.299   .     A
C724   O747    1.300   .     A
Cl726  C607    1.763   1_655 S
Cl728  C873    1.778   .     S
Cu729  Cu730   2.683   .     S
Cu729  N742    2.016   .     S
Cu729  O746    1.964   .     S
Cu729  O743    1.971   .     S
Cu729  O747    1.940   .     S
Cu729  O750    1.914   .     S
Cu730  N741    2.016   .     S
Cu730  O745    1.964   .     S
Cu730  O744    1.971   .     S
Cu730  O748    1.940   .     S
Cu730  O749    1.914   .     S
H732   N642    1.029   1_655 S
H736   C605    1.085   1_655 S
N741   H640    1.029   1_655 S
N741   N642    1.281   1_655 S
C751   O795    1.288   .     A
C751   C772    1.427   .     S
C751   O793    1.285   .     A
C752   C754    1.477   .     S
C752   O800    1.298   .     A
C752   O798    1.300   .     A
C753   C759    1.404   .     A
C753   C774    1.479   .     S
C753   C757    1.412   .     A
C754   C758    1.411   .     A
C754   C760    1.402   .     A
C755   C757    1.394   .     A
C755   C764    1.402   .     A
C755   H886    1.085   1_455 S
C756   C758    1.394   .     A
C756   C765    1.402   .     A
C756   H837    1.085   .     S
C757   Cl876   1.763   1_455 S
C758   Cl825   1.762   .     S
C759   C761    1.407   .     A
C759   H785    1.074   .     S
C760   C763    1.407   .     A
C760   H784    1.074   .     S
C761   C764    1.415   .     A
C761   C766    1.430   .     A
C762   C773    1.426   .     S
C762   O796    1.288   .     A
C762   O794    1.285   .     A
C763   C767    1.430   .     A
C763   C765    1.416   .     A
C764   C320    1.390   1_556 S
C766   C769    1.416   .     A
C766   C317    1.427   1_556 S
C767   C768    1.416   .     A
C768   C770    1.386   .     A
C768   H788    1.075   .     S
C769   H789    1.075   .     S
C769   C771    1.386   .     A
C770   H781    1.085   .     S
C771   H783    1.085   .     S
C771   C315    1.390   1_556 S
C772   C473    1.348   1_565 S
C772   Cl477   1.778   1_565 S
C774   O799    1.299   .     A
C774   O797    1.300   .     A
Cl775  C858    1.762   1_455 S
Cl776  C807    1.763   .     S
Cl778  C473    1.778   1_565 S
Cu779  Cu780   2.683   .     S
Cu779  N792    2.016   .     S
Cu779  O796    1.964   .     S
Cu779  O793    1.971   .     S
Cu779  O797    1.940   .     S
Cu779  O800    1.914   .     S
Cu780  N791    2.016   .     S
Cu780  O795    1.964   .     S
Cu780  O794    1.971   .     S
Cu780  O798    1.940   .     S
Cu780  O799    1.914   .     S
H782   N842    1.029   .     S
H786   C805    1.085   .     S
H787   C856    1.085   1_455 S
H790   N891    1.029   1_455 S
N791   H840    1.029   .     S
N791   N842    1.281   .     S
N792   H882    1.029   1_455 S
N792   N891    1.281   1_455 S
C801   O845    1.288   .     A
C801   C822    1.427   .     S
C801   O843    1.285   .     A
C802   C804    1.477   .     S
C802   O850    1.298   .     A
C802   O848    1.300   .     A
C803   C809    1.404   .     A
C803   C824    1.479   .     S
C803   C807    1.412   .     A
C804   C808    1.411   .     A
C804   C810    1.402   .     A
C805   C807    1.394   .     A
C805   C814    1.402   .     A
C806   C808    1.394   .     A
C806   C815    1.402   .     A
C806   H887    1.085   .     S
C808   Cl875   1.762   .     S
C809   C811    1.407   .     A
C809   H835    1.074   .     S
C810   C813    1.407   .     A
C810   H834    1.074   .     S
C811   C814    1.415   .     A
C811   C816    1.430   .     A
C812   C823    1.426   .     S
C812   O846    1.288   .     A
C812   O844    1.285   .     A
C813   C817    1.430   .     A
C813   C815    1.416   .     A
C814   C370    1.390   1_556 S
C816   C819    1.416   .     A
C816   C367    1.427   1_556 S
C817   C818    1.416   .     A
C818   C820    1.386   .     A
C818   H838    1.075   .     S
C819   H839    1.075   .     S
C819   C821    1.386   .     A
C820   H831    1.085   .     S
C821   H833    1.085   .     S
C821   C365    1.390   1_556 S
C822   C523    1.348   1_565 S
C822   Cl527   1.778   1_565 S
C824   O849    1.299   .     A
C824   O847    1.300   .     A
Cl826  C857    1.763   .     S
Cl828  C523    1.778   1_565 S
Cu829  Cu830   2.683   .     S
Cu829  N842    2.016   .     S
Cu829  O846    1.964   .     S
Cu829  O843    1.971   .     S
Cu829  O847    1.940   .     S
Cu829  O850    1.914   .     S
Cu830  N841    2.016   .     S
Cu830  O845    1.964   .     S
Cu830  O844    1.971   .     S
Cu830  O848    1.940   .     S
Cu830  O849    1.914   .     S
H832   N892    1.029   .     S
H836   C855    1.085   .     S
N841   H890    1.029   .     S
N841   N892    1.281   .     S
C851   O895    1.288   .     A
C851   C872    1.427   .     S
C851   O893    1.285   .     A
C852   C854    1.477   .     S
C852   O900    1.298   .     A
C852   O898    1.300   .     A
C853   C859    1.404   .     A
C853   C874    1.479   .     S
C853   C857    1.412   .     A
C854   C858    1.411   .     A
C854   C860    1.402   .     A
C855   C857    1.394   .     A
C855   C864    1.402   .     A
C856   C858    1.394   .     A
C856   C865    1.402   .     A
C856   H787    1.085   1_655 S
C858   Cl775   1.762   1_655 S
C859   C861    1.407   .     A
C859   H885    1.074   .     S
C860   C863    1.407   .     A
C860   H884    1.074   .     S
C861   C864    1.415   .     A
C861   C866    1.430   .     A
C862   C873    1.426   .     S
C862   O896    1.288   .     A
C862   O894    1.285   .     A
C863   C867    1.430   .     A
C863   C865    1.416   .     A
C864   C420    1.390   1_556 S
C866   C869    1.416   .     A
C866   C417    1.427   1_556 S
C867   C868    1.416   .     A
C868   C870    1.386   .     A
C868   H888    1.075   .     S
C869   H889    1.075   .     S
C869   C871    1.386   .     A
C870   H881    1.085   .     S
C871   H883    1.085   .     S
C871   C415    1.390   1_556 S
C872   C573    1.348   1_565 S
C872   Cl577   1.778   1_565 S
C874   O899    1.299   .     A
C874   O897    1.300   .     A
Cl876  C757    1.763   1_655 S
Cl878  C573    1.778   1_565 S
Cu879  Cu880   2.683   .     S
Cu879  N892    2.016   .     S
Cu879  O896    1.964   .     S
Cu879  O893    1.971   .     S
Cu879  O897    1.940   .     S
Cu879  O900    1.914   .     S
Cu880  N891    2.016   .     S
Cu880  O895    1.964   .     S
Cu880  O894    1.971   .     S
Cu880  O898    1.940   .     S
Cu880  O899    1.914   .     S
H882   N792    1.029   1_655 S
H886   C755    1.085   1_655 S
N891   H790    1.029   1_655 S
N891   N792    1.281   1_655 S
