data_str_m2_o10_o16_pcu_sym.103
_audit_creation_date              2020-01-03
_audit_creation_method            'Materials Studio'
_symmetry_space_group_name_H-M    'P1'
_symmetry_Int_Tables_number       1
_symmetry_cell_setting            triclinic
loop_
_symmetry_equiv_pos_as_xyz
  x,y,z
_cell_length_a                    22.7025
_cell_length_b                    26.1390
_cell_length_c                    26.8060
_cell_angle_alpha                 96.1807
_cell_angle_beta                  79.0146
_cell_angle_gamma                 103.2084
loop_
_atom_site_label
_atom_site_type_symbol
_atom_site_fract_x
_atom_site_fract_y
_atom_site_fract_z
_atom_site_U_iso_or_equiv
_atom_site_adp_type
_atom_site_occupancy
C1     C     0.18156   0.26653   0.25217   0.00000  Uiso   1.00
C2     C     0.14179   0.17320   0.48781   0.00000  Uiso   1.00
C3     C     0.15753   0.18632   0.43634   0.00000  Uiso   1.00
C4     C     0.18828   0.18657   0.01860   0.00000  Uiso   1.00
C5     C     0.23975   0.22742   0.00469   0.00000  Uiso   1.00
C6     C     0.25122   0.24593   0.45613   0.00000  Uiso   1.00
C7     C     0.21210   0.22405   0.42159   0.00000  Uiso   1.00
C8     C     0.18420   0.16199   0.06367   0.00000  Uiso   1.00
C9     C     0.26382   0.23246   0.08950   0.00000  Uiso   1.00
C10    C     0.11590   0.16438   0.40241   0.00000  Uiso   1.00
C11    C     0.18954   0.32252   0.25495   0.00000  Uiso   1.00
C12    C     0.13432   0.16549   0.34685   0.00000  Uiso   1.00
C13    C     0.14418   0.01066   0.24714   0.00000  Uiso   1.00
C14    C     0.15167   0.06674   0.24852   0.00000  Uiso   1.00
C15    C     0.19964   0.17178   0.15349   0.00000  Uiso   1.00
C16    C     0.27697   0.25069   0.04065   0.00000  Uiso   1.00
C17    C     0.21894   0.18671   0.10067   0.00000  Uiso   1.00
C18    C     0.05626   0.13809   0.42181   0.00000  Uiso   1.00
C19    C     0.03705   0.13528   0.47384   0.00000  Uiso   1.00
C20    C     0.07840   0.15447   0.00760   0.00000  Uiso   1.00
Cu21   Cu    0.10710   0.16105   0.24436   0.00000  Uiso   1.00
Cu22   Cu    0.22623   0.17228   0.25565   0.00000  Uiso   1.00
H23    H     0.28779   0.25461   0.11882   0.00000  Uiso   1.00
H24    H     0.10082   0.31994   0.23893   0.00000  Uiso   1.00
H25    H     0.00103   0.20257   0.29388   0.00000  Uiso   1.00
H26    H     0.29067   0.27708   0.44472   0.00000  Uiso   1.00
H27    H     0.31382   0.28467   0.03193   0.00000  Uiso   1.00
H28    H     0.15256   0.12495   0.07123   0.00000  Uiso   1.00
H29    H     0.02348   0.12129   0.39680   0.00000  Uiso   1.00
H30    H     0.32236   0.11919   0.48784   0.00000  Uiso   1.00
H31    H     0.22273   0.24042   0.38480   0.00000  Uiso   1.00
N32    N     0.31574   0.18074   0.26416   0.00000  Uiso   1.00
N33    N     0.01759   0.15259   0.23584   0.00000  Uiso   1.00
O34    O     0.12797   0.23807   0.24633   0.00000  Uiso   1.00
O35    O     0.22858   0.24755   0.25587   0.00000  Uiso   1.00
O36    O     0.09181   0.15960   0.31840   0.00000  Uiso   1.00
O37    O     0.19242   0.16908   0.32793   0.00000  Uiso   1.00
O38    O     0.10476   0.08578   0.24414   0.00000  Uiso   1.00
O39    O     0.20536   0.09526   0.25367   0.00000  Uiso   1.00
O40    O     0.14092   0.16425   0.17207   0.00000  Uiso   1.00
O41    O     0.24152   0.17373   0.18161   0.00000  Uiso   1.00
C42    C     0.33243   0.12411   0.18972   0.00000  Uiso   1.00
C43    C     0.02448   0.07434   0.17374   0.00000  Uiso   1.00
H44    H     0.07435   0.08275   0.15952   0.00000  Uiso   1.00
H45    H     0.01270   0.04789   0.20549   0.00000  Uiso   1.00
H46    H     0.00267   0.05248   0.14170   0.00000  Uiso   1.00
H47    H     0.28386   0.10859   0.19345   0.00000  Uiso   1.00
H48    H     0.01247   0.15135   0.15946   0.00000  Uiso   1.00
C49    C     0.05102   0.16355   0.06294   0.00000  Uiso   1.00
C50    C     0.06941   0.22135   0.08301   0.00000  Uiso   1.00
H51    H     0.11781   0.23276   0.08831   0.00000  Uiso   1.00
H52    H     0.06217   0.24811   0.05641   0.00000  Uiso   1.00
H53    H     0.04190   0.22807   0.12094   0.00000  Uiso   1.00
H54    H     0.00008   0.15302   0.06831   0.00000  Uiso   1.00
H55    H     0.06323   0.13655   0.08590   0.00000  Uiso   1.00
F56    F     0.24361   0.01849   0.26662   0.00000  Uiso   1.00
C57    C     0.51489   0.26653   0.25217   0.00000  Uiso   1.00
C58    C     0.47513   0.17320   0.48781   0.00000  Uiso   1.00
C59    C     0.49087   0.18632   0.43634   0.00000  Uiso   1.00
C60    C     0.52162   0.18657   0.01860   0.00000  Uiso   1.00
C61    C     0.57308   0.22742   0.00469   0.00000  Uiso   1.00
C62    C     0.58455   0.24593   0.45613   0.00000  Uiso   1.00
C63    C     0.54543   0.22405   0.42159   0.00000  Uiso   1.00
C64    C     0.51754   0.16199   0.06367   0.00000  Uiso   1.00
C65    C     0.59715   0.23246   0.08950   0.00000  Uiso   1.00
C66    C     0.44923   0.16438   0.40241   0.00000  Uiso   1.00
C67    C     0.52288   0.32252   0.25495   0.00000  Uiso   1.00
C68    C     0.46765   0.16549   0.34685   0.00000  Uiso   1.00
C69    C     0.47752   0.01066   0.24714   0.00000  Uiso   1.00
C70    C     0.48500   0.06674   0.24852   0.00000  Uiso   1.00
C71    C     0.53297   0.17178   0.15349   0.00000  Uiso   1.00
C72    C     0.61030   0.25069   0.04065   0.00000  Uiso   1.00
C73    C     0.55227   0.18671   0.10067   0.00000  Uiso   1.00
C74    C     0.38960   0.13809   0.42181   0.00000  Uiso   1.00
C75    C     0.37038   0.13528   0.47384   0.00000  Uiso   1.00
C76    C     0.41173   0.15447   0.00760   0.00000  Uiso   1.00
Cu77   Cu    0.44043   0.16105   0.24436   0.00000  Uiso   1.00
Cu78   Cu    0.55957   0.17228   0.25565   0.00000  Uiso   1.00
H79    H     0.62113   0.25461   0.11882   0.00000  Uiso   1.00
H80    H     0.43416   0.31994   0.23893   0.00000  Uiso   1.00
H81    H     0.33436   0.20257   0.29388   0.00000  Uiso   1.00
H82    H     0.62400   0.27708   0.44472   0.00000  Uiso   1.00
H83    H     0.64715   0.28467   0.03193   0.00000  Uiso   1.00
H84    H     0.48589   0.12495   0.07123   0.00000  Uiso   1.00
H85    H     0.35681   0.12129   0.39680   0.00000  Uiso   1.00
H86    H     0.65570   0.11919   0.48784   0.00000  Uiso   1.00
H87    H     0.55606   0.24042   0.38480   0.00000  Uiso   1.00
N88    N     0.64908   0.18074   0.26416   0.00000  Uiso   1.00
N89    N     0.35092   0.15259   0.23584   0.00000  Uiso   1.00
O90    O     0.46131   0.23807   0.24633   0.00000  Uiso   1.00
O91    O     0.56191   0.24755   0.25587   0.00000  Uiso   1.00
O92    O     0.42515   0.15960   0.31840   0.00000  Uiso   1.00
O93    O     0.52575   0.16908   0.32793   0.00000  Uiso   1.00
O94    O     0.43809   0.08578   0.24414   0.00000  Uiso   1.00
O95    O     0.53869   0.09526   0.25367   0.00000  Uiso   1.00
O96    O     0.47425   0.16425   0.17207   0.00000  Uiso   1.00
O97    O     0.57485   0.17373   0.18161   0.00000  Uiso   1.00
C98    C     0.66577   0.12411   0.18972   0.00000  Uiso   1.00
C99    C     0.35781   0.07434   0.17374   0.00000  Uiso   1.00
H100   H     0.40768   0.08275   0.15952   0.00000  Uiso   1.00
H101   H     0.34603   0.04789   0.20549   0.00000  Uiso   1.00
H102   H     0.33601   0.05248   0.14170   0.00000  Uiso   1.00
H103   H     0.61720   0.10859   0.19345   0.00000  Uiso   1.00
H104   H     0.34580   0.15135   0.15946   0.00000  Uiso   1.00
C105   C     0.38435   0.16355   0.06294   0.00000  Uiso   1.00
C106   C     0.40274   0.22135   0.08301   0.00000  Uiso   1.00
H107   H     0.45115   0.23276   0.08831   0.00000  Uiso   1.00
H108   H     0.39550   0.24811   0.05641   0.00000  Uiso   1.00
H109   H     0.37523   0.22807   0.12094   0.00000  Uiso   1.00
H110   H     0.33341   0.15302   0.06831   0.00000  Uiso   1.00
H111   H     0.39657   0.13655   0.08590   0.00000  Uiso   1.00
F112   F     0.57694   0.01849   0.26662   0.00000  Uiso   1.00
C113   C     0.84823   0.26653   0.25217   0.00000  Uiso   1.00
C114   C     0.80846   0.17320   0.48781   0.00000  Uiso   1.00
C115   C     0.82420   0.18632   0.43634   0.00000  Uiso   1.00
C116   C     0.85495   0.18657   0.01860   0.00000  Uiso   1.00
C117   C     0.90642   0.22742   0.00469   0.00000  Uiso   1.00
C118   C     0.91788   0.24593   0.45613   0.00000  Uiso   1.00
C119   C     0.87877   0.22405   0.42159   0.00000  Uiso   1.00
C120   C     0.85087   0.16199   0.06367   0.00000  Uiso   1.00
C121   C     0.93049   0.23246   0.08950   0.00000  Uiso   1.00
C122   C     0.78256   0.16438   0.40241   0.00000  Uiso   1.00
C123   C     0.85621   0.32252   0.25495   0.00000  Uiso   1.00
C124   C     0.80098   0.16549   0.34685   0.00000  Uiso   1.00
C125   C     0.81085   0.01066   0.24714   0.00000  Uiso   1.00
C126   C     0.81834   0.06674   0.24852   0.00000  Uiso   1.00
C127   C     0.86631   0.17178   0.15349   0.00000  Uiso   1.00
C128   C     0.94363   0.25069   0.04065   0.00000  Uiso   1.00
C129   C     0.88560   0.18671   0.10067   0.00000  Uiso   1.00
C130   C     0.72293   0.13809   0.42181   0.00000  Uiso   1.00
C131   C     0.70372   0.13528   0.47384   0.00000  Uiso   1.00
C132   C     0.74506   0.15447   0.00760   0.00000  Uiso   1.00
Cu133  Cu    0.77377   0.16105   0.24436   0.00000  Uiso   1.00
Cu134  Cu    0.89290   0.17228   0.25565   0.00000  Uiso   1.00
H135   H     0.95446   0.25461   0.11882   0.00000  Uiso   1.00
H136   H     0.76749   0.31994   0.23893   0.00000  Uiso   1.00
H137   H     0.66769   0.20257   0.29388   0.00000  Uiso   1.00
H138   H     0.95733   0.27708   0.44472   0.00000  Uiso   1.00
H139   H     0.98048   0.28467   0.03193   0.00000  Uiso   1.00
H140   H     0.81922   0.12495   0.07123   0.00000  Uiso   1.00
H141   H     0.69014   0.12129   0.39680   0.00000  Uiso   1.00
H142   H     0.98903   0.11919   0.48784   0.00000  Uiso   1.00
H143   H     0.88940   0.24042   0.38480   0.00000  Uiso   1.00
N144   N     0.98241   0.18074   0.26416   0.00000  Uiso   1.00
N145   N     0.68426   0.15259   0.23584   0.00000  Uiso   1.00
O146   O     0.79464   0.23807   0.24633   0.00000  Uiso   1.00
O147   O     0.89524   0.24755   0.25587   0.00000  Uiso   1.00
O148   O     0.75848   0.15960   0.31840   0.00000  Uiso   1.00
O149   O     0.85908   0.16908   0.32793   0.00000  Uiso   1.00
O150   O     0.77142   0.08578   0.24414   0.00000  Uiso   1.00
O151   O     0.87203   0.09526   0.25367   0.00000  Uiso   1.00
O152   O     0.80758   0.16425   0.17207   0.00000  Uiso   1.00
O153   O     0.90819   0.17373   0.18161   0.00000  Uiso   1.00
C154   C     0.99910   0.12411   0.18972   0.00000  Uiso   1.00
C155   C     0.69114   0.07434   0.17374   0.00000  Uiso   1.00
H156   H     0.74102   0.08275   0.15952   0.00000  Uiso   1.00
H157   H     0.67936   0.04789   0.20549   0.00000  Uiso   1.00
H158   H     0.66934   0.05248   0.14170   0.00000  Uiso   1.00
H159   H     0.95053   0.10859   0.19345   0.00000  Uiso   1.00
H160   H     0.67914   0.15135   0.15946   0.00000  Uiso   1.00
C161   C     0.71768   0.16355   0.06294   0.00000  Uiso   1.00
C162   C     0.73607   0.22135   0.08301   0.00000  Uiso   1.00
H163   H     0.78448   0.23276   0.08831   0.00000  Uiso   1.00
H164   H     0.72884   0.24811   0.05641   0.00000  Uiso   1.00
H165   H     0.70857   0.22807   0.12094   0.00000  Uiso   1.00
H166   H     0.66675   0.15302   0.06831   0.00000  Uiso   1.00
H167   H     0.72990   0.13655   0.08590   0.00000  Uiso   1.00
F168   F     0.91028   0.01849   0.26662   0.00000  Uiso   1.00
C169   C     0.18156   0.59986   0.25217   0.00000  Uiso   1.00
C170   C     0.14179   0.50653   0.48781   0.00000  Uiso   1.00
C171   C     0.15753   0.51965   0.43634   0.00000  Uiso   1.00
C172   C     0.18828   0.51991   0.01860   0.00000  Uiso   1.00
C173   C     0.23975   0.56075   0.00469   0.00000  Uiso   1.00
C174   C     0.25122   0.57926   0.45613   0.00000  Uiso   1.00
C175   C     0.21210   0.55739   0.42159   0.00000  Uiso   1.00
C176   C     0.18420   0.49532   0.06367   0.00000  Uiso   1.00
C177   C     0.26382   0.56580   0.08950   0.00000  Uiso   1.00
C178   C     0.11590   0.49771   0.40241   0.00000  Uiso   1.00
C179   C     0.18954   0.65585   0.25495   0.00000  Uiso   1.00
C180   C     0.13432   0.49882   0.34685   0.00000  Uiso   1.00
C181   C     0.14418   0.34399   0.24714   0.00000  Uiso   1.00
C182   C     0.15167   0.40007   0.24852   0.00000  Uiso   1.00
C183   C     0.19964   0.50512   0.15349   0.00000  Uiso   1.00
C184   C     0.27697   0.58403   0.04065   0.00000  Uiso   1.00
C185   C     0.21894   0.52004   0.10067   0.00000  Uiso   1.00
C186   C     0.05626   0.47142   0.42181   0.00000  Uiso   1.00
C187   C     0.03705   0.46861   0.47384   0.00000  Uiso   1.00
C188   C     0.07840   0.48780   0.00760   0.00000  Uiso   1.00
Cu189  Cu    0.10710   0.49439   0.24436   0.00000  Uiso   1.00
Cu190  Cu    0.22623   0.50561   0.25565   0.00000  Uiso   1.00
H191   H     0.28779   0.58794   0.11882   0.00000  Uiso   1.00
H192   H     0.10082   0.65328   0.23893   0.00000  Uiso   1.00
H193   H     0.00103   0.53590   0.29388   0.00000  Uiso   1.00
H194   H     0.29067   0.61042   0.44472   0.00000  Uiso   1.00
H195   H     0.31382   0.61800   0.03193   0.00000  Uiso   1.00
H196   H     0.15256   0.45828   0.07123   0.00000  Uiso   1.00
H197   H     0.02348   0.45463   0.39680   0.00000  Uiso   1.00
H198   H     0.32236   0.45253   0.48784   0.00000  Uiso   1.00
H199   H     0.22273   0.57375   0.38480   0.00000  Uiso   1.00
N200   N     0.31574   0.51407   0.26416   0.00000  Uiso   1.00
N201   N     0.01759   0.48593   0.23584   0.00000  Uiso   1.00
O202   O     0.12797   0.57141   0.24633   0.00000  Uiso   1.00
O203   O     0.22858   0.58089   0.25587   0.00000  Uiso   1.00
O204   O     0.09181   0.49293   0.31840   0.00000  Uiso   1.00
O205   O     0.19242   0.50241   0.32793   0.00000  Uiso   1.00
O206   O     0.10476   0.41911   0.24414   0.00000  Uiso   1.00
O207   O     0.20536   0.42859   0.25367   0.00000  Uiso   1.00
O208   O     0.14092   0.49759   0.17207   0.00000  Uiso   1.00
O209   O     0.24152   0.50707   0.18161   0.00000  Uiso   1.00
C210   C     0.33243   0.45744   0.18972   0.00000  Uiso   1.00
C211   C     0.02448   0.40768   0.17374   0.00000  Uiso   1.00
H212   H     0.07435   0.41609   0.15952   0.00000  Uiso   1.00
H213   H     0.01270   0.38122   0.20549   0.00000  Uiso   1.00
H214   H     0.00267   0.38581   0.14170   0.00000  Uiso   1.00
H215   H     0.28386   0.44193   0.19345   0.00000  Uiso   1.00
H216   H     0.01247   0.48468   0.15946   0.00000  Uiso   1.00
C217   C     0.05102   0.49688   0.06294   0.00000  Uiso   1.00
C218   C     0.06941   0.55468   0.08301   0.00000  Uiso   1.00
H219   H     0.11781   0.56610   0.08831   0.00000  Uiso   1.00
H220   H     0.06217   0.58144   0.05641   0.00000  Uiso   1.00
H221   H     0.04190   0.56140   0.12094   0.00000  Uiso   1.00
H222   H     0.00008   0.48636   0.06831   0.00000  Uiso   1.00
H223   H     0.06323   0.46988   0.08590   0.00000  Uiso   1.00
F224   F     0.24361   0.35183   0.26662   0.00000  Uiso   1.00
C225   C     0.51489   0.59986   0.25217   0.00000  Uiso   1.00
C226   C     0.47513   0.50653   0.48781   0.00000  Uiso   1.00
C227   C     0.49087   0.51965   0.43634   0.00000  Uiso   1.00
C228   C     0.52162   0.51991   0.01860   0.00000  Uiso   1.00
C229   C     0.57308   0.56075   0.00469   0.00000  Uiso   1.00
C230   C     0.58455   0.57926   0.45613   0.00000  Uiso   1.00
C231   C     0.54543   0.55739   0.42159   0.00000  Uiso   1.00
C232   C     0.51754   0.49532   0.06367   0.00000  Uiso   1.00
C233   C     0.59715   0.56580   0.08950   0.00000  Uiso   1.00
C234   C     0.44923   0.49771   0.40241   0.00000  Uiso   1.00
C235   C     0.52288   0.65585   0.25495   0.00000  Uiso   1.00
C236   C     0.46765   0.49882   0.34685   0.00000  Uiso   1.00
C237   C     0.47752   0.34399   0.24714   0.00000  Uiso   1.00
C238   C     0.48500   0.40007   0.24852   0.00000  Uiso   1.00
C239   C     0.53297   0.50512   0.15349   0.00000  Uiso   1.00
C240   C     0.61030   0.58403   0.04065   0.00000  Uiso   1.00
C241   C     0.55227   0.52004   0.10067   0.00000  Uiso   1.00
C242   C     0.38960   0.47142   0.42181   0.00000  Uiso   1.00
C243   C     0.37038   0.46861   0.47384   0.00000  Uiso   1.00
C244   C     0.41173   0.48780   0.00760   0.00000  Uiso   1.00
Cu245  Cu    0.44043   0.49439   0.24436   0.00000  Uiso   1.00
Cu246  Cu    0.55957   0.50561   0.25565   0.00000  Uiso   1.00
H247   H     0.62113   0.58794   0.11882   0.00000  Uiso   1.00
H248   H     0.43416   0.65328   0.23893   0.00000  Uiso   1.00
H249   H     0.33436   0.53590   0.29388   0.00000  Uiso   1.00
H250   H     0.62400   0.61042   0.44472   0.00000  Uiso   1.00
H251   H     0.64715   0.61800   0.03193   0.00000  Uiso   1.00
H252   H     0.48589   0.45828   0.07123   0.00000  Uiso   1.00
H253   H     0.35681   0.45463   0.39680   0.00000  Uiso   1.00
H254   H     0.65570   0.45253   0.48784   0.00000  Uiso   1.00
H255   H     0.55606   0.57375   0.38480   0.00000  Uiso   1.00
N256   N     0.64908   0.51407   0.26416   0.00000  Uiso   1.00
N257   N     0.35092   0.48593   0.23584   0.00000  Uiso   1.00
O258   O     0.46131   0.57141   0.24633   0.00000  Uiso   1.00
O259   O     0.56191   0.58089   0.25587   0.00000  Uiso   1.00
O260   O     0.42515   0.49293   0.31840   0.00000  Uiso   1.00
O261   O     0.52575   0.50241   0.32793   0.00000  Uiso   1.00
O262   O     0.43809   0.41911   0.24414   0.00000  Uiso   1.00
O263   O     0.53869   0.42859   0.25367   0.00000  Uiso   1.00
O264   O     0.47425   0.49759   0.17207   0.00000  Uiso   1.00
O265   O     0.57485   0.50707   0.18161   0.00000  Uiso   1.00
C266   C     0.66577   0.45744   0.18972   0.00000  Uiso   1.00
C267   C     0.35781   0.40768   0.17374   0.00000  Uiso   1.00
H268   H     0.40768   0.41609   0.15952   0.00000  Uiso   1.00
H269   H     0.34603   0.38122   0.20549   0.00000  Uiso   1.00
H270   H     0.33601   0.38581   0.14170   0.00000  Uiso   1.00
H271   H     0.61720   0.44193   0.19345   0.00000  Uiso   1.00
H272   H     0.34580   0.48468   0.15946   0.00000  Uiso   1.00
C273   C     0.38435   0.49688   0.06294   0.00000  Uiso   1.00
C274   C     0.40274   0.55468   0.08301   0.00000  Uiso   1.00
H275   H     0.45115   0.56610   0.08831   0.00000  Uiso   1.00
H276   H     0.39550   0.58144   0.05641   0.00000  Uiso   1.00
H277   H     0.37523   0.56140   0.12094   0.00000  Uiso   1.00
H278   H     0.33341   0.48636   0.06831   0.00000  Uiso   1.00
H279   H     0.39657   0.46988   0.08590   0.00000  Uiso   1.00
F280   F     0.57694   0.35183   0.26662   0.00000  Uiso   1.00
C281   C     0.84823   0.59986   0.25217   0.00000  Uiso   1.00
C282   C     0.80846   0.50653   0.48781   0.00000  Uiso   1.00
C283   C     0.82420   0.51965   0.43634   0.00000  Uiso   1.00
C284   C     0.85495   0.51991   0.01860   0.00000  Uiso   1.00
C285   C     0.90642   0.56075   0.00469   0.00000  Uiso   1.00
C286   C     0.91788   0.57926   0.45613   0.00000  Uiso   1.00
C287   C     0.87877   0.55739   0.42159   0.00000  Uiso   1.00
C288   C     0.85087   0.49532   0.06367   0.00000  Uiso   1.00
C289   C     0.93049   0.56580   0.08950   0.00000  Uiso   1.00
C290   C     0.78256   0.49771   0.40241   0.00000  Uiso   1.00
C291   C     0.85621   0.65585   0.25495   0.00000  Uiso   1.00
C292   C     0.80098   0.49882   0.34685   0.00000  Uiso   1.00
C293   C     0.81085   0.34399   0.24714   0.00000  Uiso   1.00
C294   C     0.81834   0.40007   0.24852   0.00000  Uiso   1.00
C295   C     0.86631   0.50512   0.15349   0.00000  Uiso   1.00
C296   C     0.94363   0.58403   0.04065   0.00000  Uiso   1.00
C297   C     0.88560   0.52004   0.10067   0.00000  Uiso   1.00
C298   C     0.72293   0.47142   0.42181   0.00000  Uiso   1.00
C299   C     0.70372   0.46861   0.47384   0.00000  Uiso   1.00
C300   C     0.74506   0.48780   0.00760   0.00000  Uiso   1.00
Cu301  Cu    0.77377   0.49439   0.24436   0.00000  Uiso   1.00
Cu302  Cu    0.89290   0.50561   0.25565   0.00000  Uiso   1.00
H303   H     0.95446   0.58794   0.11882   0.00000  Uiso   1.00
H304   H     0.76749   0.65328   0.23893   0.00000  Uiso   1.00
H305   H     0.66769   0.53590   0.29388   0.00000  Uiso   1.00
H306   H     0.95733   0.61042   0.44472   0.00000  Uiso   1.00
H307   H     0.98048   0.61800   0.03193   0.00000  Uiso   1.00
H308   H     0.81922   0.45828   0.07123   0.00000  Uiso   1.00
H309   H     0.69014   0.45463   0.39680   0.00000  Uiso   1.00
H310   H     0.98903   0.45253   0.48784   0.00000  Uiso   1.00
H311   H     0.88940   0.57375   0.38480   0.00000  Uiso   1.00
N312   N     0.98241   0.51407   0.26416   0.00000  Uiso   1.00
N313   N     0.68426   0.48593   0.23584   0.00000  Uiso   1.00
O314   O     0.79464   0.57141   0.24633   0.00000  Uiso   1.00
O315   O     0.89524   0.58089   0.25587   0.00000  Uiso   1.00
O316   O     0.75848   0.49293   0.31840   0.00000  Uiso   1.00
O317   O     0.85908   0.50241   0.32793   0.00000  Uiso   1.00
O318   O     0.77142   0.41911   0.24414   0.00000  Uiso   1.00
O319   O     0.87203   0.42859   0.25367   0.00000  Uiso   1.00
O320   O     0.80758   0.49759   0.17207   0.00000  Uiso   1.00
O321   O     0.90819   0.50707   0.18161   0.00000  Uiso   1.00
C322   C     0.99910   0.45744   0.18972   0.00000  Uiso   1.00
C323   C     0.69114   0.40768   0.17374   0.00000  Uiso   1.00
H324   H     0.74102   0.41609   0.15952   0.00000  Uiso   1.00
H325   H     0.67936   0.38122   0.20549   0.00000  Uiso   1.00
H326   H     0.66934   0.38581   0.14170   0.00000  Uiso   1.00
H327   H     0.95053   0.44193   0.19345   0.00000  Uiso   1.00
H328   H     0.67914   0.48468   0.15946   0.00000  Uiso   1.00
C329   C     0.71768   0.49688   0.06294   0.00000  Uiso   1.00
C330   C     0.73607   0.55468   0.08301   0.00000  Uiso   1.00
H331   H     0.78448   0.56610   0.08831   0.00000  Uiso   1.00
H332   H     0.72884   0.58144   0.05641   0.00000  Uiso   1.00
H333   H     0.70857   0.56140   0.12094   0.00000  Uiso   1.00
H334   H     0.66675   0.48636   0.06831   0.00000  Uiso   1.00
H335   H     0.72990   0.46988   0.08590   0.00000  Uiso   1.00
F336   F     0.91028   0.35183   0.26662   0.00000  Uiso   1.00
C337   C     0.18156   0.93319   0.25217   0.00000  Uiso   1.00
C338   C     0.14179   0.83986   0.48781   0.00000  Uiso   1.00
C339   C     0.15753   0.85299   0.43634   0.00000  Uiso   1.00
C340   C     0.18828   0.85324   0.01860   0.00000  Uiso   1.00
C341   C     0.23975   0.89409   0.00469   0.00000  Uiso   1.00
C342   C     0.25122   0.91260   0.45613   0.00000  Uiso   1.00
C343   C     0.21210   0.89072   0.42159   0.00000  Uiso   1.00
C344   C     0.18420   0.82866   0.06367   0.00000  Uiso   1.00
C345   C     0.26382   0.89913   0.08950   0.00000  Uiso   1.00
C346   C     0.11590   0.83104   0.40241   0.00000  Uiso   1.00
C347   C     0.18954   0.98919   0.25495   0.00000  Uiso   1.00
C348   C     0.13432   0.83215   0.34685   0.00000  Uiso   1.00
C349   C     0.14418   0.67732   0.24714   0.00000  Uiso   1.00
C350   C     0.15167   0.73341   0.24852   0.00000  Uiso   1.00
C351   C     0.19964   0.83845   0.15349   0.00000  Uiso   1.00
C352   C     0.27697   0.91736   0.04065   0.00000  Uiso   1.00
C353   C     0.21894   0.85338   0.10067   0.00000  Uiso   1.00
C354   C     0.05626   0.80475   0.42181   0.00000  Uiso   1.00
C355   C     0.03705   0.80195   0.47384   0.00000  Uiso   1.00
C356   C     0.07840   0.82114   0.00760   0.00000  Uiso   1.00
Cu357  Cu    0.10710   0.82772   0.24436   0.00000  Uiso   1.00
Cu358  Cu    0.22623   0.83895   0.25565   0.00000  Uiso   1.00
H359   H     0.28779   0.92127   0.11882   0.00000  Uiso   1.00
H360   H     0.10082   0.98661   0.23893   0.00000  Uiso   1.00
H361   H     0.00103   0.86923   0.29388   0.00000  Uiso   1.00
H362   H     0.29067   0.94375   0.44472   0.00000  Uiso   1.00
H363   H     0.31382   0.95134   0.03193   0.00000  Uiso   1.00
H364   H     0.15256   0.79161   0.07123   0.00000  Uiso   1.00
H365   H     0.02348   0.78796   0.39680   0.00000  Uiso   1.00
H366   H     0.32236   0.78586   0.48784   0.00000  Uiso   1.00
H367   H     0.22273   0.90709   0.38480   0.00000  Uiso   1.00
N368   N     0.31574   0.84741   0.26416   0.00000  Uiso   1.00
N369   N     0.01759   0.81926   0.23584   0.00000  Uiso   1.00
O370   O     0.12797   0.90474   0.24633   0.00000  Uiso   1.00
O371   O     0.22858   0.91422   0.25587   0.00000  Uiso   1.00
O372   O     0.09181   0.82627   0.31840   0.00000  Uiso   1.00
O373   O     0.19242   0.83575   0.32793   0.00000  Uiso   1.00
O374   O     0.10476   0.75245   0.24414   0.00000  Uiso   1.00
O375   O     0.20536   0.76193   0.25367   0.00000  Uiso   1.00
O376   O     0.14092   0.83092   0.17207   0.00000  Uiso   1.00
O377   O     0.24152   0.84040   0.18161   0.00000  Uiso   1.00
C378   C     0.33243   0.79077   0.18972   0.00000  Uiso   1.00
C379   C     0.02448   0.74101   0.17374   0.00000  Uiso   1.00
H380   H     0.07435   0.74942   0.15952   0.00000  Uiso   1.00
H381   H     0.01270   0.71455   0.20549   0.00000  Uiso   1.00
H382   H     0.00267   0.71914   0.14170   0.00000  Uiso   1.00
H383   H     0.28386   0.77526   0.19345   0.00000  Uiso   1.00
H384   H     0.01247   0.81802   0.15946   0.00000  Uiso   1.00
C385   C     0.05102   0.83022   0.06294   0.00000  Uiso   1.00
C386   C     0.06941   0.88802   0.08301   0.00000  Uiso   1.00
H387   H     0.11781   0.89943   0.08831   0.00000  Uiso   1.00
H388   H     0.06217   0.91478   0.05641   0.00000  Uiso   1.00
H389   H     0.04190   0.89473   0.12094   0.00000  Uiso   1.00
H390   H     0.00008   0.81969   0.06831   0.00000  Uiso   1.00
H391   H     0.06323   0.80322   0.08590   0.00000  Uiso   1.00
F392   F     0.24361   0.68516   0.26662   0.00000  Uiso   1.00
C393   C     0.51489   0.93319   0.25217   0.00000  Uiso   1.00
C394   C     0.47513   0.83986   0.48781   0.00000  Uiso   1.00
C395   C     0.49087   0.85299   0.43634   0.00000  Uiso   1.00
C396   C     0.52162   0.85324   0.01860   0.00000  Uiso   1.00
C397   C     0.57308   0.89409   0.00469   0.00000  Uiso   1.00
C398   C     0.58455   0.91260   0.45613   0.00000  Uiso   1.00
C399   C     0.54543   0.89072   0.42159   0.00000  Uiso   1.00
C400   C     0.51754   0.82866   0.06367   0.00000  Uiso   1.00
C401   C     0.59715   0.89913   0.08950   0.00000  Uiso   1.00
C402   C     0.44923   0.83104   0.40241   0.00000  Uiso   1.00
C403   C     0.52288   0.98919   0.25495   0.00000  Uiso   1.00
C404   C     0.46765   0.83215   0.34685   0.00000  Uiso   1.00
C405   C     0.47752   0.67732   0.24714   0.00000  Uiso   1.00
C406   C     0.48500   0.73341   0.24852   0.00000  Uiso   1.00
C407   C     0.53297   0.83845   0.15349   0.00000  Uiso   1.00
C408   C     0.61030   0.91736   0.04065   0.00000  Uiso   1.00
C409   C     0.55227   0.85338   0.10067   0.00000  Uiso   1.00
C410   C     0.38960   0.80475   0.42181   0.00000  Uiso   1.00
C411   C     0.37038   0.80195   0.47384   0.00000  Uiso   1.00
C412   C     0.41173   0.82114   0.00760   0.00000  Uiso   1.00
Cu413  Cu    0.44043   0.82772   0.24436   0.00000  Uiso   1.00
Cu414  Cu    0.55957   0.83895   0.25565   0.00000  Uiso   1.00
H415   H     0.62113   0.92127   0.11882   0.00000  Uiso   1.00
H416   H     0.43416   0.98661   0.23893   0.00000  Uiso   1.00
H417   H     0.33436   0.86923   0.29388   0.00000  Uiso   1.00
H418   H     0.62400   0.94375   0.44472   0.00000  Uiso   1.00
H419   H     0.64715   0.95134   0.03193   0.00000  Uiso   1.00
H420   H     0.48589   0.79161   0.07123   0.00000  Uiso   1.00
H421   H     0.35681   0.78796   0.39680   0.00000  Uiso   1.00
H422   H     0.65570   0.78586   0.48784   0.00000  Uiso   1.00
H423   H     0.55606   0.90709   0.38480   0.00000  Uiso   1.00
N424   N     0.64908   0.84741   0.26416   0.00000  Uiso   1.00
N425   N     0.35092   0.81926   0.23584   0.00000  Uiso   1.00
O426   O     0.46131   0.90474   0.24633   0.00000  Uiso   1.00
O427   O     0.56191   0.91422   0.25587   0.00000  Uiso   1.00
O428   O     0.42515   0.82627   0.31840   0.00000  Uiso   1.00
O429   O     0.52575   0.83575   0.32793   0.00000  Uiso   1.00
O430   O     0.43809   0.75245   0.24414   0.00000  Uiso   1.00
O431   O     0.53869   0.76193   0.25367   0.00000  Uiso   1.00
O432   O     0.47425   0.83092   0.17207   0.00000  Uiso   1.00
O433   O     0.57485   0.84040   0.18161   0.00000  Uiso   1.00
C434   C     0.66577   0.79077   0.18972   0.00000  Uiso   1.00
C435   C     0.35781   0.74101   0.17374   0.00000  Uiso   1.00
H436   H     0.40768   0.74942   0.15952   0.00000  Uiso   1.00
H437   H     0.34603   0.71455   0.20549   0.00000  Uiso   1.00
H438   H     0.33601   0.71914   0.14170   0.00000  Uiso   1.00
H439   H     0.61720   0.77526   0.19345   0.00000  Uiso   1.00
H440   H     0.34580   0.81802   0.15946   0.00000  Uiso   1.00
C441   C     0.38435   0.83022   0.06294   0.00000  Uiso   1.00
C442   C     0.40274   0.88802   0.08301   0.00000  Uiso   1.00
H443   H     0.45115   0.89943   0.08831   0.00000  Uiso   1.00
H444   H     0.39550   0.91478   0.05641   0.00000  Uiso   1.00
H445   H     0.37523   0.89473   0.12094   0.00000  Uiso   1.00
H446   H     0.33341   0.81969   0.06831   0.00000  Uiso   1.00
H447   H     0.39657   0.80322   0.08590   0.00000  Uiso   1.00
F448   F     0.57694   0.68516   0.26662   0.00000  Uiso   1.00
C449   C     0.84823   0.93319   0.25217   0.00000  Uiso   1.00
C450   C     0.80846   0.83986   0.48781   0.00000  Uiso   1.00
C451   C     0.82420   0.85299   0.43634   0.00000  Uiso   1.00
C452   C     0.85495   0.85324   0.01860   0.00000  Uiso   1.00
C453   C     0.90642   0.89409   0.00469   0.00000  Uiso   1.00
C454   C     0.91788   0.91260   0.45613   0.00000  Uiso   1.00
C455   C     0.87877   0.89072   0.42159   0.00000  Uiso   1.00
C456   C     0.85087   0.82866   0.06367   0.00000  Uiso   1.00
C457   C     0.93049   0.89913   0.08950   0.00000  Uiso   1.00
C458   C     0.78256   0.83104   0.40241   0.00000  Uiso   1.00
C459   C     0.85621   0.98919   0.25495   0.00000  Uiso   1.00
C460   C     0.80098   0.83215   0.34685   0.00000  Uiso   1.00
C461   C     0.81085   0.67732   0.24714   0.00000  Uiso   1.00
C462   C     0.81834   0.73341   0.24852   0.00000  Uiso   1.00
C463   C     0.86631   0.83845   0.15349   0.00000  Uiso   1.00
C464   C     0.94363   0.91736   0.04065   0.00000  Uiso   1.00
C465   C     0.88560   0.85338   0.10067   0.00000  Uiso   1.00
C466   C     0.72293   0.80475   0.42181   0.00000  Uiso   1.00
C467   C     0.70372   0.80195   0.47384   0.00000  Uiso   1.00
C468   C     0.74506   0.82114   0.00760   0.00000  Uiso   1.00
Cu469  Cu    0.77377   0.82772   0.24436   0.00000  Uiso   1.00
Cu470  Cu    0.89290   0.83895   0.25565   0.00000  Uiso   1.00
H471   H     0.95446   0.92127   0.11882   0.00000  Uiso   1.00
H472   H     0.76749   0.98661   0.23893   0.00000  Uiso   1.00
H473   H     0.66769   0.86923   0.29388   0.00000  Uiso   1.00
H474   H     0.95733   0.94375   0.44472   0.00000  Uiso   1.00
H475   H     0.98048   0.95134   0.03193   0.00000  Uiso   1.00
H476   H     0.81922   0.79161   0.07123   0.00000  Uiso   1.00
H477   H     0.69014   0.78796   0.39680   0.00000  Uiso   1.00
H478   H     0.98903   0.78586   0.48784   0.00000  Uiso   1.00
H479   H     0.88940   0.90709   0.38480   0.00000  Uiso   1.00
N480   N     0.98241   0.84741   0.26416   0.00000  Uiso   1.00
N481   N     0.68426   0.81926   0.23584   0.00000  Uiso   1.00
O482   O     0.79464   0.90474   0.24633   0.00000  Uiso   1.00
O483   O     0.89524   0.91422   0.25587   0.00000  Uiso   1.00
O484   O     0.75848   0.82627   0.31840   0.00000  Uiso   1.00
O485   O     0.85908   0.83575   0.32793   0.00000  Uiso   1.00
O486   O     0.77142   0.75245   0.24414   0.00000  Uiso   1.00
O487   O     0.87203   0.76193   0.25367   0.00000  Uiso   1.00
O488   O     0.80758   0.83092   0.17207   0.00000  Uiso   1.00
O489   O     0.90819   0.84040   0.18161   0.00000  Uiso   1.00
C490   C     0.99910   0.79077   0.18972   0.00000  Uiso   1.00
C491   C     0.69114   0.74101   0.17374   0.00000  Uiso   1.00
H492   H     0.74102   0.74942   0.15952   0.00000  Uiso   1.00
H493   H     0.67936   0.71455   0.20549   0.00000  Uiso   1.00
H494   H     0.66934   0.71914   0.14170   0.00000  Uiso   1.00
H495   H     0.95053   0.77526   0.19345   0.00000  Uiso   1.00
H496   H     0.67914   0.81802   0.15946   0.00000  Uiso   1.00
C497   C     0.71768   0.83022   0.06294   0.00000  Uiso   1.00
C498   C     0.73607   0.88802   0.08301   0.00000  Uiso   1.00
H499   H     0.78448   0.89943   0.08831   0.00000  Uiso   1.00
H500   H     0.72884   0.91478   0.05641   0.00000  Uiso   1.00
H501   H     0.70857   0.89473   0.12094   0.00000  Uiso   1.00
H502   H     0.66675   0.81969   0.06831   0.00000  Uiso   1.00
H503   H     0.72990   0.80322   0.08590   0.00000  Uiso   1.00
F504   F     0.91028   0.68516   0.26662   0.00000  Uiso   1.00
C505   C     0.18156   0.26653   0.75217   0.00000  Uiso   1.00
C506   C     0.14179   0.17320   0.98781   0.00000  Uiso   1.00
C507   C     0.15753   0.18632   0.93634   0.00000  Uiso   1.00
C508   C     0.18828   0.18657   0.51860   0.00000  Uiso   1.00
C509   C     0.23975   0.22742   0.50469   0.00000  Uiso   1.00
C510   C     0.25122   0.24593   0.95613   0.00000  Uiso   1.00
C511   C     0.21210   0.22405   0.92159   0.00000  Uiso   1.00
C512   C     0.18420   0.16199   0.56367   0.00000  Uiso   1.00
C513   C     0.26382   0.23246   0.58950   0.00000  Uiso   1.00
C514   C     0.11590   0.16438   0.90241   0.00000  Uiso   1.00
C515   C     0.18954   0.32252   0.75495   0.00000  Uiso   1.00
C516   C     0.13432   0.16549   0.84685   0.00000  Uiso   1.00
C517   C     0.14418   0.01066   0.74714   0.00000  Uiso   1.00
C518   C     0.15167   0.06674   0.74852   0.00000  Uiso   1.00
C519   C     0.19964   0.17178   0.65349   0.00000  Uiso   1.00
C520   C     0.27697   0.25069   0.54065   0.00000  Uiso   1.00
C521   C     0.21894   0.18671   0.60067   0.00000  Uiso   1.00
C522   C     0.05626   0.13809   0.92181   0.00000  Uiso   1.00
C523   C     0.03705   0.13528   0.97384   0.00000  Uiso   1.00
C524   C     0.07840   0.15447   0.50760   0.00000  Uiso   1.00
Cu525  Cu    0.10710   0.16105   0.74436   0.00000  Uiso   1.00
Cu526  Cu    0.22623   0.17228   0.75565   0.00000  Uiso   1.00
H527   H     0.28779   0.25461   0.61882   0.00000  Uiso   1.00
H528   H     0.10082   0.31994   0.73893   0.00000  Uiso   1.00
H529   H     0.00103   0.20257   0.79388   0.00000  Uiso   1.00
H530   H     0.29067   0.27708   0.94472   0.00000  Uiso   1.00
H531   H     0.31382   0.28467   0.53193   0.00000  Uiso   1.00
H532   H     0.15256   0.12495   0.57123   0.00000  Uiso   1.00
H533   H     0.02348   0.12129   0.89680   0.00000  Uiso   1.00
H534   H     0.32236   0.11919   0.98784   0.00000  Uiso   1.00
H535   H     0.22273   0.24042   0.88480   0.00000  Uiso   1.00
N536   N     0.31574   0.18074   0.76416   0.00000  Uiso   1.00
N537   N     0.01759   0.15259   0.73584   0.00000  Uiso   1.00
O538   O     0.12797   0.23807   0.74633   0.00000  Uiso   1.00
O539   O     0.22858   0.24755   0.75587   0.00000  Uiso   1.00
O540   O     0.09181   0.15960   0.81840   0.00000  Uiso   1.00
O541   O     0.19242   0.16908   0.82793   0.00000  Uiso   1.00
O542   O     0.10476   0.08578   0.74414   0.00000  Uiso   1.00
O543   O     0.20536   0.09526   0.75367   0.00000  Uiso   1.00
O544   O     0.14092   0.16425   0.67207   0.00000  Uiso   1.00
O545   O     0.24152   0.17373   0.68161   0.00000  Uiso   1.00
C546   C     0.33243   0.12411   0.68972   0.00000  Uiso   1.00
C547   C     0.02448   0.07434   0.67374   0.00000  Uiso   1.00
H548   H     0.07435   0.08275   0.65952   0.00000  Uiso   1.00
H549   H     0.01270   0.04789   0.70549   0.00000  Uiso   1.00
H550   H     0.00267   0.05248   0.64170   0.00000  Uiso   1.00
H551   H     0.28386   0.10859   0.69345   0.00000  Uiso   1.00
H552   H     0.01247   0.15135   0.65946   0.00000  Uiso   1.00
C553   C     0.05102   0.16355   0.56294   0.00000  Uiso   1.00
C554   C     0.06941   0.22135   0.58301   0.00000  Uiso   1.00
H555   H     0.11781   0.23276   0.58831   0.00000  Uiso   1.00
H556   H     0.06217   0.24811   0.55641   0.00000  Uiso   1.00
H557   H     0.04190   0.22807   0.62094   0.00000  Uiso   1.00
H558   H     0.00008   0.15302   0.56831   0.00000  Uiso   1.00
H559   H     0.06323   0.13655   0.58590   0.00000  Uiso   1.00
F560   F     0.24361   0.01849   0.76662   0.00000  Uiso   1.00
C561   C     0.51489   0.26653   0.75217   0.00000  Uiso   1.00
C562   C     0.47513   0.17320   0.98781   0.00000  Uiso   1.00
C563   C     0.49087   0.18632   0.93634   0.00000  Uiso   1.00
C564   C     0.52162   0.18657   0.51860   0.00000  Uiso   1.00
C565   C     0.57308   0.22742   0.50469   0.00000  Uiso   1.00
C566   C     0.58455   0.24593   0.95613   0.00000  Uiso   1.00
C567   C     0.54543   0.22405   0.92159   0.00000  Uiso   1.00
C568   C     0.51754   0.16199   0.56367   0.00000  Uiso   1.00
C569   C     0.59715   0.23246   0.58950   0.00000  Uiso   1.00
C570   C     0.44923   0.16438   0.90241   0.00000  Uiso   1.00
C571   C     0.52288   0.32252   0.75495   0.00000  Uiso   1.00
C572   C     0.46765   0.16549   0.84685   0.00000  Uiso   1.00
C573   C     0.47752   0.01066   0.74714   0.00000  Uiso   1.00
C574   C     0.48500   0.06674   0.74852   0.00000  Uiso   1.00
C575   C     0.53297   0.17178   0.65349   0.00000  Uiso   1.00
C576   C     0.61030   0.25069   0.54065   0.00000  Uiso   1.00
C577   C     0.55227   0.18671   0.60067   0.00000  Uiso   1.00
C578   C     0.38960   0.13809   0.92181   0.00000  Uiso   1.00
C579   C     0.37038   0.13528   0.97384   0.00000  Uiso   1.00
C580   C     0.41173   0.15447   0.50760   0.00000  Uiso   1.00
Cu581  Cu    0.44043   0.16105   0.74436   0.00000  Uiso   1.00
Cu582  Cu    0.55957   0.17228   0.75565   0.00000  Uiso   1.00
H583   H     0.62113   0.25461   0.61882   0.00000  Uiso   1.00
H584   H     0.43416   0.31994   0.73893   0.00000  Uiso   1.00
H585   H     0.33436   0.20257   0.79388   0.00000  Uiso   1.00
H586   H     0.62400   0.27708   0.94472   0.00000  Uiso   1.00
H587   H     0.64715   0.28467   0.53193   0.00000  Uiso   1.00
H588   H     0.48589   0.12495   0.57123   0.00000  Uiso   1.00
H589   H     0.35681   0.12129   0.89680   0.00000  Uiso   1.00
H590   H     0.65570   0.11919   0.98784   0.00000  Uiso   1.00
H591   H     0.55606   0.24042   0.88480   0.00000  Uiso   1.00
N592   N     0.64908   0.18074   0.76416   0.00000  Uiso   1.00
N593   N     0.35092   0.15259   0.73584   0.00000  Uiso   1.00
O594   O     0.46131   0.23807   0.74633   0.00000  Uiso   1.00
O595   O     0.56191   0.24755   0.75587   0.00000  Uiso   1.00
O596   O     0.42515   0.15960   0.81840   0.00000  Uiso   1.00
O597   O     0.52575   0.16908   0.82793   0.00000  Uiso   1.00
O598   O     0.43809   0.08578   0.74414   0.00000  Uiso   1.00
O599   O     0.53869   0.09526   0.75367   0.00000  Uiso   1.00
O600   O     0.47425   0.16425   0.67207   0.00000  Uiso   1.00
O601   O     0.57485   0.17373   0.68161   0.00000  Uiso   1.00
C602   C     0.66577   0.12411   0.68972   0.00000  Uiso   1.00
C603   C     0.35781   0.07434   0.67374   0.00000  Uiso   1.00
H604   H     0.40768   0.08275   0.65952   0.00000  Uiso   1.00
H605   H     0.34603   0.04789   0.70549   0.00000  Uiso   1.00
H606   H     0.33601   0.05248   0.64170   0.00000  Uiso   1.00
H607   H     0.61720   0.10859   0.69345   0.00000  Uiso   1.00
H608   H     0.34580   0.15135   0.65946   0.00000  Uiso   1.00
C609   C     0.38435   0.16355   0.56294   0.00000  Uiso   1.00
C610   C     0.40274   0.22135   0.58301   0.00000  Uiso   1.00
H611   H     0.45115   0.23276   0.58831   0.00000  Uiso   1.00
H612   H     0.39550   0.24811   0.55641   0.00000  Uiso   1.00
H613   H     0.37523   0.22807   0.62094   0.00000  Uiso   1.00
H614   H     0.33341   0.15302   0.56831   0.00000  Uiso   1.00
H615   H     0.39657   0.13655   0.58590   0.00000  Uiso   1.00
F616   F     0.57694   0.01849   0.76662   0.00000  Uiso   1.00
C617   C     0.84823   0.26653   0.75217   0.00000  Uiso   1.00
C618   C     0.80846   0.17320   0.98781   0.00000  Uiso   1.00
C619   C     0.82420   0.18632   0.93634   0.00000  Uiso   1.00
C620   C     0.85495   0.18657   0.51860   0.00000  Uiso   1.00
C621   C     0.90642   0.22742   0.50469   0.00000  Uiso   1.00
C622   C     0.91788   0.24593   0.95613   0.00000  Uiso   1.00
C623   C     0.87877   0.22405   0.92159   0.00000  Uiso   1.00
C624   C     0.85087   0.16199   0.56367   0.00000  Uiso   1.00
C625   C     0.93049   0.23246   0.58950   0.00000  Uiso   1.00
C626   C     0.78256   0.16438   0.90241   0.00000  Uiso   1.00
C627   C     0.85621   0.32252   0.75495   0.00000  Uiso   1.00
C628   C     0.80098   0.16549   0.84685   0.00000  Uiso   1.00
C629   C     0.81085   0.01066   0.74714   0.00000  Uiso   1.00
C630   C     0.81834   0.06674   0.74852   0.00000  Uiso   1.00
C631   C     0.86631   0.17178   0.65349   0.00000  Uiso   1.00
C632   C     0.94363   0.25069   0.54065   0.00000  Uiso   1.00
C633   C     0.88560   0.18671   0.60067   0.00000  Uiso   1.00
C634   C     0.72293   0.13809   0.92181   0.00000  Uiso   1.00
C635   C     0.70372   0.13528   0.97384   0.00000  Uiso   1.00
C636   C     0.74506   0.15447   0.50760   0.00000  Uiso   1.00
Cu637  Cu    0.77377   0.16105   0.74436   0.00000  Uiso   1.00
Cu638  Cu    0.89290   0.17228   0.75565   0.00000  Uiso   1.00
H639   H     0.95446   0.25461   0.61882   0.00000  Uiso   1.00
H640   H     0.76749   0.31994   0.73893   0.00000  Uiso   1.00
H641   H     0.66769   0.20257   0.79388   0.00000  Uiso   1.00
H642   H     0.95733   0.27708   0.94472   0.00000  Uiso   1.00
H643   H     0.98048   0.28467   0.53193   0.00000  Uiso   1.00
H644   H     0.81922   0.12495   0.57123   0.00000  Uiso   1.00
H645   H     0.69014   0.12129   0.89680   0.00000  Uiso   1.00
H646   H     0.98903   0.11919   0.98784   0.00000  Uiso   1.00
H647   H     0.88940   0.24042   0.88480   0.00000  Uiso   1.00
N648   N     0.98241   0.18074   0.76416   0.00000  Uiso   1.00
N649   N     0.68426   0.15259   0.73584   0.00000  Uiso   1.00
O650   O     0.79464   0.23807   0.74633   0.00000  Uiso   1.00
O651   O     0.89524   0.24755   0.75587   0.00000  Uiso   1.00
O652   O     0.75848   0.15960   0.81840   0.00000  Uiso   1.00
O653   O     0.85908   0.16908   0.82793   0.00000  Uiso   1.00
O654   O     0.77142   0.08578   0.74414   0.00000  Uiso   1.00
O655   O     0.87203   0.09526   0.75367   0.00000  Uiso   1.00
O656   O     0.80758   0.16425   0.67207   0.00000  Uiso   1.00
O657   O     0.90819   0.17373   0.68161   0.00000  Uiso   1.00
C658   C     0.99910   0.12411   0.68972   0.00000  Uiso   1.00
C659   C     0.69114   0.07434   0.67374   0.00000  Uiso   1.00
H660   H     0.74102   0.08275   0.65952   0.00000  Uiso   1.00
H661   H     0.67936   0.04789   0.70549   0.00000  Uiso   1.00
H662   H     0.66934   0.05248   0.64170   0.00000  Uiso   1.00
H663   H     0.95053   0.10859   0.69345   0.00000  Uiso   1.00
H664   H     0.67914   0.15135   0.65946   0.00000  Uiso   1.00
C665   C     0.71768   0.16355   0.56294   0.00000  Uiso   1.00
C666   C     0.73607   0.22135   0.58301   0.00000  Uiso   1.00
H667   H     0.78448   0.23276   0.58831   0.00000  Uiso   1.00
H668   H     0.72884   0.24811   0.55641   0.00000  Uiso   1.00
H669   H     0.70857   0.22807   0.62094   0.00000  Uiso   1.00
H670   H     0.66675   0.15302   0.56831   0.00000  Uiso   1.00
H671   H     0.72990   0.13655   0.58590   0.00000  Uiso   1.00
F672   F     0.91028   0.01849   0.76662   0.00000  Uiso   1.00
C673   C     0.18156   0.59986   0.75217   0.00000  Uiso   1.00
C674   C     0.14179   0.50653   0.98781   0.00000  Uiso   1.00
C675   C     0.15753   0.51965   0.93634   0.00000  Uiso   1.00
C676   C     0.18828   0.51991   0.51860   0.00000  Uiso   1.00
C677   C     0.23975   0.56075   0.50469   0.00000  Uiso   1.00
C678   C     0.25122   0.57926   0.95613   0.00000  Uiso   1.00
C679   C     0.21210   0.55739   0.92159   0.00000  Uiso   1.00
C680   C     0.18420   0.49532   0.56367   0.00000  Uiso   1.00
C681   C     0.26382   0.56580   0.58950   0.00000  Uiso   1.00
C682   C     0.11590   0.49771   0.90241   0.00000  Uiso   1.00
C683   C     0.18954   0.65585   0.75495   0.00000  Uiso   1.00
C684   C     0.13432   0.49882   0.84685   0.00000  Uiso   1.00
C685   C     0.14418   0.34399   0.74714   0.00000  Uiso   1.00
C686   C     0.15167   0.40007   0.74852   0.00000  Uiso   1.00
C687   C     0.19964   0.50512   0.65349   0.00000  Uiso   1.00
C688   C     0.27697   0.58403   0.54065   0.00000  Uiso   1.00
C689   C     0.21894   0.52004   0.60067   0.00000  Uiso   1.00
C690   C     0.05626   0.47142   0.92181   0.00000  Uiso   1.00
C691   C     0.03705   0.46861   0.97384   0.00000  Uiso   1.00
C692   C     0.07840   0.48780   0.50760   0.00000  Uiso   1.00
Cu693  Cu    0.10710   0.49439   0.74436   0.00000  Uiso   1.00
Cu694  Cu    0.22623   0.50561   0.75565   0.00000  Uiso   1.00
H695   H     0.28779   0.58794   0.61882   0.00000  Uiso   1.00
H696   H     0.10082   0.65328   0.73893   0.00000  Uiso   1.00
H697   H     0.00103   0.53590   0.79388   0.00000  Uiso   1.00
H698   H     0.29067   0.61042   0.94472   0.00000  Uiso   1.00
H699   H     0.31382   0.61800   0.53193   0.00000  Uiso   1.00
H700   H     0.15256   0.45828   0.57123   0.00000  Uiso   1.00
H701   H     0.02348   0.45463   0.89680   0.00000  Uiso   1.00
H702   H     0.32236   0.45253   0.98784   0.00000  Uiso   1.00
H703   H     0.22273   0.57375   0.88480   0.00000  Uiso   1.00
N704   N     0.31574   0.51407   0.76416   0.00000  Uiso   1.00
N705   N     0.01759   0.48593   0.73584   0.00000  Uiso   1.00
O706   O     0.12797   0.57141   0.74633   0.00000  Uiso   1.00
O707   O     0.22858   0.58089   0.75587   0.00000  Uiso   1.00
O708   O     0.09181   0.49293   0.81840   0.00000  Uiso   1.00
O709   O     0.19242   0.50241   0.82793   0.00000  Uiso   1.00
O710   O     0.10476   0.41911   0.74414   0.00000  Uiso   1.00
O711   O     0.20536   0.42859   0.75367   0.00000  Uiso   1.00
O712   O     0.14092   0.49759   0.67207   0.00000  Uiso   1.00
O713   O     0.24152   0.50707   0.68161   0.00000  Uiso   1.00
C714   C     0.33243   0.45744   0.68972   0.00000  Uiso   1.00
C715   C     0.02448   0.40768   0.67374   0.00000  Uiso   1.00
H716   H     0.07435   0.41609   0.65952   0.00000  Uiso   1.00
H717   H     0.01270   0.38122   0.70549   0.00000  Uiso   1.00
H718   H     0.00267   0.38581   0.64170   0.00000  Uiso   1.00
H719   H     0.28386   0.44193   0.69345   0.00000  Uiso   1.00
H720   H     0.01247   0.48468   0.65946   0.00000  Uiso   1.00
C721   C     0.05102   0.49688   0.56294   0.00000  Uiso   1.00
C722   C     0.06941   0.55468   0.58301   0.00000  Uiso   1.00
H723   H     0.11781   0.56610   0.58831   0.00000  Uiso   1.00
H724   H     0.06217   0.58144   0.55641   0.00000  Uiso   1.00
H725   H     0.04190   0.56140   0.62094   0.00000  Uiso   1.00
H726   H     0.00008   0.48636   0.56831   0.00000  Uiso   1.00
H727   H     0.06323   0.46988   0.58590   0.00000  Uiso   1.00
F728   F     0.24361   0.35183   0.76662   0.00000  Uiso   1.00
C729   C     0.51489   0.59986   0.75217   0.00000  Uiso   1.00
C730   C     0.47513   0.50653   0.98781   0.00000  Uiso   1.00
C731   C     0.49087   0.51965   0.93634   0.00000  Uiso   1.00
C732   C     0.52162   0.51991   0.51860   0.00000  Uiso   1.00
C733   C     0.57308   0.56075   0.50469   0.00000  Uiso   1.00
C734   C     0.58455   0.57926   0.95613   0.00000  Uiso   1.00
C735   C     0.54543   0.55739   0.92159   0.00000  Uiso   1.00
C736   C     0.51754   0.49532   0.56367   0.00000  Uiso   1.00
C737   C     0.59715   0.56580   0.58950   0.00000  Uiso   1.00
C738   C     0.44923   0.49771   0.90241   0.00000  Uiso   1.00
C739   C     0.52288   0.65585   0.75495   0.00000  Uiso   1.00
C740   C     0.46765   0.49882   0.84685   0.00000  Uiso   1.00
C741   C     0.47752   0.34399   0.74714   0.00000  Uiso   1.00
C742   C     0.48500   0.40007   0.74852   0.00000  Uiso   1.00
C743   C     0.53297   0.50512   0.65349   0.00000  Uiso   1.00
C744   C     0.61030   0.58403   0.54065   0.00000  Uiso   1.00
C745   C     0.55227   0.52004   0.60067   0.00000  Uiso   1.00
C746   C     0.38960   0.47142   0.92181   0.00000  Uiso   1.00
C747   C     0.37038   0.46861   0.97384   0.00000  Uiso   1.00
C748   C     0.41173   0.48780   0.50760   0.00000  Uiso   1.00
Cu749  Cu    0.44043   0.49439   0.74436   0.00000  Uiso   1.00
Cu750  Cu    0.55957   0.50561   0.75565   0.00000  Uiso   1.00
H751   H     0.62113   0.58794   0.61882   0.00000  Uiso   1.00
H752   H     0.43416   0.65328   0.73893   0.00000  Uiso   1.00
H753   H     0.33436   0.53590   0.79388   0.00000  Uiso   1.00
H754   H     0.62400   0.61042   0.94472   0.00000  Uiso   1.00
H755   H     0.64715   0.61800   0.53193   0.00000  Uiso   1.00
H756   H     0.48589   0.45828   0.57123   0.00000  Uiso   1.00
H757   H     0.35681   0.45463   0.89680   0.00000  Uiso   1.00
H758   H     0.65570   0.45253   0.98784   0.00000  Uiso   1.00
H759   H     0.55606   0.57375   0.88480   0.00000  Uiso   1.00
N760   N     0.64908   0.51407   0.76416   0.00000  Uiso   1.00
N761   N     0.35092   0.48593   0.73584   0.00000  Uiso   1.00
O762   O     0.46131   0.57141   0.74633   0.00000  Uiso   1.00
O763   O     0.56191   0.58089   0.75587   0.00000  Uiso   1.00
O764   O     0.42515   0.49293   0.81840   0.00000  Uiso   1.00
O765   O     0.52575   0.50241   0.82793   0.00000  Uiso   1.00
O766   O     0.43809   0.41911   0.74414   0.00000  Uiso   1.00
O767   O     0.53869   0.42859   0.75367   0.00000  Uiso   1.00
O768   O     0.47425   0.49759   0.67207   0.00000  Uiso   1.00
O769   O     0.57485   0.50707   0.68161   0.00000  Uiso   1.00
C770   C     0.66577   0.45744   0.68972   0.00000  Uiso   1.00
C771   C     0.35781   0.40768   0.67374   0.00000  Uiso   1.00
H772   H     0.40768   0.41609   0.65952   0.00000  Uiso   1.00
H773   H     0.34603   0.38122   0.70549   0.00000  Uiso   1.00
H774   H     0.33601   0.38581   0.64170   0.00000  Uiso   1.00
H775   H     0.61720   0.44193   0.69345   0.00000  Uiso   1.00
H776   H     0.34580   0.48468   0.65946   0.00000  Uiso   1.00
C777   C     0.38435   0.49688   0.56294   0.00000  Uiso   1.00
C778   C     0.40274   0.55468   0.58301   0.00000  Uiso   1.00
H779   H     0.45115   0.56610   0.58831   0.00000  Uiso   1.00
H780   H     0.39550   0.58144   0.55641   0.00000  Uiso   1.00
H781   H     0.37523   0.56140   0.62094   0.00000  Uiso   1.00
H782   H     0.33341   0.48636   0.56831   0.00000  Uiso   1.00
H783   H     0.39657   0.46988   0.58590   0.00000  Uiso   1.00
F784   F     0.57694   0.35183   0.76662   0.00000  Uiso   1.00
C785   C     0.84823   0.59986   0.75217   0.00000  Uiso   1.00
C786   C     0.80846   0.50653   0.98781   0.00000  Uiso   1.00
C787   C     0.82420   0.51965   0.93634   0.00000  Uiso   1.00
C788   C     0.85495   0.51991   0.51860   0.00000  Uiso   1.00
C789   C     0.90642   0.56075   0.50469   0.00000  Uiso   1.00
C790   C     0.91788   0.57926   0.95613   0.00000  Uiso   1.00
C791   C     0.87877   0.55739   0.92159   0.00000  Uiso   1.00
C792   C     0.85087   0.49532   0.56367   0.00000  Uiso   1.00
C793   C     0.93049   0.56580   0.58950   0.00000  Uiso   1.00
C794   C     0.78256   0.49771   0.90241   0.00000  Uiso   1.00
C795   C     0.85621   0.65585   0.75495   0.00000  Uiso   1.00
C796   C     0.80098   0.49882   0.84685   0.00000  Uiso   1.00
C797   C     0.81085   0.34399   0.74714   0.00000  Uiso   1.00
C798   C     0.81834   0.40007   0.74852   0.00000  Uiso   1.00
C799   C     0.86631   0.50512   0.65349   0.00000  Uiso   1.00
C800   C     0.94363   0.58403   0.54065   0.00000  Uiso   1.00
C801   C     0.88560   0.52004   0.60067   0.00000  Uiso   1.00
C802   C     0.72293   0.47142   0.92181   0.00000  Uiso   1.00
C803   C     0.70372   0.46861   0.97384   0.00000  Uiso   1.00
C804   C     0.74506   0.48780   0.50760   0.00000  Uiso   1.00
Cu805  Cu    0.77377   0.49439   0.74436   0.00000  Uiso   1.00
Cu806  Cu    0.89290   0.50561   0.75565   0.00000  Uiso   1.00
H807   H     0.95446   0.58794   0.61882   0.00000  Uiso   1.00
H808   H     0.76749   0.65328   0.73893   0.00000  Uiso   1.00
H809   H     0.66769   0.53590   0.79388   0.00000  Uiso   1.00
H810   H     0.95733   0.61042   0.94472   0.00000  Uiso   1.00
H811   H     0.98048   0.61800   0.53193   0.00000  Uiso   1.00
H812   H     0.81922   0.45828   0.57123   0.00000  Uiso   1.00
H813   H     0.69014   0.45463   0.89680   0.00000  Uiso   1.00
H814   H     0.98903   0.45253   0.98784   0.00000  Uiso   1.00
H815   H     0.88940   0.57375   0.88480   0.00000  Uiso   1.00
N816   N     0.98241   0.51407   0.76416   0.00000  Uiso   1.00
N817   N     0.68426   0.48593   0.73584   0.00000  Uiso   1.00
O818   O     0.79464   0.57141   0.74633   0.00000  Uiso   1.00
O819   O     0.89524   0.58089   0.75587   0.00000  Uiso   1.00
O820   O     0.75848   0.49293   0.81840   0.00000  Uiso   1.00
O821   O     0.85908   0.50241   0.82793   0.00000  Uiso   1.00
O822   O     0.77142   0.41911   0.74414   0.00000  Uiso   1.00
O823   O     0.87203   0.42859   0.75367   0.00000  Uiso   1.00
O824   O     0.80758   0.49759   0.67207   0.00000  Uiso   1.00
O825   O     0.90819   0.50707   0.68161   0.00000  Uiso   1.00
C826   C     0.99910   0.45744   0.68972   0.00000  Uiso   1.00
C827   C     0.69114   0.40768   0.67374   0.00000  Uiso   1.00
H828   H     0.74102   0.41609   0.65952   0.00000  Uiso   1.00
H829   H     0.67936   0.38122   0.70549   0.00000  Uiso   1.00
H830   H     0.66934   0.38581   0.64170   0.00000  Uiso   1.00
H831   H     0.95053   0.44193   0.69345   0.00000  Uiso   1.00
H832   H     0.67914   0.48468   0.65946   0.00000  Uiso   1.00
C833   C     0.71768   0.49688   0.56294   0.00000  Uiso   1.00
C834   C     0.73607   0.55468   0.58301   0.00000  Uiso   1.00
H835   H     0.78448   0.56610   0.58831   0.00000  Uiso   1.00
H836   H     0.72884   0.58144   0.55641   0.00000  Uiso   1.00
H837   H     0.70857   0.56140   0.62094   0.00000  Uiso   1.00
H838   H     0.66675   0.48636   0.56831   0.00000  Uiso   1.00
H839   H     0.72990   0.46988   0.58590   0.00000  Uiso   1.00
F840   F     0.91028   0.35183   0.76662   0.00000  Uiso   1.00
C841   C     0.18156   0.93319   0.75217   0.00000  Uiso   1.00
C842   C     0.14179   0.83986   0.98781   0.00000  Uiso   1.00
C843   C     0.15753   0.85299   0.93634   0.00000  Uiso   1.00
C844   C     0.18828   0.85324   0.51860   0.00000  Uiso   1.00
C845   C     0.23975   0.89409   0.50469   0.00000  Uiso   1.00
C846   C     0.25122   0.91260   0.95613   0.00000  Uiso   1.00
C847   C     0.21210   0.89072   0.92159   0.00000  Uiso   1.00
C848   C     0.18420   0.82866   0.56367   0.00000  Uiso   1.00
C849   C     0.26382   0.89913   0.58950   0.00000  Uiso   1.00
C850   C     0.11590   0.83104   0.90241   0.00000  Uiso   1.00
C851   C     0.18954   0.98919   0.75495   0.00000  Uiso   1.00
C852   C     0.13432   0.83215   0.84685   0.00000  Uiso   1.00
C853   C     0.14418   0.67732   0.74714   0.00000  Uiso   1.00
C854   C     0.15167   0.73341   0.74852   0.00000  Uiso   1.00
C855   C     0.19964   0.83845   0.65349   0.00000  Uiso   1.00
C856   C     0.27697   0.91736   0.54065   0.00000  Uiso   1.00
C857   C     0.21894   0.85338   0.60067   0.00000  Uiso   1.00
C858   C     0.05626   0.80475   0.92181   0.00000  Uiso   1.00
C859   C     0.03705   0.80195   0.97384   0.00000  Uiso   1.00
C860   C     0.07840   0.82114   0.50760   0.00000  Uiso   1.00
Cu861  Cu    0.10710   0.82772   0.74436   0.00000  Uiso   1.00
Cu862  Cu    0.22623   0.83895   0.75565   0.00000  Uiso   1.00
H863   H     0.28779   0.92127   0.61882   0.00000  Uiso   1.00
H864   H     0.10082   0.98661   0.73893   0.00000  Uiso   1.00
H865   H     0.00103   0.86923   0.79388   0.00000  Uiso   1.00
H866   H     0.29067   0.94375   0.94472   0.00000  Uiso   1.00
H867   H     0.31382   0.95134   0.53193   0.00000  Uiso   1.00
H868   H     0.15256   0.79161   0.57123   0.00000  Uiso   1.00
H869   H     0.02348   0.78796   0.89680   0.00000  Uiso   1.00
H870   H     0.32236   0.78586   0.98784   0.00000  Uiso   1.00
H871   H     0.22273   0.90709   0.88480   0.00000  Uiso   1.00
N872   N     0.31574   0.84741   0.76416   0.00000  Uiso   1.00
N873   N     0.01759   0.81926   0.73584   0.00000  Uiso   1.00
O874   O     0.12797   0.90474   0.74633   0.00000  Uiso   1.00
O875   O     0.22858   0.91422   0.75587   0.00000  Uiso   1.00
O876   O     0.09181   0.82627   0.81840   0.00000  Uiso   1.00
O877   O     0.19242   0.83575   0.82793   0.00000  Uiso   1.00
O878   O     0.10476   0.75245   0.74414   0.00000  Uiso   1.00
O879   O     0.20536   0.76193   0.75367   0.00000  Uiso   1.00
O880   O     0.14092   0.83092   0.67207   0.00000  Uiso   1.00
O881   O     0.24152   0.84040   0.68161   0.00000  Uiso   1.00
C882   C     0.33243   0.79077   0.68972   0.00000  Uiso   1.00
C883   C     0.02448   0.74101   0.67374   0.00000  Uiso   1.00
H884   H     0.07435   0.74942   0.65952   0.00000  Uiso   1.00
H885   H     0.01270   0.71455   0.70549   0.00000  Uiso   1.00
H886   H     0.00267   0.71914   0.64170   0.00000  Uiso   1.00
H887   H     0.28386   0.77526   0.69345   0.00000  Uiso   1.00
H888   H     0.01247   0.81802   0.65946   0.00000  Uiso   1.00
C889   C     0.05102   0.83022   0.56294   0.00000  Uiso   1.00
C890   C     0.06941   0.88802   0.58301   0.00000  Uiso   1.00
H891   H     0.11781   0.89943   0.58831   0.00000  Uiso   1.00
H892   H     0.06217   0.91478   0.55641   0.00000  Uiso   1.00
H893   H     0.04190   0.89473   0.62094   0.00000  Uiso   1.00
H894   H     0.00008   0.81969   0.56831   0.00000  Uiso   1.00
H895   H     0.06323   0.80322   0.58590   0.00000  Uiso   1.00
F896   F     0.24361   0.68516   0.76662   0.00000  Uiso   1.00
C897   C     0.51489   0.93319   0.75217   0.00000  Uiso   1.00
C898   C     0.47513   0.83986   0.98781   0.00000  Uiso   1.00
C899   C     0.49087   0.85299   0.93634   0.00000  Uiso   1.00
C900   C     0.52162   0.85324   0.51860   0.00000  Uiso   1.00
C901   C     0.57308   0.89409   0.50469   0.00000  Uiso   1.00
C902   C     0.58455   0.91260   0.95613   0.00000  Uiso   1.00
C903   C     0.54543   0.89072   0.92159   0.00000  Uiso   1.00
C904   C     0.51754   0.82866   0.56367   0.00000  Uiso   1.00
C905   C     0.59715   0.89913   0.58950   0.00000  Uiso   1.00
C906   C     0.44923   0.83104   0.90241   0.00000  Uiso   1.00
C907   C     0.52288   0.98919   0.75495   0.00000  Uiso   1.00
C908   C     0.46765   0.83215   0.84685   0.00000  Uiso   1.00
C909   C     0.47752   0.67732   0.74714   0.00000  Uiso   1.00
C910   C     0.48500   0.73341   0.74852   0.00000  Uiso   1.00
C911   C     0.53297   0.83845   0.65349   0.00000  Uiso   1.00
C912   C     0.61030   0.91736   0.54065   0.00000  Uiso   1.00
C913   C     0.55227   0.85338   0.60067   0.00000  Uiso   1.00
C914   C     0.38960   0.80475   0.92181   0.00000  Uiso   1.00
C915   C     0.37038   0.80195   0.97384   0.00000  Uiso   1.00
C916   C     0.41173   0.82114   0.50760   0.00000  Uiso   1.00
Cu917  Cu    0.44043   0.82772   0.74436   0.00000  Uiso   1.00
Cu918  Cu    0.55957   0.83895   0.75565   0.00000  Uiso   1.00
H919   H     0.62113   0.92127   0.61882   0.00000  Uiso   1.00
H920   H     0.43416   0.98661   0.73893   0.00000  Uiso   1.00
H921   H     0.33436   0.86923   0.79388   0.00000  Uiso   1.00
H922   H     0.62400   0.94375   0.94472   0.00000  Uiso   1.00
H923   H     0.64715   0.95134   0.53193   0.00000  Uiso   1.00
H924   H     0.48589   0.79161   0.57123   0.00000  Uiso   1.00
H925   H     0.35681   0.78796   0.89680   0.00000  Uiso   1.00
H926   H     0.65570   0.78586   0.98784   0.00000  Uiso   1.00
H927   H     0.55606   0.90709   0.88480   0.00000  Uiso   1.00
N928   N     0.64908   0.84741   0.76416   0.00000  Uiso   1.00
N929   N     0.35092   0.81926   0.73584   0.00000  Uiso   1.00
O930   O     0.46131   0.90474   0.74633   0.00000  Uiso   1.00
O931   O     0.56191   0.91422   0.75587   0.00000  Uiso   1.00
O932   O     0.42515   0.82627   0.81840   0.00000  Uiso   1.00
O933   O     0.52575   0.83575   0.82793   0.00000  Uiso   1.00
O934   O     0.43809   0.75245   0.74414   0.00000  Uiso   1.00
O935   O     0.53869   0.76193   0.75367   0.00000  Uiso   1.00
O936   O     0.47425   0.83092   0.67207   0.00000  Uiso   1.00
O937   O     0.57485   0.84040   0.68161   0.00000  Uiso   1.00
C938   C     0.66577   0.79077   0.68972   0.00000  Uiso   1.00
C939   C     0.35781   0.74101   0.67374   0.00000  Uiso   1.00
H940   H     0.40768   0.74942   0.65952   0.00000  Uiso   1.00
H941   H     0.34603   0.71455   0.70549   0.00000  Uiso   1.00
H942   H     0.33601   0.71914   0.64170   0.00000  Uiso   1.00
H943   H     0.61720   0.77526   0.69345   0.00000  Uiso   1.00
H944   H     0.34580   0.81802   0.65946   0.00000  Uiso   1.00
C945   C     0.38435   0.83022   0.56294   0.00000  Uiso   1.00
C946   C     0.40274   0.88802   0.58301   0.00000  Uiso   1.00
H947   H     0.45115   0.89943   0.58831   0.00000  Uiso   1.00
H948   H     0.39550   0.91478   0.55641   0.00000  Uiso   1.00
H949   H     0.37523   0.89473   0.62094   0.00000  Uiso   1.00
H950   H     0.33341   0.81969   0.56831   0.00000  Uiso   1.00
H951   H     0.39657   0.80322   0.58590   0.00000  Uiso   1.00
F952   F     0.57694   0.68516   0.76662   0.00000  Uiso   1.00
C953   C     0.84823   0.93319   0.75217   0.00000  Uiso   1.00
C954   C     0.80846   0.83986   0.98781   0.00000  Uiso   1.00
C955   C     0.82420   0.85299   0.93634   0.00000  Uiso   1.00
C956   C     0.85495   0.85324   0.51860   0.00000  Uiso   1.00
C957   C     0.90642   0.89409   0.50469   0.00000  Uiso   1.00
C958   C     0.91788   0.91260   0.95613   0.00000  Uiso   1.00
C959   C     0.87877   0.89072   0.92159   0.00000  Uiso   1.00
C960   C     0.85087   0.82866   0.56367   0.00000  Uiso   1.00
C961   C     0.93049   0.89913   0.58950   0.00000  Uiso   1.00
C962   C     0.78256   0.83104   0.90241   0.00000  Uiso   1.00
C963   C     0.85621   0.98919   0.75495   0.00000  Uiso   1.00
C964   C     0.80098   0.83215   0.84685   0.00000  Uiso   1.00
C965   C     0.81085   0.67732   0.74714   0.00000  Uiso   1.00
C966   C     0.81834   0.73341   0.74852   0.00000  Uiso   1.00
C967   C     0.86631   0.83845   0.65349   0.00000  Uiso   1.00
C968   C     0.94363   0.91736   0.54065   0.00000  Uiso   1.00
C969   C     0.88560   0.85338   0.60067   0.00000  Uiso   1.00
C970   C     0.72293   0.80475   0.92181   0.00000  Uiso   1.00
C971   C     0.70372   0.80195   0.97384   0.00000  Uiso   1.00
C972   C     0.74506   0.82114   0.50760   0.00000  Uiso   1.00
Cu973  Cu    0.77377   0.82772   0.74436   0.00000  Uiso   1.00
Cu974  Cu    0.89290   0.83895   0.75565   0.00000  Uiso   1.00
H975   H     0.95446   0.92127   0.61882   0.00000  Uiso   1.00
H976   H     0.76749   0.98661   0.73893   0.00000  Uiso   1.00
H977   H     0.66769   0.86923   0.79388   0.00000  Uiso   1.00
H978   H     0.95733   0.94375   0.94472   0.00000  Uiso   1.00
H979   H     0.98048   0.95134   0.53193   0.00000  Uiso   1.00
H980   H     0.81922   0.79161   0.57123   0.00000  Uiso   1.00
H981   H     0.69014   0.78796   0.89680   0.00000  Uiso   1.00
H982   H     0.98903   0.78586   0.98784   0.00000  Uiso   1.00
H983   H     0.88940   0.90709   0.88480   0.00000  Uiso   1.00
N984   N     0.98241   0.84741   0.76416   0.00000  Uiso   1.00
N985   N     0.68426   0.81926   0.73584   0.00000  Uiso   1.00
O986   O     0.79464   0.90474   0.74633   0.00000  Uiso   1.00
O987   O     0.89524   0.91422   0.75587   0.00000  Uiso   1.00
O988   O     0.75848   0.82627   0.81840   0.00000  Uiso   1.00
O989   O     0.85908   0.83575   0.82793   0.00000  Uiso   1.00
O990   O     0.77142   0.75245   0.74414   0.00000  Uiso   1.00
O991   O     0.87203   0.76193   0.75367   0.00000  Uiso   1.00
O992   O     0.80758   0.83092   0.67207   0.00000  Uiso   1.00
O993   O     0.90819   0.84040   0.68161   0.00000  Uiso   1.00
C994   C     0.99910   0.79077   0.68972   0.00000  Uiso   1.00
C995   C     0.69114   0.74101   0.67374   0.00000  Uiso   1.00
H996   H     0.74102   0.74942   0.65952   0.00000  Uiso   1.00
H997   H     0.67936   0.71455   0.70549   0.00000  Uiso   1.00
H998   H     0.66934   0.71914   0.64170   0.00000  Uiso   1.00
H999   H     0.95053   0.77526   0.69345   0.00000  Uiso   1.00
H1000  H     0.67914   0.81802   0.65946   0.00000  Uiso   1.00
C1001  C     0.71768   0.83022   0.56294   0.00000  Uiso   1.00
C1002  C     0.73607   0.88802   0.58301   0.00000  Uiso   1.00
H1003  H     0.78448   0.89943   0.58831   0.00000  Uiso   1.00
H1004  H     0.72884   0.91478   0.55641   0.00000  Uiso   1.00
H1005  H     0.70857   0.89473   0.62094   0.00000  Uiso   1.00
H1006  H     0.66675   0.81969   0.56831   0.00000  Uiso   1.00
H1007  H     0.72990   0.80322   0.58590   0.00000  Uiso   1.00
F1008  F     0.91028   0.68516   0.76662   0.00000  Uiso   1.00
loop_
_geom_bond_atom_site_label_1
_geom_bond_atom_site_label_2
_geom_bond_distance
_geom_bond_site_symmetry_2
_ccdc_geom_bond_type
C1     C11     1.429   .     S
C1     O34     1.301   .     A
C1     O35     1.299   .     A
C2     C3      1.417   .     A
C2     C508    1.421   .     S
C2     C524    1.427   .     S
C3     C7      1.415   .     A
C3     C10     1.420   .     A
C4     C8      1.407   .     A
C4     C5      1.412   .     A
C4     C506    1.421   1_554 S
C5     C16     1.401   .     A
C5     C510    1.395   1_554 S
C6     H26     1.084   .     S
C6     C7      1.393   .     A
C6     C509    1.395   .     S
C7     H31     1.080   .     S
C8     H28     1.079   .     S
C8     C17     1.397   .     A
C9     C16     1.397   .     A
C9     C17     1.401   .     A
C9     H23     1.082   .     S
C10    C18     1.400   .     A
C10    C12     1.470   .     S
C11    C181    1.338   .     S
C11    F224    1.362   .     S
C12    O36     1.313   .     A
C12    O37     1.306   .     A
C13    C14     1.434   .     S
C13    C347    1.338   1_545 S
C13    H360    1.087   1_545 S
C14    O38     1.303   .     A
C14    O39     1.299   .     A
C15    O41     1.310   .     A
C15    O40     1.309   .     A
C15    C17     1.467   .     S
C16    H27     1.084   .     S
C18    H29     1.083   .     S
C18    C19     1.384   .     A
C19    C524    1.401   .     S
C19    H142    1.084   1_455 S
C20    C49     1.511   .     S
C20    C523    1.401   1_554 S
C20    C506    1.427   1_554 S
Cu21   N33     2.047   .     S
Cu21   O36     1.952   .     S
Cu21   O40     1.947   .     S
Cu21   O38     1.956   .     S
Cu21   O34     1.957   .     S
Cu21   Cu22    2.724   .     S
Cu22   O37     1.947   .     S
Cu22   O35     1.956   .     S
Cu22   N32     2.047   .     S
Cu22   O39     1.957   .     S
Cu22   O41     1.952   .     S
H24    C181    1.087   .     S
H25    N144    1.029   1_455 S
H30    C75     1.084   .     S
N32    H81     1.029   .     S
N32    N89     1.293   .     S
N33    N144    1.293   1_455 S
N33    C154    1.455   1_455 S
C42    H47     1.074   .     S
C42    N89     1.455   .     S
C42    C99     1.528   .     S
C42    H104    1.091   .     S
C43    H44     1.102   .     S
C43    H45     1.109   .     S
C43    H46     1.112   .     S
C43    C154    1.528   1_455 S
H48    C154    1.091   1_455 S
C49    H55     1.096   .     S
C49    C50     1.539   .     S
C49    H54     1.111   .     S
C50    H52     1.109   .     S
C50    H53     1.106   .     S
C50    H51     1.103   .     S
F56    C347    1.362   1_545 S
C57    C67     1.429   .     S
C57    O90     1.301   .     A
C57    O91     1.299   .     A
C58    C59     1.417   .     A
C58    C564    1.421   .     S
C58    C580    1.427   .     S
C59    C63     1.415   .     A
C59    C66     1.420   .     A
C60    C64     1.407   .     A
C60    C61     1.412   .     A
C60    C562    1.421   1_554 S
C61    C72     1.401   .     A
C61    C566    1.395   1_554 S
C62    H82     1.084   .     S
C62    C63     1.393   .     A
C62    C565    1.395   .     S
C63    H87     1.080   .     S
C64    H84     1.079   .     S
C64    C73     1.397   .     A
C65    C72     1.397   .     A
C65    C73     1.401   .     A
C65    H79     1.082   .     S
C66    C74     1.400   .     A
C66    C68     1.470   .     S
C67    C237    1.338   .     S
C67    F280    1.362   .     S
C68    O92     1.313   .     A
C68    O93     1.306   .     A
C69    C70     1.434   .     S
C69    C403    1.338   1_545 S
C69    H416    1.087   1_545 S
C70    O94     1.303   .     A
C70    O95     1.299   .     A
C71    O97     1.310   .     A
C71    O96     1.309   .     A
C71    C73     1.467   .     S
C72    H83     1.084   .     S
C74    H85     1.083   .     S
C74    C75     1.384   .     A
C75    C580    1.401   .     S
C76    C105    1.511   .     S
C76    C579    1.401   1_554 S
C76    C562    1.427   1_554 S
Cu77   N89     2.047   .     S
Cu77   O92     1.952   .     S
Cu77   O96     1.947   .     S
Cu77   O94     1.956   .     S
Cu77   O90     1.957   .     S
Cu77   Cu78    2.724   .     S
Cu78   O93     1.947   .     S
Cu78   O91     1.956   .     S
Cu78   N88     2.047   .     S
Cu78   O95     1.957   .     S
Cu78   O97     1.952   .     S
H80    C237    1.087   .     S
H86    C131    1.084   .     S
N88    H137    1.029   .     S
N88    N145    1.293   .     S
C98    H103    1.074   .     S
C98    N145    1.455   .     S
C98    C155    1.528   .     S
C98    H160    1.091   .     S
C99    H100    1.102   .     S
C99    H101    1.109   .     S
C99    H102    1.112   .     S
C105   H111    1.096   .     S
C105   C106    1.539   .     S
C105   H110    1.111   .     S
C106   H108    1.109   .     S
C106   H109    1.106   .     S
C106   H107    1.103   .     S
F112   C403    1.362   1_545 S
C113   C123    1.429   .     S
C113   O146    1.301   .     A
C113   O147    1.299   .     A
C114   C115    1.417   .     A
C114   C620    1.421   .     S
C114   C636    1.427   .     S
C115   C119    1.415   .     A
C115   C122    1.420   .     A
C116   C120    1.407   .     A
C116   C117    1.412   .     A
C116   C618    1.421   1_554 S
C117   C128    1.401   .     A
C117   C622    1.395   1_554 S
C118   H138    1.084   .     S
C118   C119    1.393   .     A
C118   C621    1.395   .     S
C119   H143    1.080   .     S
C120   H140    1.079   .     S
C120   C129    1.397   .     A
C121   C128    1.397   .     A
C121   C129    1.401   .     A
C121   H135    1.082   .     S
C122   C130    1.400   .     A
C122   C124    1.470   .     S
C123   C293    1.338   .     S
C123   F336    1.362   .     S
C124   O148    1.313   .     A
C124   O149    1.306   .     A
C125   C126    1.434   .     S
C125   C459    1.338   1_545 S
C125   H472    1.087   1_545 S
C126   O150    1.303   .     A
C126   O151    1.299   .     A
C127   O153    1.310   .     A
C127   O152    1.309   .     A
C127   C129    1.467   .     S
C128   H139    1.084   .     S
C130   H141    1.083   .     S
C130   C131    1.384   .     A
C131   C636    1.401   .     S
C132   C161    1.511   .     S
C132   C635    1.401   1_554 S
C132   C618    1.427   1_554 S
Cu133  N145    2.047   .     S
Cu133  O148    1.952   .     S
Cu133  O152    1.947   .     S
Cu133  O150    1.956   .     S
Cu133  O146    1.957   .     S
Cu133  Cu134   2.724   .     S
Cu134  O149    1.947   .     S
Cu134  O147    1.956   .     S
Cu134  N144    2.047   .     S
Cu134  O151    1.957   .     S
Cu134  O153    1.952   .     S
H136   C293    1.087   .     S
H142   C19     1.084   1_655 S
N144   H25     1.029   1_655 S
N144   N33     1.293   1_655 S
C154   H159    1.074   .     S
C154   N33     1.455   1_655 S
C154   C43     1.528   1_655 S
C154   H48     1.091   1_655 S
C155   H156    1.102   .     S
C155   H157    1.109   .     S
C155   H158    1.112   .     S
C161   H167    1.096   .     S
C161   C162    1.539   .     S
C161   H166    1.111   .     S
C162   H164    1.109   .     S
C162   H165    1.106   .     S
C162   H163    1.103   .     S
F168   C459    1.362   1_545 S
C169   C179    1.429   .     S
C169   O202    1.301   .     A
C169   O203    1.299   .     A
C170   C171    1.417   .     A
C170   C676    1.421   .     S
C170   C692    1.427   .     S
C171   C175    1.415   .     A
C171   C178    1.420   .     A
C172   C176    1.407   .     A
C172   C173    1.412   .     A
C172   C674    1.421   1_554 S
C173   C184    1.401   .     A
C173   C678    1.395   1_554 S
C174   H194    1.084   .     S
C174   C175    1.393   .     A
C174   C677    1.395   .     S
C175   H199    1.080   .     S
C176   H196    1.079   .     S
C176   C185    1.397   .     A
C177   C184    1.397   .     A
C177   C185    1.401   .     A
C177   H191    1.082   .     S
C178   C186    1.400   .     A
C178   C180    1.470   .     S
C179   C349    1.338   .     S
C179   F392    1.362   .     S
C180   O204    1.313   .     A
C180   O205    1.306   .     A
C181   C182    1.434   .     S
C182   O206    1.303   .     A
C182   O207    1.299   .     A
C183   O209    1.310   .     A
C183   O208    1.309   .     A
C183   C185    1.467   .     S
C184   H195    1.084   .     S
C186   H197    1.083   .     S
C186   C187    1.384   .     A
C187   C692    1.401   .     S
C187   H310    1.084   1_455 S
C188   C217    1.511   .     S
C188   C691    1.401   1_554 S
C188   C674    1.427   1_554 S
Cu189  N201    2.047   .     S
Cu189  O204    1.952   .     S
Cu189  O208    1.947   .     S
Cu189  O206    1.956   .     S
Cu189  O202    1.957   .     S
Cu189  Cu190   2.724   .     S
Cu190  O205    1.947   .     S
Cu190  O203    1.956   .     S
Cu190  N200    2.047   .     S
Cu190  O207    1.957   .     S
Cu190  O209    1.952   .     S
H192   C349    1.087   .     S
H193   N312    1.029   1_455 S
H198   C243    1.084   .     S
N200   H249    1.029   .     S
N200   N257    1.293   .     S
N201   N312    1.293   1_455 S
N201   C322    1.455   1_455 S
C210   H215    1.074   .     S
C210   N257    1.455   .     S
C210   C267    1.528   .     S
C210   H272    1.091   .     S
C211   H212    1.102   .     S
C211   H213    1.109   .     S
C211   H214    1.112   .     S
C211   C322    1.528   1_455 S
H216   C322    1.091   1_455 S
C217   H223    1.096   .     S
C217   C218    1.539   .     S
C217   H222    1.111   .     S
C218   H220    1.109   .     S
C218   H221    1.106   .     S
C218   H219    1.103   .     S
C225   C235    1.429   .     S
C225   O258    1.301   .     A
C225   O259    1.299   .     A
C226   C227    1.417   .     A
C226   C732    1.421   .     S
C226   C748    1.427   .     S
C227   C231    1.415   .     A
C227   C234    1.420   .     A
C228   C232    1.407   .     A
C228   C229    1.412   .     A
C228   C730    1.421   1_554 S
C229   C240    1.401   .     A
C229   C734    1.395   1_554 S
C230   H250    1.084   .     S
C230   C231    1.393   .     A
C230   C733    1.395   .     S
C231   H255    1.080   .     S
C232   H252    1.079   .     S
C232   C241    1.397   .     A
C233   C240    1.397   .     A
C233   C241    1.401   .     A
C233   H247    1.082   .     S
C234   C242    1.400   .     A
C234   C236    1.470   .     S
C235   C405    1.338   .     S
C235   F448    1.362   .     S
C236   O260    1.313   .     A
C236   O261    1.306   .     A
C237   C238    1.434   .     S
C238   O262    1.303   .     A
C238   O263    1.299   .     A
C239   O265    1.310   .     A
C239   O264    1.309   .     A
C239   C241    1.467   .     S
C240   H251    1.084   .     S
C242   H253    1.083   .     S
C242   C243    1.384   .     A
C243   C748    1.401   .     S
C244   C273    1.511   .     S
C244   C747    1.401   1_554 S
C244   C730    1.427   1_554 S
Cu245  N257    2.047   .     S
Cu245  O260    1.952   .     S
Cu245  O264    1.947   .     S
Cu245  O262    1.956   .     S
Cu245  O258    1.957   .     S
Cu245  Cu246   2.724   .     S
Cu246  O261    1.947   .     S
Cu246  O259    1.956   .     S
Cu246  N256    2.047   .     S
Cu246  O263    1.957   .     S
Cu246  O265    1.952   .     S
H248   C405    1.087   .     S
H254   C299    1.084   .     S
N256   H305    1.029   .     S
N256   N313    1.293   .     S
C266   H271    1.074   .     S
C266   N313    1.455   .     S
C266   C323    1.528   .     S
C266   H328    1.091   .     S
C267   H268    1.102   .     S
C267   H269    1.109   .     S
C267   H270    1.112   .     S
C273   H279    1.096   .     S
C273   C274    1.539   .     S
C273   H278    1.111   .     S
C274   H276    1.109   .     S
C274   H277    1.106   .     S
C274   H275    1.103   .     S
C281   C291    1.429   .     S
C281   O314    1.301   .     A
C281   O315    1.299   .     A
C282   C283    1.417   .     A
C282   C788    1.421   .     S
C282   C804    1.427   .     S
C283   C287    1.415   .     A
C283   C290    1.420   .     A
C284   C288    1.407   .     A
C284   C285    1.412   .     A
C284   C786    1.421   1_554 S
C285   C296    1.401   .     A
C285   C790    1.395   1_554 S
C286   H306    1.084   .     S
C286   C287    1.393   .     A
C286   C789    1.395   .     S
C287   H311    1.080   .     S
C288   H308    1.079   .     S
C288   C297    1.397   .     A
C289   C296    1.397   .     A
C289   C297    1.401   .     A
C289   H303    1.082   .     S
C290   C298    1.400   .     A
C290   C292    1.470   .     S
C291   C461    1.338   .     S
C291   F504    1.362   .     S
C292   O316    1.313   .     A
C292   O317    1.306   .     A
C293   C294    1.434   .     S
C294   O318    1.303   .     A
C294   O319    1.299   .     A
C295   O321    1.310   .     A
C295   O320    1.309   .     A
C295   C297    1.467   .     S
C296   H307    1.084   .     S
C298   H309    1.083   .     S
C298   C299    1.384   .     A
C299   C804    1.401   .     S
C300   C329    1.511   .     S
C300   C803    1.401   1_554 S
C300   C786    1.427   1_554 S
Cu301  N313    2.047   .     S
Cu301  O316    1.952   .     S
Cu301  O320    1.947   .     S
Cu301  O318    1.956   .     S
Cu301  O314    1.957   .     S
Cu301  Cu302   2.724   .     S
Cu302  O317    1.947   .     S
Cu302  O315    1.956   .     S
Cu302  N312    2.047   .     S
Cu302  O319    1.957   .     S
Cu302  O321    1.952   .     S
H304   C461    1.087   .     S
H310   C187    1.084   1_655 S
N312   H193    1.029   1_655 S
N312   N201    1.293   1_655 S
C322   H327    1.074   .     S
C322   N201    1.455   1_655 S
C322   C211    1.528   1_655 S
C322   H216    1.091   1_655 S
C323   H324    1.102   .     S
C323   H325    1.109   .     S
C323   H326    1.112   .     S
C329   H335    1.096   .     S
C329   C330    1.539   .     S
C329   H334    1.111   .     S
C330   H332    1.109   .     S
C330   H333    1.106   .     S
C330   H331    1.103   .     S
C337   C347    1.429   .     S
C337   O370    1.301   .     A
C337   O371    1.299   .     A
C338   C339    1.417   .     A
C338   C844    1.421   .     S
C338   C860    1.427   .     S
C339   C343    1.415   .     A
C339   C346    1.420   .     A
C340   C344    1.407   .     A
C340   C341    1.412   .     A
C340   C842    1.421   1_554 S
C341   C352    1.401   .     A
C341   C846    1.395   1_554 S
C342   H362    1.084   .     S
C342   C343    1.393   .     A
C342   C845    1.395   .     S
C343   H367    1.080   .     S
C344   H364    1.079   .     S
C344   C353    1.397   .     A
C345   C352    1.397   .     A
C345   C353    1.401   .     A
C345   H359    1.082   .     S
C346   C354    1.400   .     A
C346   C348    1.470   .     S
C347   C13     1.338   1_565 S
C347   F56     1.362   1_565 S
C348   O372    1.313   .     A
C348   O373    1.306   .     A
C349   C350    1.434   .     S
C350   O374    1.303   .     A
C350   O375    1.299   .     A
C351   O377    1.310   .     A
C351   O376    1.309   .     A
C351   C353    1.467   .     S
C352   H363    1.084   .     S
C354   H365    1.083   .     S
C354   C355    1.384   .     A
C355   C860    1.401   .     S
C355   H478    1.084   1_455 S
C356   C385    1.511   .     S
C356   C859    1.401   1_554 S
C356   C842    1.427   1_554 S
Cu357  N369    2.047   .     S
Cu357  O372    1.952   .     S
Cu357  O376    1.947   .     S
Cu357  O374    1.956   .     S
Cu357  O370    1.957   .     S
Cu357  Cu358   2.724   .     S
Cu358  O373    1.947   .     S
Cu358  O371    1.956   .     S
Cu358  N368    2.047   .     S
Cu358  O375    1.957   .     S
Cu358  O377    1.952   .     S
H360   C13     1.087   1_565 S
H361   N480    1.029   1_455 S
H366   C411    1.084   .     S
N368   H417    1.029   .     S
N368   N425    1.293   .     S
N369   N480    1.293   1_455 S
N369   C490    1.455   1_455 S
C378   H383    1.074   .     S
C378   N425    1.455   .     S
C378   C435    1.528   .     S
C378   H440    1.091   .     S
C379   H380    1.102   .     S
C379   H381    1.109   .     S
C379   H382    1.112   .     S
C379   C490    1.528   1_455 S
H384   C490    1.091   1_455 S
C385   H391    1.096   .     S
C385   C386    1.539   .     S
C385   H390    1.111   .     S
C386   H388    1.109   .     S
C386   H389    1.106   .     S
C386   H387    1.103   .     S
C393   C403    1.429   .     S
C393   O426    1.301   .     A
C393   O427    1.299   .     A
C394   C395    1.417   .     A
C394   C900    1.421   .     S
C394   C916    1.427   .     S
C395   C399    1.415   .     A
C395   C402    1.420   .     A
C396   C400    1.407   .     A
C396   C397    1.412   .     A
C396   C898    1.421   1_554 S
C397   C408    1.401   .     A
C397   C902    1.395   1_554 S
C398   H418    1.084   .     S
C398   C399    1.393   .     A
C398   C901    1.395   .     S
C399   H423    1.080   .     S
C400   H420    1.079   .     S
C400   C409    1.397   .     A
C401   C408    1.397   .     A
C401   C409    1.401   .     A
C401   H415    1.082   .     S
C402   C410    1.400   .     A
C402   C404    1.470   .     S
C403   C69     1.338   1_565 S
C403   F112    1.362   1_565 S
C404   O428    1.313   .     A
C404   O429    1.306   .     A
C405   C406    1.434   .     S
C406   O430    1.303   .     A
C406   O431    1.299   .     A
C407   O433    1.310   .     A
C407   O432    1.309   .     A
C407   C409    1.467   .     S
C408   H419    1.084   .     S
C410   H421    1.083   .     S
C410   C411    1.384   .     A
C411   C916    1.401   .     S
C412   C441    1.511   .     S
C412   C915    1.401   1_554 S
C412   C898    1.427   1_554 S
Cu413  N425    2.047   .     S
Cu413  O428    1.952   .     S
Cu413  O432    1.947   .     S
Cu413  O430    1.956   .     S
Cu413  O426    1.957   .     S
Cu413  Cu414   2.724   .     S
Cu414  O429    1.947   .     S
Cu414  O427    1.956   .     S
Cu414  N424    2.047   .     S
Cu414  O431    1.957   .     S
Cu414  O433    1.952   .     S
H416   C69     1.087   1_565 S
H422   C467    1.084   .     S
N424   H473    1.029   .     S
N424   N481    1.293   .     S
C434   H439    1.074   .     S
C434   N481    1.455   .     S
C434   C491    1.528   .     S
C434   H496    1.091   .     S
C435   H436    1.102   .     S
C435   H437    1.109   .     S
C435   H438    1.112   .     S
C441   H447    1.096   .     S
C441   C442    1.539   .     S
C441   H446    1.111   .     S
C442   H444    1.109   .     S
C442   H445    1.106   .     S
C442   H443    1.103   .     S
C449   C459    1.429   .     S
C449   O482    1.301   .     A
C449   O483    1.299   .     A
C450   C451    1.417   .     A
C450   C956    1.421   .     S
C450   C972    1.427   .     S
C451   C455    1.415   .     A
C451   C458    1.420   .     A
C452   C456    1.407   .     A
C452   C453    1.412   .     A
C452   C954    1.421   1_554 S
C453   C464    1.401   .     A
C453   C958    1.395   1_554 S
C454   H474    1.084   .     S
C454   C455    1.393   .     A
C454   C957    1.395   .     S
C455   H479    1.080   .     S
C456   H476    1.079   .     S
C456   C465    1.397   .     A
C457   C464    1.397   .     A
C457   C465    1.401   .     A
C457   H471    1.082   .     S
C458   C466    1.400   .     A
C458   C460    1.470   .     S
C459   C125    1.338   1_565 S
C459   F168    1.362   1_565 S
C460   O484    1.313   .     A
C460   O485    1.306   .     A
C461   C462    1.434   .     S
C462   O486    1.303   .     A
C462   O487    1.299   .     A
C463   O489    1.310   .     A
C463   O488    1.309   .     A
C463   C465    1.467   .     S
C464   H475    1.084   .     S
C466   H477    1.083   .     S
C466   C467    1.384   .     A
C467   C972    1.401   .     S
C468   C497    1.511   .     S
C468   C971    1.401   1_554 S
C468   C954    1.427   1_554 S
Cu469  N481    2.047   .     S
Cu469  O484    1.952   .     S
Cu469  O488    1.947   .     S
Cu469  O486    1.956   .     S
Cu469  O482    1.957   .     S
Cu469  Cu470   2.724   .     S
Cu470  O485    1.947   .     S
Cu470  O483    1.956   .     S
Cu470  N480    2.047   .     S
Cu470  O487    1.957   .     S
Cu470  O489    1.952   .     S
H472   C125    1.087   1_565 S
H478   C355    1.084   1_655 S
N480   H361    1.029   1_655 S
N480   N369    1.293   1_655 S
C490   H495    1.074   .     S
C490   N369    1.455   1_655 S
C490   C379    1.528   1_655 S
C490   H384    1.091   1_655 S
C491   H492    1.102   .     S
C491   H493    1.109   .     S
C491   H494    1.112   .     S
C497   H503    1.096   .     S
C497   C498    1.539   .     S
C497   H502    1.111   .     S
C498   H500    1.109   .     S
C498   H501    1.106   .     S
C498   H499    1.103   .     S
C505   C515    1.429   .     S
C505   O538    1.301   .     A
C505   O539    1.299   .     A
C506   C507    1.417   .     A
C506   C4      1.421   1_556 S
C506   C20     1.427   1_556 S
C507   C511    1.415   .     A
C507   C514    1.420   .     A
C508   C512    1.407   .     A
C508   C509    1.412   .     A
C509   C520    1.401   .     A
C510   H530    1.084   .     S
C510   C511    1.393   .     A
C510   C5      1.395   1_556 S
C511   H535    1.080   .     S
C512   H532    1.079   .     S
C512   C521    1.397   .     A
C513   C520    1.397   .     A
C513   C521    1.401   .     A
C513   H527    1.082   .     S
C514   C522    1.400   .     A
C514   C516    1.470   .     S
C515   C685    1.338   .     S
C515   F728    1.362   .     S
C516   O540    1.313   .     A
C516   O541    1.306   .     A
C517   C518    1.434   .     S
C517   C851    1.338   1_545 S
C517   H864    1.087   1_545 S
C518   O542    1.303   .     A
C518   O543    1.299   .     A
C519   O545    1.310   .     A
C519   O544    1.309   .     A
C519   C521    1.467   .     S
C520   H531    1.084   .     S
C522   H533    1.083   .     S
C522   C523    1.384   .     A
C523   C20     1.401   1_556 S
C523   H646    1.084   1_455 S
C524   C553    1.511   .     S
Cu525  N537    2.047   .     S
Cu525  O540    1.952   .     S
Cu525  O544    1.947   .     S
Cu525  O542    1.956   .     S
Cu525  O538    1.957   .     S
Cu525  Cu526   2.724   .     S
Cu526  O541    1.947   .     S
Cu526  O539    1.956   .     S
Cu526  N536    2.047   .     S
Cu526  O543    1.957   .     S
Cu526  O545    1.952   .     S
H528   C685    1.087   .     S
H529   N648    1.029   1_455 S
H534   C579    1.084   .     S
N536   H585    1.029   .     S
N536   N593    1.293   .     S
N537   N648    1.293   1_455 S
N537   C658    1.455   1_455 S
C546   H551    1.074   .     S
C546   N593    1.455   .     S
C546   C603    1.528   .     S
C546   H608    1.091   .     S
C547   H548    1.102   .     S
C547   H549    1.109   .     S
C547   H550    1.112   .     S
C547   C658    1.528   1_455 S
H552   C658    1.091   1_455 S
C553   H559    1.096   .     S
C553   C554    1.539   .     S
C553   H558    1.111   .     S
C554   H556    1.109   .     S
C554   H557    1.106   .     S
C554   H555    1.103   .     S
F560   C851    1.362   1_545 S
C561   C571    1.429   .     S
C561   O594    1.301   .     A
C561   O595    1.299   .     A
C562   C563    1.417   .     A
C562   C60     1.421   1_556 S
C562   C76     1.427   1_556 S
C563   C567    1.415   .     A
C563   C570    1.420   .     A
C564   C568    1.407   .     A
C564   C565    1.412   .     A
C565   C576    1.401   .     A
C566   H586    1.084   .     S
C566   C567    1.393   .     A
C566   C61     1.395   1_556 S
C567   H591    1.080   .     S
C568   H588    1.079   .     S
C568   C577    1.397   .     A
C569   C576    1.397   .     A
C569   C577    1.401   .     A
C569   H583    1.082   .     S
C570   C578    1.400   .     A
C570   C572    1.470   .     S
C571   C741    1.338   .     S
C571   F784    1.362   .     S
C572   O596    1.313   .     A
C572   O597    1.306   .     A
C573   C574    1.434   .     S
C573   C907    1.338   1_545 S
C573   H920    1.087   1_545 S
C574   O598    1.303   .     A
C574   O599    1.299   .     A
C575   O601    1.310   .     A
C575   O600    1.309   .     A
C575   C577    1.467   .     S
C576   H587    1.084   .     S
C578   H589    1.083   .     S
C578   C579    1.384   .     A
C579   C76     1.401   1_556 S
C580   C609    1.511   .     S
Cu581  N593    2.047   .     S
Cu581  O596    1.952   .     S
Cu581  O600    1.947   .     S
Cu581  O598    1.956   .     S
Cu581  O594    1.957   .     S
Cu581  Cu582   2.724   .     S
Cu582  O597    1.947   .     S
Cu582  O595    1.956   .     S
Cu582  N592    2.047   .     S
Cu582  O599    1.957   .     S
Cu582  O601    1.952   .     S
H584   C741    1.087   .     S
H590   C635    1.084   .     S
N592   H641    1.029   .     S
N592   N649    1.293   .     S
C602   H607    1.074   .     S
C602   N649    1.455   .     S
C602   C659    1.528   .     S
C602   H664    1.091   .     S
C603   H604    1.102   .     S
C603   H605    1.109   .     S
C603   H606    1.112   .     S
C609   H615    1.096   .     S
C609   C610    1.539   .     S
C609   H614    1.111   .     S
C610   H612    1.109   .     S
C610   H613    1.106   .     S
C610   H611    1.103   .     S
F616   C907    1.362   1_545 S
C617   C627    1.429   .     S
C617   O650    1.301   .     A
C617   O651    1.299   .     A
C618   C619    1.417   .     A
C618   C116    1.421   1_556 S
C618   C132    1.427   1_556 S
C619   C623    1.415   .     A
C619   C626    1.420   .     A
C620   C624    1.407   .     A
C620   C621    1.412   .     A
C621   C632    1.401   .     A
C622   H642    1.084   .     S
C622   C623    1.393   .     A
C622   C117    1.395   1_556 S
C623   H647    1.080   .     S
C624   H644    1.079   .     S
C624   C633    1.397   .     A
C625   C632    1.397   .     A
C625   C633    1.401   .     A
C625   H639    1.082   .     S
C626   C634    1.400   .     A
C626   C628    1.470   .     S
C627   C797    1.338   .     S
C627   F840    1.362   .     S
C628   O652    1.313   .     A
C628   O653    1.306   .     A
C629   C630    1.434   .     S
C629   C963    1.338   1_545 S
C629   H976    1.087   1_545 S
C630   O654    1.303   .     A
C630   O655    1.299   .     A
C631   O657    1.310   .     A
C631   O656    1.309   .     A
C631   C633    1.467   .     S
C632   H643    1.084   .     S
C634   H645    1.083   .     S
C634   C635    1.384   .     A
C635   C132    1.401   1_556 S
C636   C665    1.511   .     S
Cu637  N649    2.047   .     S
Cu637  O652    1.952   .     S
Cu637  O656    1.947   .     S
Cu637  O654    1.956   .     S
Cu637  O650    1.957   .     S
Cu637  Cu638   2.724   .     S
Cu638  O653    1.947   .     S
Cu638  O651    1.956   .     S
Cu638  N648    2.047   .     S
Cu638  O655    1.957   .     S
Cu638  O657    1.952   .     S
H640   C797    1.087   .     S
H646   C523    1.084   1_655 S
N648   H529    1.029   1_655 S
N648   N537    1.293   1_655 S
C658   H663    1.074   .     S
C658   N537    1.455   1_655 S
C658   C547    1.528   1_655 S
C658   H552    1.091   1_655 S
C659   H660    1.102   .     S
C659   H661    1.109   .     S
C659   H662    1.112   .     S
C665   H671    1.096   .     S
C665   C666    1.539   .     S
C665   H670    1.111   .     S
C666   H668    1.109   .     S
C666   H669    1.106   .     S
C666   H667    1.103   .     S
F672   C963    1.362   1_545 S
C673   C683    1.429   .     S
C673   O706    1.301   .     A
C673   O707    1.299   .     A
C674   C675    1.417   .     A
C674   C172    1.421   1_556 S
C674   C188    1.427   1_556 S
C675   C679    1.415   .     A
C675   C682    1.420   .     A
C676   C680    1.407   .     A
C676   C677    1.412   .     A
C677   C688    1.401   .     A
C678   H698    1.084   .     S
C678   C679    1.393   .     A
C678   C173    1.395   1_556 S
C679   H703    1.080   .     S
C680   H700    1.079   .     S
C680   C689    1.397   .     A
C681   C688    1.397   .     A
C681   C689    1.401   .     A
C681   H695    1.082   .     S
C682   C690    1.400   .     A
C682   C684    1.470   .     S
C683   C853    1.338   .     S
C683   F896    1.362   .     S
C684   O708    1.313   .     A
C684   O709    1.306   .     A
C685   C686    1.434   .     S
C686   O710    1.303   .     A
C686   O711    1.299   .     A
C687   O713    1.310   .     A
C687   O712    1.309   .     A
C687   C689    1.467   .     S
C688   H699    1.084   .     S
C690   H701    1.083   .     S
C690   C691    1.384   .     A
C691   C188    1.401   1_556 S
C691   H814    1.084   1_455 S
C692   C721    1.511   .     S
Cu693  N705    2.047   .     S
Cu693  O708    1.952   .     S
Cu693  O712    1.947   .     S
Cu693  O710    1.956   .     S
Cu693  O706    1.957   .     S
Cu693  Cu694   2.724   .     S
Cu694  O709    1.947   .     S
Cu694  O707    1.956   .     S
Cu694  N704    2.047   .     S
Cu694  O711    1.957   .     S
Cu694  O713    1.952   .     S
H696   C853    1.087   .     S
H697   N816    1.029   1_455 S
H702   C747    1.084   .     S
N704   H753    1.029   .     S
N704   N761    1.293   .     S
N705   N816    1.293   1_455 S
N705   C826    1.455   1_455 S
C714   H719    1.074   .     S
C714   N761    1.455   .     S
C714   C771    1.528   .     S
C714   H776    1.091   .     S
C715   H716    1.102   .     S
C715   H717    1.109   .     S
C715   H718    1.112   .     S
C715   C826    1.528   1_455 S
H720   C826    1.091   1_455 S
C721   H727    1.096   .     S
C721   C722    1.539   .     S
C721   H726    1.111   .     S
C722   H724    1.109   .     S
C722   H725    1.106   .     S
C722   H723    1.103   .     S
C729   C739    1.429   .     S
C729   O762    1.301   .     A
C729   O763    1.299   .     A
C730   C731    1.417   .     A
C730   C228    1.421   1_556 S
C730   C244    1.427   1_556 S
C731   C735    1.415   .     A
C731   C738    1.420   .     A
C732   C736    1.407   .     A
C732   C733    1.412   .     A
C733   C744    1.401   .     A
C734   H754    1.084   .     S
C734   C735    1.393   .     A
C734   C229    1.395   1_556 S
C735   H759    1.080   .     S
C736   H756    1.079   .     S
C736   C745    1.397   .     A
C737   C744    1.397   .     A
C737   C745    1.401   .     A
C737   H751    1.082   .     S
C738   C746    1.400   .     A
C738   C740    1.470   .     S
C739   C909    1.338   .     S
C739   F952    1.362   .     S
C740   O764    1.313   .     A
C740   O765    1.306   .     A
C741   C742    1.434   .     S
C742   O766    1.303   .     A
C742   O767    1.299   .     A
C743   O769    1.310   .     A
C743   O768    1.309   .     A
C743   C745    1.467   .     S
C744   H755    1.084   .     S
C746   H757    1.083   .     S
C746   C747    1.384   .     A
C747   C244    1.401   1_556 S
C748   C777    1.511   .     S
Cu749  N761    2.047   .     S
Cu749  O764    1.952   .     S
Cu749  O768    1.947   .     S
Cu749  O766    1.956   .     S
Cu749  O762    1.957   .     S
Cu749  Cu750   2.724   .     S
Cu750  O765    1.947   .     S
Cu750  O763    1.956   .     S
Cu750  N760    2.047   .     S
Cu750  O767    1.957   .     S
Cu750  O769    1.952   .     S
H752   C909    1.087   .     S
H758   C803    1.084   .     S
N760   H809    1.029   .     S
N760   N817    1.293   .     S
C770   H775    1.074   .     S
C770   N817    1.455   .     S
C770   C827    1.528   .     S
C770   H832    1.091   .     S
C771   H772    1.102   .     S
C771   H773    1.109   .     S
C771   H774    1.112   .     S
C777   H783    1.096   .     S
C777   C778    1.539   .     S
C777   H782    1.111   .     S
C778   H780    1.109   .     S
C778   H781    1.106   .     S
C778   H779    1.103   .     S
C785   C795    1.429   .     S
C785   O818    1.301   .     A
C785   O819    1.299   .     A
C786   C787    1.417   .     A
C786   C284    1.421   1_556 S
C786   C300    1.427   1_556 S
C787   C791    1.415   .     A
C787   C794    1.420   .     A
C788   C792    1.407   .     A
C788   C789    1.412   .     A
C789   C800    1.401   .     A
C790   H810    1.084   .     S
C790   C791    1.393   .     A
C790   C285    1.395   1_556 S
C791   H815    1.080   .     S
C792   H812    1.079   .     S
C792   C801    1.397   .     A
C793   C800    1.397   .     A
C793   C801    1.401   .     A
C793   H807    1.082   .     S
C794   C802    1.400   .     A
C794   C796    1.470   .     S
C795   C965    1.338   .     S
C795   F1008   1.362   .     S
C796   O820    1.313   .     A
C796   O821    1.306   .     A
C797   C798    1.434   .     S
C798   O822    1.303   .     A
C798   O823    1.299   .     A
C799   O825    1.310   .     A
C799   O824    1.309   .     A
C799   C801    1.467   .     S
C800   H811    1.084   .     S
C802   H813    1.083   .     S
C802   C803    1.384   .     A
C803   C300    1.401   1_556 S
C804   C833    1.511   .     S
Cu805  N817    2.047   .     S
Cu805  O820    1.952   .     S
Cu805  O824    1.947   .     S
Cu805  O822    1.956   .     S
Cu805  O818    1.957   .     S
Cu805  Cu806   2.724   .     S
Cu806  O821    1.947   .     S
Cu806  O819    1.956   .     S
Cu806  N816    2.047   .     S
Cu806  O823    1.957   .     S
Cu806  O825    1.952   .     S
H808   C965    1.087   .     S
H814   C691    1.084   1_655 S
N816   H697    1.029   1_655 S
N816   N705    1.293   1_655 S
C826   H831    1.074   .     S
C826   N705    1.455   1_655 S
C826   C715    1.528   1_655 S
C826   H720    1.091   1_655 S
C827   H828    1.102   .     S
C827   H829    1.109   .     S
C827   H830    1.112   .     S
C833   H839    1.096   .     S
C833   C834    1.539   .     S
C833   H838    1.111   .     S
C834   H836    1.109   .     S
C834   H837    1.106   .     S
C834   H835    1.103   .     S
C841   C851    1.429   .     S
C841   O874    1.301   .     A
C841   O875    1.299   .     A
C842   C843    1.417   .     A
C842   C340    1.421   1_556 S
C842   C356    1.427   1_556 S
C843   C847    1.415   .     A
C843   C850    1.420   .     A
C844   C848    1.407   .     A
C844   C845    1.412   .     A
C845   C856    1.401   .     A
C846   H866    1.084   .     S
C846   C847    1.393   .     A
C846   C341    1.395   1_556 S
C847   H871    1.080   .     S
C848   H868    1.079   .     S
C848   C857    1.397   .     A
C849   C856    1.397   .     A
C849   C857    1.401   .     A
C849   H863    1.082   .     S
C850   C858    1.400   .     A
C850   C852    1.470   .     S
C851   C517    1.338   1_565 S
C851   F560    1.362   1_565 S
C852   O876    1.313   .     A
C852   O877    1.306   .     A
C853   C854    1.434   .     S
C854   O878    1.303   .     A
C854   O879    1.299   .     A
C855   O881    1.310   .     A
C855   O880    1.309   .     A
C855   C857    1.467   .     S
C856   H867    1.084   .     S
C858   H869    1.083   .     S
C858   C859    1.384   .     A
C859   C356    1.401   1_556 S
C859   H982    1.084   1_455 S
C860   C889    1.511   .     S
Cu861  N873    2.047   .     S
Cu861  O876    1.952   .     S
Cu861  O880    1.947   .     S
Cu861  O878    1.956   .     S
Cu861  O874    1.957   .     S
Cu861  Cu862   2.724   .     S
Cu862  O877    1.947   .     S
Cu862  O875    1.956   .     S
Cu862  N872    2.047   .     S
Cu862  O879    1.957   .     S
Cu862  O881    1.952   .     S
H864   C517    1.087   1_565 S
H865   N984    1.029   1_455 S
H870   C915    1.084   .     S
N872   H921    1.029   .     S
N872   N929    1.293   .     S
N873   N984    1.293   1_455 S
N873   C994    1.455   1_455 S
C882   H887    1.074   .     S
C882   N929    1.455   .     S
C882   C939    1.528   .     S
C882   H944    1.091   .     S
C883   H884    1.102   .     S
C883   H885    1.109   .     S
C883   H886    1.112   .     S
C883   C994    1.528   1_455 S
H888   C994    1.091   1_455 S
C889   H895    1.096   .     S
C889   C890    1.539   .     S
C889   H894    1.111   .     S
C890   H892    1.109   .     S
C890   H893    1.106   .     S
C890   H891    1.103   .     S
C897   C907    1.429   .     S
C897   O930    1.301   .     A
C897   O931    1.299   .     A
C898   C899    1.417   .     A
C898   C396    1.421   1_556 S
C898   C412    1.427   1_556 S
C899   C903    1.415   .     A
C899   C906    1.420   .     A
C900   C904    1.407   .     A
C900   C901    1.412   .     A
C901   C912    1.401   .     A
C902   H922    1.084   .     S
C902   C903    1.393   .     A
C902   C397    1.395   1_556 S
C903   H927    1.080   .     S
C904   H924    1.079   .     S
C904   C913    1.397   .     A
C905   C912    1.397   .     A
C905   C913    1.401   .     A
C905   H919    1.082   .     S
C906   C914    1.400   .     A
C906   C908    1.470   .     S
C907   C573    1.338   1_565 S
C907   F616    1.362   1_565 S
C908   O932    1.313   .     A
C908   O933    1.306   .     A
C909   C910    1.434   .     S
C910   O934    1.303   .     A
C910   O935    1.299   .     A
C911   O937    1.310   .     A
C911   O936    1.309   .     A
C911   C913    1.467   .     S
C912   H923    1.084   .     S
C914   H925    1.083   .     S
C914   C915    1.384   .     A
C915   C412    1.401   1_556 S
C916   C945    1.511   .     S
Cu917  N929    2.047   .     S
Cu917  O932    1.952   .     S
Cu917  O936    1.947   .     S
Cu917  O934    1.956   .     S
Cu917  O930    1.957   .     S
Cu917  Cu918   2.724   .     S
Cu918  O933    1.947   .     S
Cu918  O931    1.956   .     S
Cu918  N928    2.047   .     S
Cu918  O935    1.957   .     S
Cu918  O937    1.952   .     S
H920   C573    1.087   1_565 S
H926   C971    1.084   .     S
N928   H977    1.029   .     S
N928   N985    1.293   .     S
C938   H943    1.074   .     S
C938   N985    1.455   .     S
C938   C995    1.528   .     S
C938   H1000   1.091   .     S
C939   H940    1.102   .     S
C939   H941    1.109   .     S
C939   H942    1.112   .     S
C945   H951    1.096   .     S
C945   C946    1.539   .     S
C945   H950    1.111   .     S
C946   H948    1.109   .     S
C946   H949    1.106   .     S
C946   H947    1.103   .     S
C953   C963    1.429   .     S
C953   O986    1.301   .     A
C953   O987    1.299   .     A
C954   C955    1.417   .     A
C954   C452    1.421   1_556 S
C954   C468    1.427   1_556 S
C955   C959    1.415   .     A
C955   C962    1.420   .     A
C956   C960    1.407   .     A
C956   C957    1.412   .     A
C957   C968    1.401   .     A
C958   H978    1.084   .     S
C958   C959    1.393   .     A
C958   C453    1.395   1_556 S
C959   H983    1.080   .     S
C960   H980    1.079   .     S
C960   C969    1.397   .     A
C961   C968    1.397   .     A
C961   C969    1.401   .     A
C961   H975    1.082   .     S
C962   C970    1.400   .     A
C962   C964    1.470   .     S
C963   C629    1.338   1_565 S
C963   F672    1.362   1_565 S
C964   O988    1.313   .     A
C964   O989    1.306   .     A
C965   C966    1.434   .     S
C966   O990    1.303   .     A
C966   O991    1.299   .     A
C967   O993    1.310   .     A
C967   O992    1.309   .     A
C967   C969    1.467   .     S
C968   H979    1.084   .     S
C970   H981    1.083   .     S
C970   C971    1.384   .     A
C971   C468    1.401   1_556 S
C972   C1001   1.511   .     S
Cu973  N985    2.047   .     S
Cu973  O988    1.952   .     S
Cu973  O992    1.947   .     S
Cu973  O990    1.956   .     S
Cu973  O986    1.957   .     S
Cu973  Cu974   2.724   .     S
Cu974  O989    1.947   .     S
Cu974  O987    1.956   .     S
Cu974  N984    2.047   .     S
Cu974  O991    1.957   .     S
Cu974  O993    1.952   .     S
H976   C629    1.087   1_565 S
H982   C859    1.084   1_655 S
N984   H865    1.029   1_655 S
N984   N873    1.293   1_655 S
C994   H999    1.074   .     S
C994   N873    1.455   1_655 S
C994   C883    1.528   1_655 S
C994   H888    1.091   1_655 S
C995   H996    1.102   .     S
C995   H997    1.109   .     S
C995   H998    1.112   .     S
C1001  H1007   1.096   .     S
C1001  C1002   1.539   .     S
C1001  H1006   1.111   .     S
C1002  H1004   1.109   .     S
C1002  H1005   1.106   .     S
C1002  H1003   1.103   .     S
