data_str_m3_o1_o16_pcu_sym.61
_audit_creation_date              2020-01-03
_audit_creation_method            'Materials Studio'
_symmetry_space_group_name_H-M    'P1'
_symmetry_Int_Tables_number       1
_symmetry_cell_setting            triclinic
loop_
_symmetry_equiv_pos_as_xyz
  x,y,z
_cell_length_a                    29.7255
_cell_length_b                    31.9468
_cell_length_c                    26.2045
_cell_angle_alpha                 91.6176
_cell_angle_beta                  70.4590
_cell_angle_gamma                 91.3813
loop_
_atom_site_label
_atom_site_type_symbol
_atom_site_fract_x
_atom_site_fract_y
_atom_site_fract_z
_atom_site_U_iso_or_equiv
_atom_site_adp_type
_atom_site_occupancy
C1     C     0.16754   0.24656   0.24898   0.00000  Uiso   1.00
C2     C     0.12207   0.17013   0.41161   0.00000  Uiso   1.00
C3     C     0.20639   0.31174   0.20697   0.00000  Uiso   1.00
C4     C     0.14001   0.16789   0.35222   0.00000  Uiso   1.00
C5     C     0.20468   0.02196   0.20502   0.00000  Uiso   1.00
C6     C     0.16681   0.04265   0.24435   0.00000  Uiso   1.00
C7     C     0.13006   0.02131   0.28257   0.00000  Uiso   1.00
C8     C     0.13127   0.31195   0.28378   0.00000  Uiso   1.00
C9     C     0.16932   0.29081   0.24692   0.00000  Uiso   1.00
C10    C     0.31779   0.14084   0.21598   0.00000  Uiso   1.00
C11    C     0.03252   0.14061   0.21463   0.00000  Uiso   1.00
C12    C     0.14195   0.17786   0.49356   0.00000  Uiso   1.00
C13    C     0.01473   0.19304   0.28373   0.00000  Uiso   1.00
C14    C     0.30032   0.19306   0.28364   0.00000  Uiso   1.00
C15    C     0.16656   0.08681   0.24867   0.00000  Uiso   1.00
C16    C     0.19310   0.16743   0.14790   0.00000  Uiso   1.00
C17    C     0.25249   0.21975   0.01607   0.00000  Uiso   1.00
C18    C     0.20848   0.17567   0.09022   0.00000  Uiso   1.00
C19    C     0.07784   0.15070   0.44073   0.00000  Uiso   1.00
C20    C     0.06451   0.14732   0.49730   0.00000  Uiso   1.00
C21    C     0.09680   0.16063   0.02307   0.00000  Uiso   1.00
C22    C     0.24129   0.04547   0.16156   0.00000  Uiso   1.00
C23    C     0.15103   0.18830   0.43958   0.00000  Uiso   1.00
C24    C     0.06365   0.11164   0.17219   0.00000  Uiso   1.00
C25    C     0.25958   0.26005   0.41178   0.00000  Uiso   1.00
C26    C     0.01390   0.16184   0.41406   0.00000  Uiso   1.00
C27    C     0.01790   0.12848   0.02977   0.00000  Uiso   1.00
C28    C     0.24424   0.28839   0.16495   0.00000  Uiso   1.00
C29    C     0.17839   0.18506   0.01624   0.00000  Uiso   1.00
C30    C     0.21832   0.21142   0.49022   0.00000  Uiso   1.00
C31    C     0.22176   0.22921   0.44017   0.00000  Uiso   1.00
C32    C     0.18874   0.21660   0.41500   0.00000  Uiso   1.00
C33    C     0.17635   0.16533   0.06372   0.00000  Uiso   1.00
C34    C     0.24756   0.20185   0.06566   0.00000  Uiso   1.00
H35    H     0.27271   0.21032   0.08612   0.00000  Uiso   1.00
H36    H     0.19233   0.22963   0.37611   0.00000  Uiso   1.00
H37    H     0.31052   0.05271   0.11609   0.00000  Uiso   1.00
H38    H     0.07205   0.07733   0.10359   0.00000  Uiso   1.00
H39    H     0.21265   0.30034   0.39992   0.00000  Uiso   1.00
H40    H     0.32806   0.14974   0.38682   0.00000  Uiso   1.00
H41    H     0.02957   0.19303   0.39931   0.00000  Uiso   1.00
H42    H     0.32053   0.16526   0.45516   0.00000  Uiso   1.00
H43    H     0.29784   0.08724   0.03315   0.00000  Uiso   1.00
H44    H     0.30356   0.25360   0.14670   0.00000  Uiso   1.00
H45    H     0.10119   0.03786   0.31239   0.00000  Uiso   1.00
H46    H     0.10282   0.29532   0.31393   0.00000  Uiso   1.00
H47    H     0.30545   0.12035   0.18967   0.00000  Uiso   1.00
H48    H     0.02538   0.21437   0.31050   0.00000  Uiso   1.00
H49    H     0.27506   0.21441   0.31041   0.00000  Uiso   1.00
H50    H     0.28245   0.24084   0.49947   0.00000  Uiso   1.00
H51    H     0.14872   0.14247   0.08203   0.00000  Uiso   1.00
H52    H     0.08585   0.15811   0.06650   0.00000  Uiso   1.00
N53    N     0.04760   0.16668   0.25001   0.00000  Uiso   1.00
N54    N     0.28573   0.16665   0.25001   0.00000  Uiso   1.00
O55    O     0.12846   0.22775   0.25000   0.00000  Uiso   1.00
O56    O     0.28957   0.03566   0.14744   0.00000  Uiso   1.00
O57    O     0.10094   0.09871   0.17428   0.00000  Uiso   1.00
O58    O     0.04857   0.09705   0.12966   0.00000  Uiso   1.00
O59    O     0.30140   0.25319   0.40491   0.00000  Uiso   1.00
O60    O     0.24825   0.29645   0.39054   0.00000  Uiso   1.00
O61    O     0.04926   0.13294   0.41340   0.00000  Uiso   1.00
O62    O     0.33126   0.14076   0.07633   0.00000  Uiso   1.00
O63    O     0.32992   0.09682   0.00730   0.00000  Uiso   1.00
O64    O     0.24621   0.28937   0.11766   0.00000  Uiso   1.00
O65    O     0.27891   0.26732   0.17907   0.00000  Uiso   1.00
O66    O     0.20490   0.22774   0.25000   0.00000  Uiso   1.00
O67    O     0.10947   0.16666   0.32681   0.00000  Uiso   1.00
O68    O     0.18591   0.16665   0.32681   0.00000  Uiso   1.00
O69    O     0.12843   0.10559   0.24999   0.00000  Uiso   1.00
O70    O     0.20488   0.10558   0.25000   0.00000  Uiso   1.00
O71    O     0.14742   0.16668   0.17319   0.00000  Uiso   1.00
O72    O     0.22387   0.16667   0.17319   0.00000  Uiso   1.00
O73    O     0.22904   0.07303   0.13776   0.00000  Uiso   1.00
Zn74   Zn    0.11562   0.16667   0.25000   0.00000  Uiso   1.00
Zn75   Zn    0.21771   0.16666   0.25000   0.00000  Uiso   1.00
C76    C     0.50088   0.24656   0.24898   0.00000  Uiso   1.00
C77    C     0.45540   0.17013   0.41161   0.00000  Uiso   1.00
C78    C     0.53972   0.31174   0.20697   0.00000  Uiso   1.00
C79    C     0.47335   0.16789   0.35222   0.00000  Uiso   1.00
C80    C     0.53802   0.02196   0.20502   0.00000  Uiso   1.00
C81    C     0.50014   0.04265   0.24435   0.00000  Uiso   1.00
C82    C     0.46339   0.02131   0.28257   0.00000  Uiso   1.00
C83    C     0.46461   0.31195   0.28378   0.00000  Uiso   1.00
C84    C     0.50266   0.29081   0.24692   0.00000  Uiso   1.00
C85    C     0.65112   0.14084   0.21598   0.00000  Uiso   1.00
C86    C     0.36586   0.14061   0.21463   0.00000  Uiso   1.00
C87    C     0.47528   0.17786   0.49356   0.00000  Uiso   1.00
C88    C     0.34806   0.19304   0.28373   0.00000  Uiso   1.00
C89    C     0.63365   0.19306   0.28364   0.00000  Uiso   1.00
C90    C     0.49989   0.08681   0.24867   0.00000  Uiso   1.00
C91    C     0.52643   0.16743   0.14790   0.00000  Uiso   1.00
C92    C     0.58583   0.21975   0.01607   0.00000  Uiso   1.00
C93    C     0.54181   0.17567   0.09022   0.00000  Uiso   1.00
C94    C     0.41118   0.15070   0.44073   0.00000  Uiso   1.00
C95    C     0.39784   0.14732   0.49730   0.00000  Uiso   1.00
C96    C     0.43013   0.16063   0.02307   0.00000  Uiso   1.00
C97    C     0.57463   0.04547   0.16156   0.00000  Uiso   1.00
C98    C     0.48436   0.18830   0.43958   0.00000  Uiso   1.00
C99    C     0.39699   0.11164   0.17219   0.00000  Uiso   1.00
C100   C     0.59291   0.26005   0.41178   0.00000  Uiso   1.00
C101   C     0.34723   0.16184   0.41406   0.00000  Uiso   1.00
C102   C     0.35123   0.12848   0.02977   0.00000  Uiso   1.00
C103   C     0.57758   0.28839   0.16495   0.00000  Uiso   1.00
C104   C     0.51172   0.18506   0.01624   0.00000  Uiso   1.00
C105   C     0.55166   0.21142   0.49022   0.00000  Uiso   1.00
C106   C     0.55509   0.22921   0.44017   0.00000  Uiso   1.00
C107   C     0.52208   0.21660   0.41500   0.00000  Uiso   1.00
C108   C     0.50969   0.16533   0.06372   0.00000  Uiso   1.00
C109   C     0.58089   0.20185   0.06566   0.00000  Uiso   1.00
H110   H     0.60604   0.21032   0.08612   0.00000  Uiso   1.00
H111   H     0.52566   0.22963   0.37611   0.00000  Uiso   1.00
H112   H     0.64385   0.05271   0.11609   0.00000  Uiso   1.00
H113   H     0.40538   0.07733   0.10359   0.00000  Uiso   1.00
H114   H     0.54598   0.30034   0.39992   0.00000  Uiso   1.00
H115   H     0.66139   0.14974   0.38682   0.00000  Uiso   1.00
H116   H     0.36290   0.19303   0.39931   0.00000  Uiso   1.00
H117   H     0.65386   0.16526   0.45516   0.00000  Uiso   1.00
H118   H     0.63117   0.08724   0.03315   0.00000  Uiso   1.00
H119   H     0.63689   0.25360   0.14670   0.00000  Uiso   1.00
H120   H     0.43453   0.03786   0.31239   0.00000  Uiso   1.00
H121   H     0.43616   0.29532   0.31393   0.00000  Uiso   1.00
H122   H     0.63878   0.12035   0.18967   0.00000  Uiso   1.00
H123   H     0.35871   0.21437   0.31050   0.00000  Uiso   1.00
H124   H     0.60840   0.21441   0.31041   0.00000  Uiso   1.00
H125   H     0.61578   0.24084   0.49947   0.00000  Uiso   1.00
H126   H     0.48205   0.14247   0.08203   0.00000  Uiso   1.00
H127   H     0.41918   0.15811   0.06650   0.00000  Uiso   1.00
N128   N     0.38093   0.16668   0.25001   0.00000  Uiso   1.00
N129   N     0.61906   0.16665   0.25001   0.00000  Uiso   1.00
O130   O     0.46179   0.22775   0.25000   0.00000  Uiso   1.00
O131   O     0.62290   0.03566   0.14744   0.00000  Uiso   1.00
O132   O     0.43428   0.09871   0.17428   0.00000  Uiso   1.00
O133   O     0.38190   0.09705   0.12966   0.00000  Uiso   1.00
O134   O     0.63474   0.25319   0.40491   0.00000  Uiso   1.00
O135   O     0.58159   0.29645   0.39054   0.00000  Uiso   1.00
O136   O     0.38259   0.13294   0.41340   0.00000  Uiso   1.00
O137   O     0.66459   0.14076   0.07633   0.00000  Uiso   1.00
O138   O     0.66325   0.09682   0.00730   0.00000  Uiso   1.00
O139   O     0.57954   0.28937   0.11766   0.00000  Uiso   1.00
O140   O     0.61224   0.26732   0.17907   0.00000  Uiso   1.00
O141   O     0.53823   0.22774   0.25000   0.00000  Uiso   1.00
O142   O     0.44280   0.16666   0.32681   0.00000  Uiso   1.00
O143   O     0.51924   0.16665   0.32681   0.00000  Uiso   1.00
O144   O     0.46177   0.10559   0.24999   0.00000  Uiso   1.00
O145   O     0.53821   0.10558   0.25000   0.00000  Uiso   1.00
O146   O     0.48076   0.16668   0.17319   0.00000  Uiso   1.00
O147   O     0.55720   0.16667   0.17319   0.00000  Uiso   1.00
O148   O     0.56237   0.07303   0.13776   0.00000  Uiso   1.00
Zn149  Zn    0.44896   0.16667   0.25000   0.00000  Uiso   1.00
Zn150  Zn    0.55104   0.16666   0.25000   0.00000  Uiso   1.00
C151   C     0.83421   0.24656   0.24898   0.00000  Uiso   1.00
C152   C     0.78873   0.17013   0.41161   0.00000  Uiso   1.00
C153   C     0.87306   0.31174   0.20697   0.00000  Uiso   1.00
C154   C     0.80668   0.16789   0.35222   0.00000  Uiso   1.00
C155   C     0.87135   0.02196   0.20502   0.00000  Uiso   1.00
C156   C     0.83347   0.04265   0.24435   0.00000  Uiso   1.00
C157   C     0.79673   0.02131   0.28257   0.00000  Uiso   1.00
C158   C     0.79794   0.31195   0.28378   0.00000  Uiso   1.00
C159   C     0.83599   0.29081   0.24692   0.00000  Uiso   1.00
C160   C     0.98446   0.14084   0.21598   0.00000  Uiso   1.00
C161   C     0.69919   0.14061   0.21463   0.00000  Uiso   1.00
C162   C     0.80862   0.17786   0.49356   0.00000  Uiso   1.00
C163   C     0.68139   0.19304   0.28373   0.00000  Uiso   1.00
C164   C     0.96698   0.19306   0.28364   0.00000  Uiso   1.00
C165   C     0.83323   0.08681   0.24867   0.00000  Uiso   1.00
C166   C     0.85976   0.16743   0.14790   0.00000  Uiso   1.00
C167   C     0.91916   0.21975   0.01607   0.00000  Uiso   1.00
C168   C     0.87514   0.17567   0.09022   0.00000  Uiso   1.00
C169   C     0.74451   0.15070   0.44073   0.00000  Uiso   1.00
C170   C     0.73117   0.14732   0.49730   0.00000  Uiso   1.00
C171   C     0.76347   0.16063   0.02307   0.00000  Uiso   1.00
C172   C     0.90796   0.04547   0.16156   0.00000  Uiso   1.00
C173   C     0.81769   0.18830   0.43958   0.00000  Uiso   1.00
C174   C     0.73032   0.11164   0.17219   0.00000  Uiso   1.00
C175   C     0.92624   0.26005   0.41178   0.00000  Uiso   1.00
C176   C     0.68057   0.16184   0.41406   0.00000  Uiso   1.00
C177   C     0.68456   0.12848   0.02977   0.00000  Uiso   1.00
C178   C     0.91091   0.28839   0.16495   0.00000  Uiso   1.00
C179   C     0.84506   0.18506   0.01624   0.00000  Uiso   1.00
C180   C     0.88499   0.21142   0.49022   0.00000  Uiso   1.00
C181   C     0.88843   0.22921   0.44017   0.00000  Uiso   1.00
C182   C     0.85541   0.21660   0.41500   0.00000  Uiso   1.00
C183   C     0.84302   0.16533   0.06372   0.00000  Uiso   1.00
C184   C     0.91422   0.20185   0.06566   0.00000  Uiso   1.00
H185   H     0.93937   0.21032   0.08612   0.00000  Uiso   1.00
H186   H     0.85900   0.22963   0.37611   0.00000  Uiso   1.00
H187   H     0.97718   0.05271   0.11609   0.00000  Uiso   1.00
H188   H     0.73872   0.07733   0.10359   0.00000  Uiso   1.00
H189   H     0.87932   0.30034   0.39992   0.00000  Uiso   1.00
H190   H     0.99473   0.14974   0.38682   0.00000  Uiso   1.00
H191   H     0.69624   0.19303   0.39931   0.00000  Uiso   1.00
H192   H     0.98719   0.16526   0.45516   0.00000  Uiso   1.00
H193   H     0.96451   0.08724   0.03315   0.00000  Uiso   1.00
H194   H     0.97023   0.25360   0.14670   0.00000  Uiso   1.00
H195   H     0.76786   0.03786   0.31239   0.00000  Uiso   1.00
H196   H     0.76949   0.29532   0.31393   0.00000  Uiso   1.00
H197   H     0.97211   0.12035   0.18967   0.00000  Uiso   1.00
H198   H     0.69204   0.21437   0.31050   0.00000  Uiso   1.00
H199   H     0.94173   0.21441   0.31041   0.00000  Uiso   1.00
H200   H     0.94911   0.24084   0.49947   0.00000  Uiso   1.00
H201   H     0.81539   0.14247   0.08203   0.00000  Uiso   1.00
H202   H     0.75251   0.15811   0.06650   0.00000  Uiso   1.00
N203   N     0.71426   0.16668   0.25001   0.00000  Uiso   1.00
N204   N     0.95239   0.16665   0.25001   0.00000  Uiso   1.00
O205   O     0.79512   0.22775   0.25000   0.00000  Uiso   1.00
O206   O     0.95623   0.03566   0.14744   0.00000  Uiso   1.00
O207   O     0.76761   0.09871   0.17428   0.00000  Uiso   1.00
O208   O     0.71524   0.09705   0.12966   0.00000  Uiso   1.00
O209   O     0.96807   0.25319   0.40491   0.00000  Uiso   1.00
O210   O     0.91492   0.29645   0.39054   0.00000  Uiso   1.00
O211   O     0.71592   0.13294   0.41340   0.00000  Uiso   1.00
O212   O     0.99792   0.14076   0.07633   0.00000  Uiso   1.00
O213   O     0.99658   0.09682   0.00730   0.00000  Uiso   1.00
O214   O     0.91288   0.28937   0.11766   0.00000  Uiso   1.00
O215   O     0.94558   0.26732   0.17907   0.00000  Uiso   1.00
O216   O     0.87157   0.22774   0.25000   0.00000  Uiso   1.00
O217   O     0.77613   0.16666   0.32681   0.00000  Uiso   1.00
O218   O     0.85258   0.16665   0.32681   0.00000  Uiso   1.00
O219   O     0.79510   0.10559   0.24999   0.00000  Uiso   1.00
O220   O     0.87154   0.10558   0.25000   0.00000  Uiso   1.00
O221   O     0.81409   0.16668   0.17319   0.00000  Uiso   1.00
O222   O     0.89053   0.16667   0.17319   0.00000  Uiso   1.00
O223   O     0.89571   0.07303   0.13776   0.00000  Uiso   1.00
Zn224  Zn    0.78229   0.16667   0.25000   0.00000  Uiso   1.00
Zn225  Zn    0.88438   0.16666   0.25000   0.00000  Uiso   1.00
C226   C     0.16754   0.57990   0.24898   0.00000  Uiso   1.00
C227   C     0.12207   0.50346   0.41161   0.00000  Uiso   1.00
C228   C     0.20639   0.64507   0.20697   0.00000  Uiso   1.00
C229   C     0.14001   0.50123   0.35222   0.00000  Uiso   1.00
C230   C     0.20468   0.35529   0.20502   0.00000  Uiso   1.00
C231   C     0.16681   0.37598   0.24435   0.00000  Uiso   1.00
C232   C     0.13006   0.35465   0.28257   0.00000  Uiso   1.00
C233   C     0.13127   0.64529   0.28378   0.00000  Uiso   1.00
C234   C     0.16932   0.62414   0.24692   0.00000  Uiso   1.00
C235   C     0.31779   0.47417   0.21598   0.00000  Uiso   1.00
C236   C     0.03252   0.47394   0.21463   0.00000  Uiso   1.00
C237   C     0.14195   0.51119   0.49356   0.00000  Uiso   1.00
C238   C     0.01473   0.52637   0.28373   0.00000  Uiso   1.00
C239   C     0.30032   0.52639   0.28364   0.00000  Uiso   1.00
C240   C     0.16656   0.42014   0.24867   0.00000  Uiso   1.00
C241   C     0.19310   0.50077   0.14790   0.00000  Uiso   1.00
C242   C     0.25249   0.55308   0.01607   0.00000  Uiso   1.00
C243   C     0.20848   0.50900   0.09022   0.00000  Uiso   1.00
C244   C     0.07784   0.48403   0.44073   0.00000  Uiso   1.00
C245   C     0.06451   0.48066   0.49730   0.00000  Uiso   1.00
C246   C     0.09680   0.49396   0.02307   0.00000  Uiso   1.00
C247   C     0.24129   0.37881   0.16156   0.00000  Uiso   1.00
C248   C     0.15103   0.52164   0.43958   0.00000  Uiso   1.00
C249   C     0.06365   0.44497   0.17219   0.00000  Uiso   1.00
C250   C     0.25958   0.59338   0.41178   0.00000  Uiso   1.00
C251   C     0.01390   0.49517   0.41406   0.00000  Uiso   1.00
C252   C     0.01790   0.46181   0.02977   0.00000  Uiso   1.00
C253   C     0.24424   0.62172   0.16495   0.00000  Uiso   1.00
C254   C     0.17839   0.51839   0.01624   0.00000  Uiso   1.00
C255   C     0.21832   0.54475   0.49022   0.00000  Uiso   1.00
C256   C     0.22176   0.56254   0.44017   0.00000  Uiso   1.00
C257   C     0.18874   0.54994   0.41500   0.00000  Uiso   1.00
C258   C     0.17635   0.49867   0.06372   0.00000  Uiso   1.00
C259   C     0.24756   0.53519   0.06566   0.00000  Uiso   1.00
H260   H     0.27271   0.54366   0.08612   0.00000  Uiso   1.00
H261   H     0.19233   0.56297   0.37611   0.00000  Uiso   1.00
H262   H     0.31052   0.38604   0.11609   0.00000  Uiso   1.00
H263   H     0.07205   0.41066   0.10359   0.00000  Uiso   1.00
H264   H     0.21265   0.63368   0.39992   0.00000  Uiso   1.00
H265   H     0.32806   0.48307   0.38682   0.00000  Uiso   1.00
H266   H     0.02957   0.52636   0.39931   0.00000  Uiso   1.00
H267   H     0.32053   0.49859   0.45516   0.00000  Uiso   1.00
H268   H     0.29784   0.42058   0.03315   0.00000  Uiso   1.00
H269   H     0.30356   0.58693   0.14670   0.00000  Uiso   1.00
H270   H     0.10119   0.37119   0.31239   0.00000  Uiso   1.00
H271   H     0.10282   0.62866   0.31393   0.00000  Uiso   1.00
H272   H     0.30545   0.45368   0.18967   0.00000  Uiso   1.00
H273   H     0.02538   0.54770   0.31050   0.00000  Uiso   1.00
H274   H     0.27506   0.54774   0.31041   0.00000  Uiso   1.00
H275   H     0.28245   0.57418   0.49947   0.00000  Uiso   1.00
H276   H     0.14872   0.47580   0.08203   0.00000  Uiso   1.00
H277   H     0.08585   0.49144   0.06650   0.00000  Uiso   1.00
N278   N     0.04760   0.50001   0.25001   0.00000  Uiso   1.00
N279   N     0.28573   0.49998   0.25001   0.00000  Uiso   1.00
O280   O     0.12846   0.56108   0.25000   0.00000  Uiso   1.00
O281   O     0.28957   0.36900   0.14744   0.00000  Uiso   1.00
O282   O     0.10094   0.43204   0.17428   0.00000  Uiso   1.00
O283   O     0.04857   0.43039   0.12966   0.00000  Uiso   1.00
O284   O     0.30140   0.58653   0.40491   0.00000  Uiso   1.00
O285   O     0.24825   0.62979   0.39054   0.00000  Uiso   1.00
O286   O     0.04926   0.46627   0.41340   0.00000  Uiso   1.00
O287   O     0.33126   0.47409   0.07633   0.00000  Uiso   1.00
O288   O     0.32992   0.43016   0.00730   0.00000  Uiso   1.00
O289   O     0.24621   0.62270   0.11766   0.00000  Uiso   1.00
O290   O     0.27891   0.60066   0.17907   0.00000  Uiso   1.00
O291   O     0.20490   0.56107   0.25000   0.00000  Uiso   1.00
O292   O     0.10947   0.50000   0.32681   0.00000  Uiso   1.00
O293   O     0.18591   0.49999   0.32681   0.00000  Uiso   1.00
O294   O     0.12843   0.43893   0.24999   0.00000  Uiso   1.00
O295   O     0.20488   0.43892   0.25000   0.00000  Uiso   1.00
O296   O     0.14742   0.50001   0.17319   0.00000  Uiso   1.00
O297   O     0.22387   0.50000   0.17319   0.00000  Uiso   1.00
O298   O     0.22904   0.40637   0.13776   0.00000  Uiso   1.00
Zn299  Zn    0.11562   0.50001   0.25000   0.00000  Uiso   1.00
Zn300  Zn    0.21771   0.49999   0.25000   0.00000  Uiso   1.00
C301   C     0.50088   0.57990   0.24898   0.00000  Uiso   1.00
C302   C     0.45540   0.50346   0.41161   0.00000  Uiso   1.00
C303   C     0.53972   0.64507   0.20697   0.00000  Uiso   1.00
C304   C     0.47335   0.50123   0.35222   0.00000  Uiso   1.00
C305   C     0.53802   0.35529   0.20502   0.00000  Uiso   1.00
C306   C     0.50014   0.37598   0.24435   0.00000  Uiso   1.00
C307   C     0.46339   0.35465   0.28257   0.00000  Uiso   1.00
C308   C     0.46461   0.64529   0.28378   0.00000  Uiso   1.00
C309   C     0.50266   0.62414   0.24692   0.00000  Uiso   1.00
C310   C     0.65112   0.47417   0.21598   0.00000  Uiso   1.00
C311   C     0.36586   0.47394   0.21463   0.00000  Uiso   1.00
C312   C     0.47528   0.51119   0.49356   0.00000  Uiso   1.00
C313   C     0.34806   0.52637   0.28373   0.00000  Uiso   1.00
C314   C     0.63365   0.52639   0.28364   0.00000  Uiso   1.00
C315   C     0.49989   0.42014   0.24867   0.00000  Uiso   1.00
C316   C     0.52643   0.50077   0.14790   0.00000  Uiso   1.00
C317   C     0.58583   0.55308   0.01607   0.00000  Uiso   1.00
C318   C     0.54181   0.50900   0.09022   0.00000  Uiso   1.00
C319   C     0.41118   0.48403   0.44073   0.00000  Uiso   1.00
C320   C     0.39784   0.48066   0.49730   0.00000  Uiso   1.00
C321   C     0.43013   0.49396   0.02307   0.00000  Uiso   1.00
C322   C     0.57463   0.37881   0.16156   0.00000  Uiso   1.00
C323   C     0.48436   0.52164   0.43958   0.00000  Uiso   1.00
C324   C     0.39699   0.44497   0.17219   0.00000  Uiso   1.00
C325   C     0.59291   0.59338   0.41178   0.00000  Uiso   1.00
C326   C     0.34723   0.49517   0.41406   0.00000  Uiso   1.00
C327   C     0.35123   0.46181   0.02977   0.00000  Uiso   1.00
C328   C     0.57758   0.62172   0.16495   0.00000  Uiso   1.00
C329   C     0.51172   0.51839   0.01624   0.00000  Uiso   1.00
C330   C     0.55166   0.54475   0.49022   0.00000  Uiso   1.00
C331   C     0.55509   0.56254   0.44017   0.00000  Uiso   1.00
C332   C     0.52208   0.54994   0.41500   0.00000  Uiso   1.00
C333   C     0.50969   0.49867   0.06372   0.00000  Uiso   1.00
C334   C     0.58089   0.53519   0.06566   0.00000  Uiso   1.00
H335   H     0.60604   0.54366   0.08612   0.00000  Uiso   1.00
H336   H     0.52566   0.56297   0.37611   0.00000  Uiso   1.00
H337   H     0.64385   0.38604   0.11609   0.00000  Uiso   1.00
H338   H     0.40538   0.41066   0.10359   0.00000  Uiso   1.00
H339   H     0.54598   0.63368   0.39992   0.00000  Uiso   1.00
H340   H     0.66139   0.48307   0.38682   0.00000  Uiso   1.00
H341   H     0.36290   0.52636   0.39931   0.00000  Uiso   1.00
H342   H     0.65386   0.49859   0.45516   0.00000  Uiso   1.00
H343   H     0.63117   0.42058   0.03315   0.00000  Uiso   1.00
H344   H     0.63689   0.58693   0.14670   0.00000  Uiso   1.00
H345   H     0.43453   0.37119   0.31239   0.00000  Uiso   1.00
H346   H     0.43616   0.62866   0.31393   0.00000  Uiso   1.00
H347   H     0.63878   0.45368   0.18967   0.00000  Uiso   1.00
H348   H     0.35871   0.54770   0.31050   0.00000  Uiso   1.00
H349   H     0.60840   0.54774   0.31041   0.00000  Uiso   1.00
H350   H     0.61578   0.57418   0.49947   0.00000  Uiso   1.00
H351   H     0.48205   0.47580   0.08203   0.00000  Uiso   1.00
H352   H     0.41918   0.49144   0.06650   0.00000  Uiso   1.00
N353   N     0.38093   0.50001   0.25001   0.00000  Uiso   1.00
N354   N     0.61906   0.49998   0.25001   0.00000  Uiso   1.00
O355   O     0.46179   0.56108   0.25000   0.00000  Uiso   1.00
O356   O     0.62290   0.36900   0.14744   0.00000  Uiso   1.00
O357   O     0.43428   0.43204   0.17428   0.00000  Uiso   1.00
O358   O     0.38190   0.43039   0.12966   0.00000  Uiso   1.00
O359   O     0.63474   0.58653   0.40491   0.00000  Uiso   1.00
O360   O     0.58159   0.62979   0.39054   0.00000  Uiso   1.00
O361   O     0.38259   0.46627   0.41340   0.00000  Uiso   1.00
O362   O     0.66459   0.47409   0.07633   0.00000  Uiso   1.00
O363   O     0.66325   0.43016   0.00730   0.00000  Uiso   1.00
O364   O     0.57954   0.62270   0.11766   0.00000  Uiso   1.00
O365   O     0.61224   0.60066   0.17907   0.00000  Uiso   1.00
O366   O     0.53823   0.56107   0.25000   0.00000  Uiso   1.00
O367   O     0.44280   0.50000   0.32681   0.00000  Uiso   1.00
O368   O     0.51924   0.49999   0.32681   0.00000  Uiso   1.00
O369   O     0.46177   0.43893   0.24999   0.00000  Uiso   1.00
O370   O     0.53821   0.43892   0.25000   0.00000  Uiso   1.00
O371   O     0.48076   0.50001   0.17319   0.00000  Uiso   1.00
O372   O     0.55720   0.50000   0.17319   0.00000  Uiso   1.00
O373   O     0.56237   0.40637   0.13776   0.00000  Uiso   1.00
Zn374  Zn    0.44896   0.50001   0.25000   0.00000  Uiso   1.00
Zn375  Zn    0.55104   0.49999   0.25000   0.00000  Uiso   1.00
C376   C     0.83421   0.57990   0.24898   0.00000  Uiso   1.00
C377   C     0.78873   0.50346   0.41161   0.00000  Uiso   1.00
C378   C     0.87306   0.64507   0.20697   0.00000  Uiso   1.00
C379   C     0.80668   0.50123   0.35222   0.00000  Uiso   1.00
C380   C     0.87135   0.35529   0.20502   0.00000  Uiso   1.00
C381   C     0.83347   0.37598   0.24435   0.00000  Uiso   1.00
C382   C     0.79673   0.35465   0.28257   0.00000  Uiso   1.00
C383   C     0.79794   0.64529   0.28378   0.00000  Uiso   1.00
C384   C     0.83599   0.62414   0.24692   0.00000  Uiso   1.00
C385   C     0.98446   0.47417   0.21598   0.00000  Uiso   1.00
C386   C     0.69919   0.47394   0.21463   0.00000  Uiso   1.00
C387   C     0.80862   0.51119   0.49356   0.00000  Uiso   1.00
C388   C     0.68139   0.52637   0.28373   0.00000  Uiso   1.00
C389   C     0.96698   0.52639   0.28364   0.00000  Uiso   1.00
C390   C     0.83323   0.42014   0.24867   0.00000  Uiso   1.00
C391   C     0.85976   0.50077   0.14790   0.00000  Uiso   1.00
C392   C     0.91916   0.55308   0.01607   0.00000  Uiso   1.00
C393   C     0.87514   0.50900   0.09022   0.00000  Uiso   1.00
C394   C     0.74451   0.48403   0.44073   0.00000  Uiso   1.00
C395   C     0.73117   0.48066   0.49730   0.00000  Uiso   1.00
C396   C     0.76347   0.49396   0.02307   0.00000  Uiso   1.00
C397   C     0.90796   0.37881   0.16156   0.00000  Uiso   1.00
C398   C     0.81769   0.52164   0.43958   0.00000  Uiso   1.00
C399   C     0.73032   0.44497   0.17219   0.00000  Uiso   1.00
C400   C     0.92624   0.59338   0.41178   0.00000  Uiso   1.00
C401   C     0.68057   0.49517   0.41406   0.00000  Uiso   1.00
C402   C     0.68456   0.46181   0.02977   0.00000  Uiso   1.00
C403   C     0.91091   0.62172   0.16495   0.00000  Uiso   1.00
C404   C     0.84506   0.51839   0.01624   0.00000  Uiso   1.00
C405   C     0.88499   0.54475   0.49022   0.00000  Uiso   1.00
C406   C     0.88843   0.56254   0.44017   0.00000  Uiso   1.00
C407   C     0.85541   0.54994   0.41500   0.00000  Uiso   1.00
C408   C     0.84302   0.49867   0.06372   0.00000  Uiso   1.00
C409   C     0.91422   0.53519   0.06566   0.00000  Uiso   1.00
H410   H     0.93937   0.54366   0.08612   0.00000  Uiso   1.00
H411   H     0.85900   0.56297   0.37611   0.00000  Uiso   1.00
H412   H     0.97718   0.38604   0.11609   0.00000  Uiso   1.00
H413   H     0.73872   0.41066   0.10359   0.00000  Uiso   1.00
H414   H     0.87932   0.63368   0.39992   0.00000  Uiso   1.00
H415   H     0.99473   0.48307   0.38682   0.00000  Uiso   1.00
H416   H     0.69624   0.52636   0.39931   0.00000  Uiso   1.00
H417   H     0.98719   0.49859   0.45516   0.00000  Uiso   1.00
H418   H     0.96451   0.42058   0.03315   0.00000  Uiso   1.00
H419   H     0.97023   0.58693   0.14670   0.00000  Uiso   1.00
H420   H     0.76786   0.37119   0.31239   0.00000  Uiso   1.00
H421   H     0.76949   0.62866   0.31393   0.00000  Uiso   1.00
H422   H     0.97211   0.45368   0.18967   0.00000  Uiso   1.00
H423   H     0.69204   0.54770   0.31050   0.00000  Uiso   1.00
H424   H     0.94173   0.54774   0.31041   0.00000  Uiso   1.00
H425   H     0.94911   0.57418   0.49947   0.00000  Uiso   1.00
H426   H     0.81539   0.47580   0.08203   0.00000  Uiso   1.00
H427   H     0.75251   0.49144   0.06650   0.00000  Uiso   1.00
N428   N     0.71426   0.50001   0.25001   0.00000  Uiso   1.00
N429   N     0.95239   0.49998   0.25001   0.00000  Uiso   1.00
O430   O     0.79512   0.56108   0.25000   0.00000  Uiso   1.00
O431   O     0.95623   0.36900   0.14744   0.00000  Uiso   1.00
O432   O     0.76761   0.43204   0.17428   0.00000  Uiso   1.00
O433   O     0.71524   0.43039   0.12966   0.00000  Uiso   1.00
O434   O     0.96807   0.58653   0.40491   0.00000  Uiso   1.00
O435   O     0.91492   0.62979   0.39054   0.00000  Uiso   1.00
O436   O     0.71592   0.46627   0.41340   0.00000  Uiso   1.00
O437   O     0.99792   0.47409   0.07633   0.00000  Uiso   1.00
O438   O     0.99658   0.43016   0.00730   0.00000  Uiso   1.00
O439   O     0.91288   0.62270   0.11766   0.00000  Uiso   1.00
O440   O     0.94558   0.60066   0.17907   0.00000  Uiso   1.00
O441   O     0.87157   0.56107   0.25000   0.00000  Uiso   1.00
O442   O     0.77613   0.50000   0.32681   0.00000  Uiso   1.00
O443   O     0.85258   0.49999   0.32681   0.00000  Uiso   1.00
O444   O     0.79510   0.43893   0.24999   0.00000  Uiso   1.00
O445   O     0.87154   0.43892   0.25000   0.00000  Uiso   1.00
O446   O     0.81409   0.50001   0.17319   0.00000  Uiso   1.00
O447   O     0.89053   0.50000   0.17319   0.00000  Uiso   1.00
O448   O     0.89571   0.40637   0.13776   0.00000  Uiso   1.00
Zn449  Zn    0.78229   0.50001   0.25000   0.00000  Uiso   1.00
Zn450  Zn    0.88438   0.49999   0.25000   0.00000  Uiso   1.00
C451   C     0.16754   0.91323   0.24898   0.00000  Uiso   1.00
C452   C     0.12207   0.83679   0.41161   0.00000  Uiso   1.00
C453   C     0.20639   0.97841   0.20697   0.00000  Uiso   1.00
C454   C     0.14001   0.83456   0.35222   0.00000  Uiso   1.00
C455   C     0.20468   0.68863   0.20502   0.00000  Uiso   1.00
C456   C     0.16681   0.70932   0.24435   0.00000  Uiso   1.00
C457   C     0.13006   0.68798   0.28257   0.00000  Uiso   1.00
C458   C     0.13127   0.97862   0.28378   0.00000  Uiso   1.00
C459   C     0.16932   0.95747   0.24692   0.00000  Uiso   1.00
C460   C     0.31779   0.80750   0.21598   0.00000  Uiso   1.00
C461   C     0.03252   0.80727   0.21463   0.00000  Uiso   1.00
C462   C     0.14195   0.84453   0.49356   0.00000  Uiso   1.00
C463   C     0.01473   0.85970   0.28373   0.00000  Uiso   1.00
C464   C     0.30032   0.85973   0.28364   0.00000  Uiso   1.00
C465   C     0.16656   0.75348   0.24867   0.00000  Uiso   1.00
C466   C     0.19310   0.83410   0.14790   0.00000  Uiso   1.00
C467   C     0.25249   0.88642   0.01607   0.00000  Uiso   1.00
C468   C     0.20848   0.84233   0.09022   0.00000  Uiso   1.00
C469   C     0.07784   0.81737   0.44073   0.00000  Uiso   1.00
C470   C     0.06451   0.81399   0.49730   0.00000  Uiso   1.00
C471   C     0.09680   0.82729   0.02307   0.00000  Uiso   1.00
C472   C     0.24129   0.71214   0.16156   0.00000  Uiso   1.00
C473   C     0.15103   0.85497   0.43958   0.00000  Uiso   1.00
C474   C     0.06365   0.77830   0.17219   0.00000  Uiso   1.00
C475   C     0.25958   0.92672   0.41178   0.00000  Uiso   1.00
C476   C     0.01390   0.82850   0.41406   0.00000  Uiso   1.00
C477   C     0.01790   0.79514   0.02977   0.00000  Uiso   1.00
C478   C     0.24424   0.95505   0.16495   0.00000  Uiso   1.00
C479   C     0.17839   0.85172   0.01624   0.00000  Uiso   1.00
C480   C     0.21832   0.87809   0.49022   0.00000  Uiso   1.00
C481   C     0.22176   0.89588   0.44017   0.00000  Uiso   1.00
C482   C     0.18874   0.88327   0.41500   0.00000  Uiso   1.00
C483   C     0.17635   0.83200   0.06372   0.00000  Uiso   1.00
C484   C     0.24756   0.86852   0.06566   0.00000  Uiso   1.00
H485   H     0.27271   0.87699   0.08612   0.00000  Uiso   1.00
H486   H     0.19233   0.89630   0.37611   0.00000  Uiso   1.00
H487   H     0.31052   0.71938   0.11609   0.00000  Uiso   1.00
H488   H     0.07205   0.74399   0.10359   0.00000  Uiso   1.00
H489   H     0.21265   0.96701   0.39992   0.00000  Uiso   1.00
H490   H     0.32806   0.81641   0.38682   0.00000  Uiso   1.00
H491   H     0.02957   0.85969   0.39931   0.00000  Uiso   1.00
H492   H     0.32053   0.83192   0.45516   0.00000  Uiso   1.00
H493   H     0.29784   0.75391   0.03315   0.00000  Uiso   1.00
H494   H     0.30356   0.92027   0.14670   0.00000  Uiso   1.00
H495   H     0.10119   0.70453   0.31239   0.00000  Uiso   1.00
H496   H     0.10282   0.96199   0.31393   0.00000  Uiso   1.00
H497   H     0.30545   0.78702   0.18967   0.00000  Uiso   1.00
H498   H     0.02538   0.88104   0.31050   0.00000  Uiso   1.00
H499   H     0.27506   0.88107   0.31041   0.00000  Uiso   1.00
H500   H     0.28245   0.90751   0.49947   0.00000  Uiso   1.00
H501   H     0.14872   0.80913   0.08203   0.00000  Uiso   1.00
H502   H     0.08585   0.82477   0.06650   0.00000  Uiso   1.00
N503   N     0.04760   0.83334   0.25001   0.00000  Uiso   1.00
N504   N     0.28573   0.83331   0.25001   0.00000  Uiso   1.00
O505   O     0.12846   0.89442   0.25000   0.00000  Uiso   1.00
O506   O     0.28957   0.70233   0.14744   0.00000  Uiso   1.00
O507   O     0.10094   0.76538   0.17428   0.00000  Uiso   1.00
O508   O     0.04857   0.76372   0.12966   0.00000  Uiso   1.00
O509   O     0.30140   0.91986   0.40491   0.00000  Uiso   1.00
O510   O     0.24825   0.96312   0.39054   0.00000  Uiso   1.00
O511   O     0.04926   0.79960   0.41340   0.00000  Uiso   1.00
O512   O     0.33126   0.80743   0.07633   0.00000  Uiso   1.00
O513   O     0.32992   0.76349   0.00730   0.00000  Uiso   1.00
O514   O     0.24621   0.95604   0.11766   0.00000  Uiso   1.00
O515   O     0.27891   0.93399   0.17907   0.00000  Uiso   1.00
O516   O     0.20490   0.89441   0.25000   0.00000  Uiso   1.00
O517   O     0.10947   0.83333   0.32681   0.00000  Uiso   1.00
O518   O     0.18591   0.83332   0.32681   0.00000  Uiso   1.00
O519   O     0.12843   0.77226   0.24999   0.00000  Uiso   1.00
O520   O     0.20488   0.77225   0.25000   0.00000  Uiso   1.00
O521   O     0.14742   0.83335   0.17319   0.00000  Uiso   1.00
O522   O     0.22387   0.83334   0.17319   0.00000  Uiso   1.00
O523   O     0.22904   0.73970   0.13776   0.00000  Uiso   1.00
Zn524  Zn    0.11562   0.83334   0.25000   0.00000  Uiso   1.00
Zn525  Zn    0.21771   0.83333   0.25000   0.00000  Uiso   1.00
C526   C     0.50088   0.91323   0.24898   0.00000  Uiso   1.00
C527   C     0.45540   0.83679   0.41161   0.00000  Uiso   1.00
C528   C     0.53972   0.97841   0.20697   0.00000  Uiso   1.00
C529   C     0.47335   0.83456   0.35222   0.00000  Uiso   1.00
C530   C     0.53802   0.68863   0.20502   0.00000  Uiso   1.00
C531   C     0.50014   0.70932   0.24435   0.00000  Uiso   1.00
C532   C     0.46339   0.68798   0.28257   0.00000  Uiso   1.00
C533   C     0.46461   0.97862   0.28378   0.00000  Uiso   1.00
C534   C     0.50266   0.95747   0.24692   0.00000  Uiso   1.00
C535   C     0.65112   0.80750   0.21598   0.00000  Uiso   1.00
C536   C     0.36586   0.80727   0.21463   0.00000  Uiso   1.00
C537   C     0.47528   0.84453   0.49356   0.00000  Uiso   1.00
C538   C     0.34806   0.85970   0.28373   0.00000  Uiso   1.00
C539   C     0.63365   0.85973   0.28364   0.00000  Uiso   1.00
C540   C     0.49989   0.75348   0.24867   0.00000  Uiso   1.00
C541   C     0.52643   0.83410   0.14790   0.00000  Uiso   1.00
C542   C     0.58583   0.88642   0.01607   0.00000  Uiso   1.00
C543   C     0.54181   0.84233   0.09022   0.00000  Uiso   1.00
C544   C     0.41118   0.81737   0.44073   0.00000  Uiso   1.00
C545   C     0.39784   0.81399   0.49730   0.00000  Uiso   1.00
C546   C     0.43013   0.82729   0.02307   0.00000  Uiso   1.00
C547   C     0.57463   0.71214   0.16156   0.00000  Uiso   1.00
C548   C     0.48436   0.85497   0.43958   0.00000  Uiso   1.00
C549   C     0.39699   0.77830   0.17219   0.00000  Uiso   1.00
C550   C     0.59291   0.92672   0.41178   0.00000  Uiso   1.00
C551   C     0.34723   0.82850   0.41406   0.00000  Uiso   1.00
C552   C     0.35123   0.79514   0.02977   0.00000  Uiso   1.00
C553   C     0.57758   0.95505   0.16495   0.00000  Uiso   1.00
C554   C     0.51172   0.85172   0.01624   0.00000  Uiso   1.00
C555   C     0.55166   0.87809   0.49022   0.00000  Uiso   1.00
C556   C     0.55509   0.89588   0.44017   0.00000  Uiso   1.00
C557   C     0.52208   0.88327   0.41500   0.00000  Uiso   1.00
C558   C     0.50969   0.83200   0.06372   0.00000  Uiso   1.00
C559   C     0.58089   0.86852   0.06566   0.00000  Uiso   1.00
H560   H     0.60604   0.87699   0.08612   0.00000  Uiso   1.00
H561   H     0.52566   0.89630   0.37611   0.00000  Uiso   1.00
H562   H     0.64385   0.71938   0.11609   0.00000  Uiso   1.00
H563   H     0.40538   0.74399   0.10359   0.00000  Uiso   1.00
H564   H     0.54598   0.96701   0.39992   0.00000  Uiso   1.00
H565   H     0.66139   0.81641   0.38682   0.00000  Uiso   1.00
H566   H     0.36290   0.85969   0.39931   0.00000  Uiso   1.00
H567   H     0.65386   0.83192   0.45516   0.00000  Uiso   1.00
H568   H     0.63117   0.75391   0.03315   0.00000  Uiso   1.00
H569   H     0.63689   0.92027   0.14670   0.00000  Uiso   1.00
H570   H     0.43453   0.70453   0.31239   0.00000  Uiso   1.00
H571   H     0.43616   0.96199   0.31393   0.00000  Uiso   1.00
H572   H     0.63878   0.78702   0.18967   0.00000  Uiso   1.00
H573   H     0.35871   0.88104   0.31050   0.00000  Uiso   1.00
H574   H     0.60840   0.88107   0.31041   0.00000  Uiso   1.00
H575   H     0.61578   0.90751   0.49947   0.00000  Uiso   1.00
H576   H     0.48205   0.80913   0.08203   0.00000  Uiso   1.00
H577   H     0.41918   0.82477   0.06650   0.00000  Uiso   1.00
N578   N     0.38093   0.83334   0.25001   0.00000  Uiso   1.00
N579   N     0.61906   0.83331   0.25001   0.00000  Uiso   1.00
O580   O     0.46179   0.89442   0.25000   0.00000  Uiso   1.00
O581   O     0.62290   0.70233   0.14744   0.00000  Uiso   1.00
O582   O     0.43428   0.76538   0.17428   0.00000  Uiso   1.00
O583   O     0.38190   0.76372   0.12966   0.00000  Uiso   1.00
O584   O     0.63474   0.91986   0.40491   0.00000  Uiso   1.00
O585   O     0.58159   0.96312   0.39054   0.00000  Uiso   1.00
O586   O     0.38259   0.79960   0.41340   0.00000  Uiso   1.00
O587   O     0.66459   0.80743   0.07633   0.00000  Uiso   1.00
O588   O     0.66325   0.76349   0.00730   0.00000  Uiso   1.00
O589   O     0.57954   0.95604   0.11766   0.00000  Uiso   1.00
O590   O     0.61224   0.93399   0.17907   0.00000  Uiso   1.00
O591   O     0.53823   0.89441   0.25000   0.00000  Uiso   1.00
O592   O     0.44280   0.83333   0.32681   0.00000  Uiso   1.00
O593   O     0.51924   0.83332   0.32681   0.00000  Uiso   1.00
O594   O     0.46177   0.77226   0.24999   0.00000  Uiso   1.00
O595   O     0.53821   0.77225   0.25000   0.00000  Uiso   1.00
O596   O     0.48076   0.83335   0.17319   0.00000  Uiso   1.00
O597   O     0.55720   0.83334   0.17319   0.00000  Uiso   1.00
O598   O     0.56237   0.73970   0.13776   0.00000  Uiso   1.00
Zn599  Zn    0.44896   0.83334   0.25000   0.00000  Uiso   1.00
Zn600  Zn    0.55104   0.83333   0.25000   0.00000  Uiso   1.00
C601   C     0.83421   0.91323   0.24898   0.00000  Uiso   1.00
C602   C     0.78873   0.83679   0.41161   0.00000  Uiso   1.00
C603   C     0.87306   0.97841   0.20697   0.00000  Uiso   1.00
C604   C     0.80668   0.83456   0.35222   0.00000  Uiso   1.00
C605   C     0.87135   0.68863   0.20502   0.00000  Uiso   1.00
C606   C     0.83347   0.70932   0.24435   0.00000  Uiso   1.00
C607   C     0.79673   0.68798   0.28257   0.00000  Uiso   1.00
C608   C     0.79794   0.97862   0.28378   0.00000  Uiso   1.00
C609   C     0.83599   0.95747   0.24692   0.00000  Uiso   1.00
C610   C     0.98446   0.80750   0.21598   0.00000  Uiso   1.00
C611   C     0.69919   0.80727   0.21463   0.00000  Uiso   1.00
C612   C     0.80862   0.84453   0.49356   0.00000  Uiso   1.00
C613   C     0.68139   0.85970   0.28373   0.00000  Uiso   1.00
C614   C     0.96698   0.85973   0.28364   0.00000  Uiso   1.00
C615   C     0.83323   0.75348   0.24867   0.00000  Uiso   1.00
C616   C     0.85976   0.83410   0.14790   0.00000  Uiso   1.00
C617   C     0.91916   0.88642   0.01607   0.00000  Uiso   1.00
C618   C     0.87514   0.84233   0.09022   0.00000  Uiso   1.00
C619   C     0.74451   0.81737   0.44073   0.00000  Uiso   1.00
C620   C     0.73117   0.81399   0.49730   0.00000  Uiso   1.00
C621   C     0.76347   0.82729   0.02307   0.00000  Uiso   1.00
C622   C     0.90796   0.71214   0.16156   0.00000  Uiso   1.00
C623   C     0.81769   0.85497   0.43958   0.00000  Uiso   1.00
C624   C     0.73032   0.77830   0.17219   0.00000  Uiso   1.00
C625   C     0.92624   0.92672   0.41178   0.00000  Uiso   1.00
C626   C     0.68057   0.82850   0.41406   0.00000  Uiso   1.00
C627   C     0.68456   0.79514   0.02977   0.00000  Uiso   1.00
C628   C     0.91091   0.95505   0.16495   0.00000  Uiso   1.00
C629   C     0.84506   0.85172   0.01624   0.00000  Uiso   1.00
C630   C     0.88499   0.87809   0.49022   0.00000  Uiso   1.00
C631   C     0.88843   0.89588   0.44017   0.00000  Uiso   1.00
C632   C     0.85541   0.88327   0.41500   0.00000  Uiso   1.00
C633   C     0.84302   0.83200   0.06372   0.00000  Uiso   1.00
C634   C     0.91422   0.86852   0.06566   0.00000  Uiso   1.00
H635   H     0.93937   0.87699   0.08612   0.00000  Uiso   1.00
H636   H     0.85900   0.89630   0.37611   0.00000  Uiso   1.00
H637   H     0.97718   0.71938   0.11609   0.00000  Uiso   1.00
H638   H     0.73872   0.74399   0.10359   0.00000  Uiso   1.00
H639   H     0.87932   0.96701   0.39992   0.00000  Uiso   1.00
H640   H     0.99473   0.81641   0.38682   0.00000  Uiso   1.00
H641   H     0.69624   0.85969   0.39931   0.00000  Uiso   1.00
H642   H     0.98719   0.83192   0.45516   0.00000  Uiso   1.00
H643   H     0.96451   0.75391   0.03315   0.00000  Uiso   1.00
H644   H     0.97023   0.92027   0.14670   0.00000  Uiso   1.00
H645   H     0.76786   0.70453   0.31239   0.00000  Uiso   1.00
H646   H     0.76949   0.96199   0.31393   0.00000  Uiso   1.00
H647   H     0.97211   0.78702   0.18967   0.00000  Uiso   1.00
H648   H     0.69204   0.88104   0.31050   0.00000  Uiso   1.00
H649   H     0.94173   0.88107   0.31041   0.00000  Uiso   1.00
H650   H     0.94911   0.90751   0.49947   0.00000  Uiso   1.00
H651   H     0.81539   0.80913   0.08203   0.00000  Uiso   1.00
H652   H     0.75251   0.82477   0.06650   0.00000  Uiso   1.00
N653   N     0.71426   0.83334   0.25001   0.00000  Uiso   1.00
N654   N     0.95239   0.83331   0.25001   0.00000  Uiso   1.00
O655   O     0.79512   0.89442   0.25000   0.00000  Uiso   1.00
O656   O     0.95623   0.70233   0.14744   0.00000  Uiso   1.00
O657   O     0.76761   0.76538   0.17428   0.00000  Uiso   1.00
O658   O     0.71524   0.76372   0.12966   0.00000  Uiso   1.00
O659   O     0.96807   0.91986   0.40491   0.00000  Uiso   1.00
O660   O     0.91492   0.96312   0.39054   0.00000  Uiso   1.00
O661   O     0.71592   0.79960   0.41340   0.00000  Uiso   1.00
O662   O     0.99792   0.80743   0.07633   0.00000  Uiso   1.00
O663   O     0.99658   0.76349   0.00730   0.00000  Uiso   1.00
O664   O     0.91288   0.95604   0.11766   0.00000  Uiso   1.00
O665   O     0.94558   0.93399   0.17907   0.00000  Uiso   1.00
O666   O     0.87157   0.89441   0.25000   0.00000  Uiso   1.00
O667   O     0.77613   0.83333   0.32681   0.00000  Uiso   1.00
O668   O     0.85258   0.83332   0.32681   0.00000  Uiso   1.00
O669   O     0.79510   0.77226   0.24999   0.00000  Uiso   1.00
O670   O     0.87154   0.77225   0.25000   0.00000  Uiso   1.00
O671   O     0.81409   0.83335   0.17319   0.00000  Uiso   1.00
O672   O     0.89053   0.83334   0.17319   0.00000  Uiso   1.00
O673   O     0.89571   0.73970   0.13776   0.00000  Uiso   1.00
Zn674  Zn    0.78229   0.83334   0.25000   0.00000  Uiso   1.00
Zn675  Zn    0.88438   0.83333   0.25000   0.00000  Uiso   1.00
C676   C     0.16754   0.24656   0.74898   0.00000  Uiso   1.00
C677   C     0.12207   0.17013   0.91161   0.00000  Uiso   1.00
C678   C     0.20639   0.31174   0.70697   0.00000  Uiso   1.00
C679   C     0.14001   0.16789   0.85222   0.00000  Uiso   1.00
C680   C     0.20468   0.02196   0.70502   0.00000  Uiso   1.00
C681   C     0.16681   0.04265   0.74435   0.00000  Uiso   1.00
C682   C     0.13006   0.02131   0.78257   0.00000  Uiso   1.00
C683   C     0.13127   0.31195   0.78378   0.00000  Uiso   1.00
C684   C     0.16932   0.29081   0.74692   0.00000  Uiso   1.00
C685   C     0.31779   0.14084   0.71598   0.00000  Uiso   1.00
C686   C     0.03252   0.14061   0.71463   0.00000  Uiso   1.00
C687   C     0.14195   0.17786   0.99356   0.00000  Uiso   1.00
C688   C     0.01473   0.19304   0.78373   0.00000  Uiso   1.00
C689   C     0.30032   0.19306   0.78364   0.00000  Uiso   1.00
C690   C     0.16656   0.08681   0.74867   0.00000  Uiso   1.00
C691   C     0.19310   0.16743   0.64790   0.00000  Uiso   1.00
C692   C     0.25249   0.21975   0.51607   0.00000  Uiso   1.00
C693   C     0.20848   0.17567   0.59022   0.00000  Uiso   1.00
C694   C     0.07784   0.15070   0.94073   0.00000  Uiso   1.00
C695   C     0.06451   0.14732   0.99730   0.00000  Uiso   1.00
C696   C     0.09680   0.16063   0.52307   0.00000  Uiso   1.00
C697   C     0.24129   0.04547   0.66156   0.00000  Uiso   1.00
C698   C     0.15103   0.18830   0.93958   0.00000  Uiso   1.00
C699   C     0.06365   0.11164   0.67219   0.00000  Uiso   1.00
C700   C     0.25958   0.26005   0.91178   0.00000  Uiso   1.00
C701   C     0.01390   0.16184   0.91406   0.00000  Uiso   1.00
C702   C     0.01790   0.12848   0.52977   0.00000  Uiso   1.00
C703   C     0.24424   0.28839   0.66495   0.00000  Uiso   1.00
C704   C     0.17839   0.18506   0.51624   0.00000  Uiso   1.00
C705   C     0.21832   0.21142   0.99022   0.00000  Uiso   1.00
C706   C     0.22176   0.22921   0.94017   0.00000  Uiso   1.00
C707   C     0.18874   0.21660   0.91500   0.00000  Uiso   1.00
C708   C     0.17635   0.16533   0.56372   0.00000  Uiso   1.00
C709   C     0.24756   0.20185   0.56566   0.00000  Uiso   1.00
H710   H     0.27271   0.21032   0.58612   0.00000  Uiso   1.00
H711   H     0.19233   0.22963   0.87611   0.00000  Uiso   1.00
H712   H     0.31052   0.05271   0.61609   0.00000  Uiso   1.00
H713   H     0.07205   0.07733   0.60359   0.00000  Uiso   1.00
H714   H     0.21265   0.30034   0.89992   0.00000  Uiso   1.00
H715   H     0.32806   0.14974   0.88682   0.00000  Uiso   1.00
H716   H     0.02957   0.19303   0.89931   0.00000  Uiso   1.00
H717   H     0.32053   0.16526   0.95516   0.00000  Uiso   1.00
H718   H     0.29784   0.08724   0.53315   0.00000  Uiso   1.00
H719   H     0.30356   0.25360   0.64670   0.00000  Uiso   1.00
H720   H     0.10119   0.03786   0.81239   0.00000  Uiso   1.00
H721   H     0.10282   0.29532   0.81393   0.00000  Uiso   1.00
H722   H     0.30545   0.12035   0.68967   0.00000  Uiso   1.00
H723   H     0.02538   0.21437   0.81050   0.00000  Uiso   1.00
H724   H     0.27506   0.21441   0.81041   0.00000  Uiso   1.00
H725   H     0.28245   0.24084   0.99947   0.00000  Uiso   1.00
H726   H     0.14872   0.14247   0.58203   0.00000  Uiso   1.00
H727   H     0.08585   0.15811   0.56650   0.00000  Uiso   1.00
N728   N     0.04760   0.16668   0.75001   0.00000  Uiso   1.00
N729   N     0.28573   0.16665   0.75001   0.00000  Uiso   1.00
O730   O     0.12846   0.22775   0.75000   0.00000  Uiso   1.00
O731   O     0.28957   0.03566   0.64744   0.00000  Uiso   1.00
O732   O     0.10094   0.09871   0.67428   0.00000  Uiso   1.00
O733   O     0.04857   0.09705   0.62966   0.00000  Uiso   1.00
O734   O     0.30140   0.25319   0.90491   0.00000  Uiso   1.00
O735   O     0.24825   0.29645   0.89054   0.00000  Uiso   1.00
O736   O     0.04926   0.13294   0.91340   0.00000  Uiso   1.00
O737   O     0.33126   0.14076   0.57633   0.00000  Uiso   1.00
O738   O     0.32992   0.09682   0.50730   0.00000  Uiso   1.00
O739   O     0.24621   0.28937   0.61766   0.00000  Uiso   1.00
O740   O     0.27891   0.26732   0.67907   0.00000  Uiso   1.00
O741   O     0.20490   0.22774   0.75000   0.00000  Uiso   1.00
O742   O     0.10947   0.16666   0.82681   0.00000  Uiso   1.00
O743   O     0.18591   0.16665   0.82681   0.00000  Uiso   1.00
O744   O     0.12843   0.10559   0.74999   0.00000  Uiso   1.00
O745   O     0.20488   0.10558   0.75000   0.00000  Uiso   1.00
O746   O     0.14742   0.16668   0.67319   0.00000  Uiso   1.00
O747   O     0.22387   0.16667   0.67319   0.00000  Uiso   1.00
O748   O     0.22904   0.07303   0.63776   0.00000  Uiso   1.00
Zn749  Zn    0.11562   0.16667   0.75000   0.00000  Uiso   1.00
Zn750  Zn    0.21771   0.16666   0.75000   0.00000  Uiso   1.00
C751   C     0.50088   0.24656   0.74898   0.00000  Uiso   1.00
C752   C     0.45540   0.17013   0.91161   0.00000  Uiso   1.00
C753   C     0.53972   0.31174   0.70697   0.00000  Uiso   1.00
C754   C     0.47335   0.16789   0.85222   0.00000  Uiso   1.00
C755   C     0.53802   0.02196   0.70502   0.00000  Uiso   1.00
C756   C     0.50014   0.04265   0.74435   0.00000  Uiso   1.00
C757   C     0.46339   0.02131   0.78257   0.00000  Uiso   1.00
C758   C     0.46461   0.31195   0.78378   0.00000  Uiso   1.00
C759   C     0.50266   0.29081   0.74692   0.00000  Uiso   1.00
C760   C     0.65112   0.14084   0.71598   0.00000  Uiso   1.00
C761   C     0.36586   0.14061   0.71463   0.00000  Uiso   1.00
C762   C     0.47528   0.17786   0.99356   0.00000  Uiso   1.00
C763   C     0.34806   0.19304   0.78373   0.00000  Uiso   1.00
C764   C     0.63365   0.19306   0.78364   0.00000  Uiso   1.00
C765   C     0.49989   0.08681   0.74867   0.00000  Uiso   1.00
C766   C     0.52643   0.16743   0.64790   0.00000  Uiso   1.00
C767   C     0.58583   0.21975   0.51607   0.00000  Uiso   1.00
C768   C     0.54181   0.17567   0.59022   0.00000  Uiso   1.00
C769   C     0.41118   0.15070   0.94073   0.00000  Uiso   1.00
C770   C     0.39784   0.14732   0.99730   0.00000  Uiso   1.00
C771   C     0.43013   0.16063   0.52307   0.00000  Uiso   1.00
C772   C     0.57463   0.04547   0.66156   0.00000  Uiso   1.00
C773   C     0.48436   0.18830   0.93958   0.00000  Uiso   1.00
C774   C     0.39699   0.11164   0.67219   0.00000  Uiso   1.00
C775   C     0.59291   0.26005   0.91178   0.00000  Uiso   1.00
C776   C     0.34723   0.16184   0.91406   0.00000  Uiso   1.00
C777   C     0.35123   0.12848   0.52977   0.00000  Uiso   1.00
C778   C     0.57758   0.28839   0.66495   0.00000  Uiso   1.00
C779   C     0.51172   0.18506   0.51624   0.00000  Uiso   1.00
C780   C     0.55166   0.21142   0.99022   0.00000  Uiso   1.00
C781   C     0.55509   0.22921   0.94017   0.00000  Uiso   1.00
C782   C     0.52208   0.21660   0.91500   0.00000  Uiso   1.00
C783   C     0.50969   0.16533   0.56372   0.00000  Uiso   1.00
C784   C     0.58089   0.20185   0.56566   0.00000  Uiso   1.00
H785   H     0.60604   0.21032   0.58612   0.00000  Uiso   1.00
H786   H     0.52566   0.22963   0.87611   0.00000  Uiso   1.00
H787   H     0.64385   0.05271   0.61609   0.00000  Uiso   1.00
H788   H     0.40538   0.07733   0.60359   0.00000  Uiso   1.00
H789   H     0.54598   0.30034   0.89992   0.00000  Uiso   1.00
H790   H     0.66139   0.14974   0.88682   0.00000  Uiso   1.00
H791   H     0.36290   0.19303   0.89931   0.00000  Uiso   1.00
H792   H     0.65386   0.16526   0.95516   0.00000  Uiso   1.00
H793   H     0.63117   0.08724   0.53315   0.00000  Uiso   1.00
H794   H     0.63689   0.25360   0.64670   0.00000  Uiso   1.00
H795   H     0.43453   0.03786   0.81239   0.00000  Uiso   1.00
H796   H     0.43616   0.29532   0.81393   0.00000  Uiso   1.00
H797   H     0.63878   0.12035   0.68967   0.00000  Uiso   1.00
H798   H     0.35871   0.21437   0.81050   0.00000  Uiso   1.00
H799   H     0.60840   0.21441   0.81041   0.00000  Uiso   1.00
H800   H     0.61578   0.24084   0.99947   0.00000  Uiso   1.00
H801   H     0.48205   0.14247   0.58203   0.00000  Uiso   1.00
H802   H     0.41918   0.15811   0.56650   0.00000  Uiso   1.00
N803   N     0.38093   0.16668   0.75001   0.00000  Uiso   1.00
N804   N     0.61906   0.16665   0.75001   0.00000  Uiso   1.00
O805   O     0.46179   0.22775   0.75000   0.00000  Uiso   1.00
O806   O     0.62290   0.03566   0.64744   0.00000  Uiso   1.00
O807   O     0.43428   0.09871   0.67428   0.00000  Uiso   1.00
O808   O     0.38190   0.09705   0.62966   0.00000  Uiso   1.00
O809   O     0.63474   0.25319   0.90491   0.00000  Uiso   1.00
O810   O     0.58159   0.29645   0.89054   0.00000  Uiso   1.00
O811   O     0.38259   0.13294   0.91340   0.00000  Uiso   1.00
O812   O     0.66459   0.14076   0.57633   0.00000  Uiso   1.00
O813   O     0.66325   0.09682   0.50730   0.00000  Uiso   1.00
O814   O     0.57954   0.28937   0.61766   0.00000  Uiso   1.00
O815   O     0.61224   0.26732   0.67907   0.00000  Uiso   1.00
O816   O     0.53823   0.22774   0.75000   0.00000  Uiso   1.00
O817   O     0.44280   0.16666   0.82681   0.00000  Uiso   1.00
O818   O     0.51924   0.16665   0.82681   0.00000  Uiso   1.00
O819   O     0.46177   0.10559   0.74999   0.00000  Uiso   1.00
O820   O     0.53821   0.10558   0.75000   0.00000  Uiso   1.00
O821   O     0.48076   0.16668   0.67319   0.00000  Uiso   1.00
O822   O     0.55720   0.16667   0.67319   0.00000  Uiso   1.00
O823   O     0.56237   0.07303   0.63776   0.00000  Uiso   1.00
Zn824  Zn    0.44896   0.16667   0.75000   0.00000  Uiso   1.00
Zn825  Zn    0.55104   0.16666   0.75000   0.00000  Uiso   1.00
C826   C     0.83421   0.24656   0.74898   0.00000  Uiso   1.00
C827   C     0.78873   0.17013   0.91161   0.00000  Uiso   1.00
C828   C     0.87306   0.31174   0.70697   0.00000  Uiso   1.00
C829   C     0.80668   0.16789   0.85222   0.00000  Uiso   1.00
C830   C     0.87135   0.02196   0.70502   0.00000  Uiso   1.00
C831   C     0.83347   0.04265   0.74435   0.00000  Uiso   1.00
C832   C     0.79673   0.02131   0.78257   0.00000  Uiso   1.00
C833   C     0.79794   0.31195   0.78378   0.00000  Uiso   1.00
C834   C     0.83599   0.29081   0.74692   0.00000  Uiso   1.00
C835   C     0.98446   0.14084   0.71598   0.00000  Uiso   1.00
C836   C     0.69919   0.14061   0.71463   0.00000  Uiso   1.00
C837   C     0.80862   0.17786   0.99356   0.00000  Uiso   1.00
C838   C     0.68139   0.19304   0.78373   0.00000  Uiso   1.00
C839   C     0.96698   0.19306   0.78364   0.00000  Uiso   1.00
C840   C     0.83323   0.08681   0.74867   0.00000  Uiso   1.00
C841   C     0.85976   0.16743   0.64790   0.00000  Uiso   1.00
C842   C     0.91916   0.21975   0.51607   0.00000  Uiso   1.00
C843   C     0.87514   0.17567   0.59022   0.00000  Uiso   1.00
C844   C     0.74451   0.15070   0.94073   0.00000  Uiso   1.00
C845   C     0.73117   0.14732   0.99730   0.00000  Uiso   1.00
C846   C     0.76347   0.16063   0.52307   0.00000  Uiso   1.00
C847   C     0.90796   0.04547   0.66156   0.00000  Uiso   1.00
C848   C     0.81769   0.18830   0.93958   0.00000  Uiso   1.00
C849   C     0.73032   0.11164   0.67219   0.00000  Uiso   1.00
C850   C     0.92624   0.26005   0.91178   0.00000  Uiso   1.00
C851   C     0.68057   0.16184   0.91406   0.00000  Uiso   1.00
C852   C     0.68456   0.12848   0.52977   0.00000  Uiso   1.00
C853   C     0.91091   0.28839   0.66495   0.00000  Uiso   1.00
C854   C     0.84506   0.18506   0.51624   0.00000  Uiso   1.00
C855   C     0.88499   0.21142   0.99022   0.00000  Uiso   1.00
C856   C     0.88843   0.22921   0.94017   0.00000  Uiso   1.00
C857   C     0.85541   0.21660   0.91500   0.00000  Uiso   1.00
C858   C     0.84302   0.16533   0.56372   0.00000  Uiso   1.00
C859   C     0.91422   0.20185   0.56566   0.00000  Uiso   1.00
H860   H     0.93937   0.21032   0.58612   0.00000  Uiso   1.00
H861   H     0.85900   0.22963   0.87611   0.00000  Uiso   1.00
H862   H     0.97718   0.05271   0.61609   0.00000  Uiso   1.00
H863   H     0.73872   0.07733   0.60359   0.00000  Uiso   1.00
H864   H     0.87932   0.30034   0.89992   0.00000  Uiso   1.00
H865   H     0.99473   0.14974   0.88682   0.00000  Uiso   1.00
H866   H     0.69624   0.19303   0.89931   0.00000  Uiso   1.00
H867   H     0.98719   0.16526   0.95516   0.00000  Uiso   1.00
H868   H     0.96451   0.08724   0.53315   0.00000  Uiso   1.00
H869   H     0.97023   0.25360   0.64670   0.00000  Uiso   1.00
H870   H     0.76786   0.03786   0.81239   0.00000  Uiso   1.00
H871   H     0.76949   0.29532   0.81393   0.00000  Uiso   1.00
H872   H     0.97211   0.12035   0.68967   0.00000  Uiso   1.00
H873   H     0.69204   0.21437   0.81050   0.00000  Uiso   1.00
H874   H     0.94173   0.21441   0.81041   0.00000  Uiso   1.00
H875   H     0.94911   0.24084   0.99947   0.00000  Uiso   1.00
H876   H     0.81539   0.14247   0.58203   0.00000  Uiso   1.00
H877   H     0.75251   0.15811   0.56650   0.00000  Uiso   1.00
N878   N     0.71426   0.16668   0.75001   0.00000  Uiso   1.00
N879   N     0.95239   0.16665   0.75001   0.00000  Uiso   1.00
O880   O     0.79512   0.22775   0.75000   0.00000  Uiso   1.00
O881   O     0.95623   0.03566   0.64744   0.00000  Uiso   1.00
O882   O     0.76761   0.09871   0.67428   0.00000  Uiso   1.00
O883   O     0.71524   0.09705   0.62966   0.00000  Uiso   1.00
O884   O     0.96807   0.25319   0.90491   0.00000  Uiso   1.00
O885   O     0.91492   0.29645   0.89054   0.00000  Uiso   1.00
O886   O     0.71592   0.13294   0.91340   0.00000  Uiso   1.00
O887   O     0.99792   0.14076   0.57633   0.00000  Uiso   1.00
O888   O     0.99658   0.09682   0.50730   0.00000  Uiso   1.00
O889   O     0.91288   0.28937   0.61766   0.00000  Uiso   1.00
O890   O     0.94558   0.26732   0.67907   0.00000  Uiso   1.00
O891   O     0.87157   0.22774   0.75000   0.00000  Uiso   1.00
O892   O     0.77613   0.16666   0.82681   0.00000  Uiso   1.00
O893   O     0.85258   0.16665   0.82681   0.00000  Uiso   1.00
O894   O     0.79510   0.10559   0.74999   0.00000  Uiso   1.00
O895   O     0.87154   0.10558   0.75000   0.00000  Uiso   1.00
O896   O     0.81409   0.16668   0.67319   0.00000  Uiso   1.00
O897   O     0.89053   0.16667   0.67319   0.00000  Uiso   1.00
O898   O     0.89571   0.07303   0.63776   0.00000  Uiso   1.00
Zn899  Zn    0.78229   0.16667   0.75000   0.00000  Uiso   1.00
Zn900  Zn    0.88438   0.16666   0.75000   0.00000  Uiso   1.00
C901   C     0.16754   0.57990   0.74898   0.00000  Uiso   1.00
C902   C     0.12207   0.50346   0.91161   0.00000  Uiso   1.00
C903   C     0.20639   0.64507   0.70697   0.00000  Uiso   1.00
C904   C     0.14001   0.50123   0.85222   0.00000  Uiso   1.00
C905   C     0.20468   0.35529   0.70502   0.00000  Uiso   1.00
C906   C     0.16681   0.37598   0.74435   0.00000  Uiso   1.00
C907   C     0.13006   0.35465   0.78257   0.00000  Uiso   1.00
C908   C     0.13127   0.64529   0.78378   0.00000  Uiso   1.00
C909   C     0.16932   0.62414   0.74692   0.00000  Uiso   1.00
C910   C     0.31779   0.47417   0.71598   0.00000  Uiso   1.00
C911   C     0.03252   0.47394   0.71463   0.00000  Uiso   1.00
C912   C     0.14195   0.51119   0.99356   0.00000  Uiso   1.00
C913   C     0.01473   0.52637   0.78373   0.00000  Uiso   1.00
C914   C     0.30032   0.52639   0.78364   0.00000  Uiso   1.00
C915   C     0.16656   0.42014   0.74867   0.00000  Uiso   1.00
C916   C     0.19310   0.50077   0.64790   0.00000  Uiso   1.00
C917   C     0.25249   0.55308   0.51607   0.00000  Uiso   1.00
C918   C     0.20848   0.50900   0.59022   0.00000  Uiso   1.00
C919   C     0.07784   0.48403   0.94073   0.00000  Uiso   1.00
C920   C     0.06451   0.48066   0.99730   0.00000  Uiso   1.00
C921   C     0.09680   0.49396   0.52307   0.00000  Uiso   1.00
C922   C     0.24129   0.37881   0.66156   0.00000  Uiso   1.00
C923   C     0.15103   0.52164   0.93958   0.00000  Uiso   1.00
C924   C     0.06365   0.44497   0.67219   0.00000  Uiso   1.00
C925   C     0.25958   0.59338   0.91178   0.00000  Uiso   1.00
C926   C     0.01390   0.49517   0.91406   0.00000  Uiso   1.00
C927   C     0.01790   0.46181   0.52977   0.00000  Uiso   1.00
C928   C     0.24424   0.62172   0.66495   0.00000  Uiso   1.00
C929   C     0.17839   0.51839   0.51624   0.00000  Uiso   1.00
C930   C     0.21832   0.54475   0.99022   0.00000  Uiso   1.00
C931   C     0.22176   0.56254   0.94017   0.00000  Uiso   1.00
C932   C     0.18874   0.54994   0.91500   0.00000  Uiso   1.00
C933   C     0.17635   0.49867   0.56372   0.00000  Uiso   1.00
C934   C     0.24756   0.53519   0.56566   0.00000  Uiso   1.00
H935   H     0.27271   0.54366   0.58612   0.00000  Uiso   1.00
H936   H     0.19233   0.56297   0.87611   0.00000  Uiso   1.00
H937   H     0.31052   0.38604   0.61609   0.00000  Uiso   1.00
H938   H     0.07205   0.41066   0.60359   0.00000  Uiso   1.00
H939   H     0.21265   0.63368   0.89992   0.00000  Uiso   1.00
H940   H     0.32806   0.48307   0.88682   0.00000  Uiso   1.00
H941   H     0.02957   0.52636   0.89931   0.00000  Uiso   1.00
H942   H     0.32053   0.49859   0.95516   0.00000  Uiso   1.00
H943   H     0.29784   0.42058   0.53315   0.00000  Uiso   1.00
H944   H     0.30356   0.58693   0.64670   0.00000  Uiso   1.00
H945   H     0.10119   0.37119   0.81239   0.00000  Uiso   1.00
H946   H     0.10282   0.62866   0.81393   0.00000  Uiso   1.00
H947   H     0.30545   0.45368   0.68967   0.00000  Uiso   1.00
H948   H     0.02538   0.54770   0.81050   0.00000  Uiso   1.00
H949   H     0.27506   0.54774   0.81041   0.00000  Uiso   1.00
H950   H     0.28245   0.57418   0.99947   0.00000  Uiso   1.00
H951   H     0.14872   0.47580   0.58203   0.00000  Uiso   1.00
H952   H     0.08585   0.49144   0.56650   0.00000  Uiso   1.00
N953   N     0.04760   0.50001   0.75001   0.00000  Uiso   1.00
N954   N     0.28573   0.49998   0.75001   0.00000  Uiso   1.00
O955   O     0.12846   0.56108   0.75000   0.00000  Uiso   1.00
O956   O     0.28957   0.36900   0.64744   0.00000  Uiso   1.00
O957   O     0.10094   0.43204   0.67428   0.00000  Uiso   1.00
O958   O     0.04857   0.43039   0.62966   0.00000  Uiso   1.00
O959   O     0.30140   0.58653   0.90491   0.00000  Uiso   1.00
O960   O     0.24825   0.62979   0.89054   0.00000  Uiso   1.00
O961   O     0.04926   0.46627   0.91340   0.00000  Uiso   1.00
O962   O     0.33126   0.47409   0.57633   0.00000  Uiso   1.00
O963   O     0.32992   0.43016   0.50730   0.00000  Uiso   1.00
O964   O     0.24621   0.62270   0.61766   0.00000  Uiso   1.00
O965   O     0.27891   0.60066   0.67907   0.00000  Uiso   1.00
O966   O     0.20490   0.56107   0.75000   0.00000  Uiso   1.00
O967   O     0.10947   0.50000   0.82681   0.00000  Uiso   1.00
O968   O     0.18591   0.49999   0.82681   0.00000  Uiso   1.00
O969   O     0.12843   0.43893   0.74999   0.00000  Uiso   1.00
O970   O     0.20488   0.43892   0.75000   0.00000  Uiso   1.00
O971   O     0.14742   0.50001   0.67319   0.00000  Uiso   1.00
O972   O     0.22387   0.50000   0.67319   0.00000  Uiso   1.00
O973   O     0.22904   0.40637   0.63776   0.00000  Uiso   1.00
Zn974  Zn    0.11562   0.50001   0.75000   0.00000  Uiso   1.00
Zn975  Zn    0.21771   0.49999   0.75000   0.00000  Uiso   1.00
C976   C     0.50088   0.57990   0.74898   0.00000  Uiso   1.00
C977   C     0.45540   0.50346   0.91161   0.00000  Uiso   1.00
C978   C     0.53972   0.64507   0.70697   0.00000  Uiso   1.00
C979   C     0.47335   0.50123   0.85222   0.00000  Uiso   1.00
C980   C     0.53802   0.35529   0.70502   0.00000  Uiso   1.00
C981   C     0.50014   0.37598   0.74435   0.00000  Uiso   1.00
C982   C     0.46339   0.35465   0.78257   0.00000  Uiso   1.00
C983   C     0.46461   0.64529   0.78378   0.00000  Uiso   1.00
C984   C     0.50266   0.62414   0.74692   0.00000  Uiso   1.00
C985   C     0.65112   0.47417   0.71598   0.00000  Uiso   1.00
C986   C     0.36586   0.47394   0.71463   0.00000  Uiso   1.00
C987   C     0.47528   0.51119   0.99356   0.00000  Uiso   1.00
C988   C     0.34806   0.52637   0.78373   0.00000  Uiso   1.00
C989   C     0.63365   0.52639   0.78364   0.00000  Uiso   1.00
C990   C     0.49989   0.42014   0.74867   0.00000  Uiso   1.00
C991   C     0.52643   0.50077   0.64790   0.00000  Uiso   1.00
C992   C     0.58583   0.55308   0.51607   0.00000  Uiso   1.00
C993   C     0.54181   0.50900   0.59022   0.00000  Uiso   1.00
C994   C     0.41118   0.48403   0.94073   0.00000  Uiso   1.00
C995   C     0.39784   0.48066   0.99730   0.00000  Uiso   1.00
C996   C     0.43013   0.49396   0.52307   0.00000  Uiso   1.00
C997   C     0.57463   0.37881   0.66156   0.00000  Uiso   1.00
C998   C     0.48436   0.52164   0.93958   0.00000  Uiso   1.00
C999   C     0.39699   0.44497   0.67219   0.00000  Uiso   1.00
C1000  C     0.59291   0.59338   0.91178   0.00000  Uiso   1.00
C1001  C     0.34723   0.49517   0.91406   0.00000  Uiso   1.00
C1002  C     0.35123   0.46181   0.52977   0.00000  Uiso   1.00
C1003  C     0.57758   0.62172   0.66495   0.00000  Uiso   1.00
C1004  C     0.51172   0.51839   0.51624   0.00000  Uiso   1.00
C1005  C     0.55166   0.54475   0.99022   0.00000  Uiso   1.00
C1006  C     0.55509   0.56254   0.94017   0.00000  Uiso   1.00
C1007  C     0.52208   0.54994   0.91500   0.00000  Uiso   1.00
C1008  C     0.50969   0.49867   0.56372   0.00000  Uiso   1.00
C1009  C     0.58089   0.53519   0.56566   0.00000  Uiso   1.00
H1010  H     0.60604   0.54366   0.58612   0.00000  Uiso   1.00
H1011  H     0.52566   0.56297   0.87611   0.00000  Uiso   1.00
H1012  H     0.64385   0.38604   0.61609   0.00000  Uiso   1.00
H1013  H     0.40538   0.41066   0.60359   0.00000  Uiso   1.00
H1014  H     0.54598   0.63368   0.89992   0.00000  Uiso   1.00
H1015  H     0.66139   0.48307   0.88682   0.00000  Uiso   1.00
H1016  H     0.36290   0.52636   0.89931   0.00000  Uiso   1.00
H1017  H     0.65386   0.49859   0.95516   0.00000  Uiso   1.00
H1018  H     0.63117   0.42058   0.53315   0.00000  Uiso   1.00
H1019  H     0.63689   0.58693   0.64670   0.00000  Uiso   1.00
H1020  H     0.43453   0.37119   0.81239   0.00000  Uiso   1.00
H1021  H     0.43616   0.62866   0.81393   0.00000  Uiso   1.00
H1022  H     0.63878   0.45368   0.68967   0.00000  Uiso   1.00
H1023  H     0.35871   0.54770   0.81050   0.00000  Uiso   1.00
H1024  H     0.60840   0.54774   0.81041   0.00000  Uiso   1.00
H1025  H     0.61578   0.57418   0.99947   0.00000  Uiso   1.00
H1026  H     0.48205   0.47580   0.58203   0.00000  Uiso   1.00
H1027  H     0.41918   0.49144   0.56650   0.00000  Uiso   1.00
N1028  N     0.38093   0.50001   0.75001   0.00000  Uiso   1.00
N1029  N     0.61906   0.49998   0.75001   0.00000  Uiso   1.00
O1030  O     0.46179   0.56108   0.75000   0.00000  Uiso   1.00
O1031  O     0.62290   0.36900   0.64744   0.00000  Uiso   1.00
O1032  O     0.43428   0.43204   0.67428   0.00000  Uiso   1.00
O1033  O     0.38190   0.43039   0.62966   0.00000  Uiso   1.00
O1034  O     0.63474   0.58653   0.90491   0.00000  Uiso   1.00
O1035  O     0.58159   0.62979   0.89054   0.00000  Uiso   1.00
O1036  O     0.38259   0.46627   0.91340   0.00000  Uiso   1.00
O1037  O     0.66459   0.47409   0.57633   0.00000  Uiso   1.00
O1038  O     0.66325   0.43016   0.50730   0.00000  Uiso   1.00
O1039  O     0.57954   0.62270   0.61766   0.00000  Uiso   1.00
O1040  O     0.61224   0.60066   0.67907   0.00000  Uiso   1.00
O1041  O     0.53823   0.56107   0.75000   0.00000  Uiso   1.00
O1042  O     0.44280   0.50000   0.82681   0.00000  Uiso   1.00
O1043  O     0.51924   0.49999   0.82681   0.00000  Uiso   1.00
O1044  O     0.46177   0.43893   0.74999   0.00000  Uiso   1.00
O1045  O     0.53821   0.43892   0.75000   0.00000  Uiso   1.00
O1046  O     0.48076   0.50001   0.67319   0.00000  Uiso   1.00
O1047  O     0.55720   0.50000   0.67319   0.00000  Uiso   1.00
O1048  O     0.56237   0.40637   0.63776   0.00000  Uiso   1.00
Zn1049 Zn    0.44896   0.50001   0.75000   0.00000  Uiso   1.00
Zn1050 Zn    0.55104   0.49999   0.75000   0.00000  Uiso   1.00
C1051  C     0.83421   0.57990   0.74898   0.00000  Uiso   1.00
C1052  C     0.78873   0.50346   0.91161   0.00000  Uiso   1.00
C1053  C     0.87306   0.64507   0.70697   0.00000  Uiso   1.00
C1054  C     0.80668   0.50123   0.85222   0.00000  Uiso   1.00
C1055  C     0.87135   0.35529   0.70502   0.00000  Uiso   1.00
C1056  C     0.83347   0.37598   0.74435   0.00000  Uiso   1.00
C1057  C     0.79673   0.35465   0.78257   0.00000  Uiso   1.00
C1058  C     0.79794   0.64529   0.78378   0.00000  Uiso   1.00
C1059  C     0.83599   0.62414   0.74692   0.00000  Uiso   1.00
C1060  C     0.98446   0.47417   0.71598   0.00000  Uiso   1.00
C1061  C     0.69919   0.47394   0.71463   0.00000  Uiso   1.00
C1062  C     0.80862   0.51119   0.99356   0.00000  Uiso   1.00
C1063  C     0.68139   0.52637   0.78373   0.00000  Uiso   1.00
C1064  C     0.96698   0.52639   0.78364   0.00000  Uiso   1.00
C1065  C     0.83323   0.42014   0.74867   0.00000  Uiso   1.00
C1066  C     0.85976   0.50077   0.64790   0.00000  Uiso   1.00
C1067  C     0.91916   0.55308   0.51607   0.00000  Uiso   1.00
C1068  C     0.87514   0.50900   0.59022   0.00000  Uiso   1.00
C1069  C     0.74451   0.48403   0.94073   0.00000  Uiso   1.00
C1070  C     0.73117   0.48066   0.99730   0.00000  Uiso   1.00
C1071  C     0.76347   0.49396   0.52307   0.00000  Uiso   1.00
C1072  C     0.90796   0.37881   0.66156   0.00000  Uiso   1.00
C1073  C     0.81769   0.52164   0.93958   0.00000  Uiso   1.00
C1074  C     0.73032   0.44497   0.67219   0.00000  Uiso   1.00
C1075  C     0.92624   0.59338   0.91178   0.00000  Uiso   1.00
C1076  C     0.68057   0.49517   0.91406   0.00000  Uiso   1.00
C1077  C     0.68456   0.46181   0.52977   0.00000  Uiso   1.00
C1078  C     0.91091   0.62172   0.66495   0.00000  Uiso   1.00
C1079  C     0.84506   0.51839   0.51624   0.00000  Uiso   1.00
C1080  C     0.88499   0.54475   0.99022   0.00000  Uiso   1.00
C1081  C     0.88843   0.56254   0.94017   0.00000  Uiso   1.00
C1082  C     0.85541   0.54994   0.91500   0.00000  Uiso   1.00
C1083  C     0.84302   0.49867   0.56372   0.00000  Uiso   1.00
C1084  C     0.91422   0.53519   0.56566   0.00000  Uiso   1.00
H1085  H     0.93937   0.54366   0.58612   0.00000  Uiso   1.00
H1086  H     0.85900   0.56297   0.87611   0.00000  Uiso   1.00
H1087  H     0.97718   0.38604   0.61609   0.00000  Uiso   1.00
H1088  H     0.73872   0.41066   0.60359   0.00000  Uiso   1.00
H1089  H     0.87932   0.63368   0.89992   0.00000  Uiso   1.00
H1090  H     0.99473   0.48307   0.88682   0.00000  Uiso   1.00
H1091  H     0.69624   0.52636   0.89931   0.00000  Uiso   1.00
H1092  H     0.98719   0.49859   0.95516   0.00000  Uiso   1.00
H1093  H     0.96451   0.42058   0.53315   0.00000  Uiso   1.00
H1094  H     0.97023   0.58693   0.64670   0.00000  Uiso   1.00
H1095  H     0.76786   0.37119   0.81239   0.00000  Uiso   1.00
H1096  H     0.76949   0.62866   0.81393   0.00000  Uiso   1.00
H1097  H     0.97211   0.45368   0.68967   0.00000  Uiso   1.00
H1098  H     0.69204   0.54770   0.81050   0.00000  Uiso   1.00
H1099  H     0.94173   0.54774   0.81041   0.00000  Uiso   1.00
H1100  H     0.94911   0.57418   0.99947   0.00000  Uiso   1.00
H1101  H     0.81539   0.47580   0.58203   0.00000  Uiso   1.00
H1102  H     0.75251   0.49144   0.56650   0.00000  Uiso   1.00
N1103  N     0.71426   0.50001   0.75001   0.00000  Uiso   1.00
N1104  N     0.95239   0.49998   0.75001   0.00000  Uiso   1.00
O1105  O     0.79512   0.56108   0.75000   0.00000  Uiso   1.00
O1106  O     0.95623   0.36900   0.64744   0.00000  Uiso   1.00
O1107  O     0.76761   0.43204   0.67428   0.00000  Uiso   1.00
O1108  O     0.71524   0.43039   0.62966   0.00000  Uiso   1.00
O1109  O     0.96807   0.58653   0.90491   0.00000  Uiso   1.00
O1110  O     0.91492   0.62979   0.89054   0.00000  Uiso   1.00
O1111  O     0.71592   0.46627   0.91340   0.00000  Uiso   1.00
O1112  O     0.99792   0.47409   0.57633   0.00000  Uiso   1.00
O1113  O     0.99658   0.43016   0.50730   0.00000  Uiso   1.00
O1114  O     0.91288   0.62270   0.61766   0.00000  Uiso   1.00
O1115  O     0.94558   0.60066   0.67907   0.00000  Uiso   1.00
O1116  O     0.87157   0.56107   0.75000   0.00000  Uiso   1.00
O1117  O     0.77613   0.50000   0.82681   0.00000  Uiso   1.00
O1118  O     0.85258   0.49999   0.82681   0.00000  Uiso   1.00
O1119  O     0.79510   0.43893   0.74999   0.00000  Uiso   1.00
O1120  O     0.87154   0.43892   0.75000   0.00000  Uiso   1.00
O1121  O     0.81409   0.50001   0.67319   0.00000  Uiso   1.00
O1122  O     0.89053   0.50000   0.67319   0.00000  Uiso   1.00
O1123  O     0.89571   0.40637   0.63776   0.00000  Uiso   1.00
Zn1124 Zn    0.78229   0.50001   0.75000   0.00000  Uiso   1.00
Zn1125 Zn    0.88438   0.49999   0.75000   0.00000  Uiso   1.00
C1126  C     0.16754   0.91323   0.74898   0.00000  Uiso   1.00
C1127  C     0.12207   0.83679   0.91161   0.00000  Uiso   1.00
C1128  C     0.20639   0.97841   0.70697   0.00000  Uiso   1.00
C1129  C     0.14001   0.83456   0.85222   0.00000  Uiso   1.00
C1130  C     0.20468   0.68863   0.70502   0.00000  Uiso   1.00
C1131  C     0.16681   0.70932   0.74435   0.00000  Uiso   1.00
C1132  C     0.13006   0.68798   0.78257   0.00000  Uiso   1.00
C1133  C     0.13127   0.97862   0.78378   0.00000  Uiso   1.00
C1134  C     0.16932   0.95747   0.74692   0.00000  Uiso   1.00
C1135  C     0.31779   0.80750   0.71598   0.00000  Uiso   1.00
C1136  C     0.03252   0.80727   0.71463   0.00000  Uiso   1.00
C1137  C     0.14195   0.84453   0.99356   0.00000  Uiso   1.00
C1138  C     0.01473   0.85970   0.78373   0.00000  Uiso   1.00
C1139  C     0.30032   0.85973   0.78364   0.00000  Uiso   1.00
C1140  C     0.16656   0.75348   0.74867   0.00000  Uiso   1.00
C1141  C     0.19310   0.83410   0.64790   0.00000  Uiso   1.00
C1142  C     0.25249   0.88642   0.51607   0.00000  Uiso   1.00
C1143  C     0.20848   0.84233   0.59022   0.00000  Uiso   1.00
C1144  C     0.07784   0.81737   0.94073   0.00000  Uiso   1.00
C1145  C     0.06451   0.81399   0.99730   0.00000  Uiso   1.00
C1146  C     0.09680   0.82729   0.52307   0.00000  Uiso   1.00
C1147  C     0.24129   0.71214   0.66156   0.00000  Uiso   1.00
C1148  C     0.15103   0.85497   0.93958   0.00000  Uiso   1.00
C1149  C     0.06365   0.77830   0.67219   0.00000  Uiso   1.00
C1150  C     0.25958   0.92672   0.91178   0.00000  Uiso   1.00
C1151  C     0.01390   0.82850   0.91406   0.00000  Uiso   1.00
C1152  C     0.01790   0.79514   0.52977   0.00000  Uiso   1.00
C1153  C     0.24424   0.95505   0.66495   0.00000  Uiso   1.00
C1154  C     0.17839   0.85172   0.51624   0.00000  Uiso   1.00
C1155  C     0.21832   0.87809   0.99022   0.00000  Uiso   1.00
C1156  C     0.22176   0.89588   0.94017   0.00000  Uiso   1.00
C1157  C     0.18874   0.88327   0.91500   0.00000  Uiso   1.00
C1158  C     0.17635   0.83200   0.56372   0.00000  Uiso   1.00
C1159  C     0.24756   0.86852   0.56566   0.00000  Uiso   1.00
H1160  H     0.27271   0.87699   0.58612   0.00000  Uiso   1.00
H1161  H     0.19233   0.89630   0.87611   0.00000  Uiso   1.00
H1162  H     0.31052   0.71938   0.61609   0.00000  Uiso   1.00
H1163  H     0.07205   0.74399   0.60359   0.00000  Uiso   1.00
H1164  H     0.21265   0.96701   0.89992   0.00000  Uiso   1.00
H1165  H     0.32806   0.81641   0.88682   0.00000  Uiso   1.00
H1166  H     0.02957   0.85969   0.89931   0.00000  Uiso   1.00
H1167  H     0.32053   0.83192   0.95516   0.00000  Uiso   1.00
H1168  H     0.29784   0.75391   0.53315   0.00000  Uiso   1.00
H1169  H     0.30356   0.92027   0.64670   0.00000  Uiso   1.00
H1170  H     0.10119   0.70453   0.81239   0.00000  Uiso   1.00
H1171  H     0.10282   0.96199   0.81393   0.00000  Uiso   1.00
H1172  H     0.30545   0.78702   0.68967   0.00000  Uiso   1.00
H1173  H     0.02538   0.88104   0.81050   0.00000  Uiso   1.00
H1174  H     0.27506   0.88107   0.81041   0.00000  Uiso   1.00
H1175  H     0.28245   0.90751   0.99947   0.00000  Uiso   1.00
H1176  H     0.14872   0.80913   0.58203   0.00000  Uiso   1.00
H1177  H     0.08585   0.82477   0.56650   0.00000  Uiso   1.00
N1178  N     0.04760   0.83334   0.75001   0.00000  Uiso   1.00
N1179  N     0.28573   0.83331   0.75001   0.00000  Uiso   1.00
O1180  O     0.12846   0.89442   0.75000   0.00000  Uiso   1.00
O1181  O     0.28957   0.70233   0.64744   0.00000  Uiso   1.00
O1182  O     0.10094   0.76538   0.67428   0.00000  Uiso   1.00
O1183  O     0.04857   0.76372   0.62966   0.00000  Uiso   1.00
O1184  O     0.30140   0.91986   0.90491   0.00000  Uiso   1.00
O1185  O     0.24825   0.96312   0.89054   0.00000  Uiso   1.00
O1186  O     0.04926   0.79960   0.91340   0.00000  Uiso   1.00
O1187  O     0.33126   0.80743   0.57633   0.00000  Uiso   1.00
O1188  O     0.32992   0.76349   0.50730   0.00000  Uiso   1.00
O1189  O     0.24621   0.95604   0.61766   0.00000  Uiso   1.00
O1190  O     0.27891   0.93399   0.67907   0.00000  Uiso   1.00
O1191  O     0.20490   0.89441   0.75000   0.00000  Uiso   1.00
O1192  O     0.10947   0.83333   0.82681   0.00000  Uiso   1.00
O1193  O     0.18591   0.83332   0.82681   0.00000  Uiso   1.00
O1194  O     0.12843   0.77226   0.74999   0.00000  Uiso   1.00
O1195  O     0.20488   0.77225   0.75000   0.00000  Uiso   1.00
O1196  O     0.14742   0.83335   0.67319   0.00000  Uiso   1.00
O1197  O     0.22387   0.83334   0.67319   0.00000  Uiso   1.00
O1198  O     0.22904   0.73970   0.63776   0.00000  Uiso   1.00
Zn1199 Zn    0.11562   0.83334   0.75000   0.00000  Uiso   1.00
Zn1200 Zn    0.21771   0.83333   0.75000   0.00000  Uiso   1.00
C1201  C     0.50088   0.91323   0.74898   0.00000  Uiso   1.00
C1202  C     0.45540   0.83679   0.91161   0.00000  Uiso   1.00
C1203  C     0.53972   0.97841   0.70697   0.00000  Uiso   1.00
C1204  C     0.47335   0.83456   0.85222   0.00000  Uiso   1.00
C1205  C     0.53802   0.68863   0.70502   0.00000  Uiso   1.00
C1206  C     0.50014   0.70932   0.74435   0.00000  Uiso   1.00
C1207  C     0.46339   0.68798   0.78257   0.00000  Uiso   1.00
C1208  C     0.46461   0.97862   0.78378   0.00000  Uiso   1.00
C1209  C     0.50266   0.95747   0.74692   0.00000  Uiso   1.00
C1210  C     0.65112   0.80750   0.71598   0.00000  Uiso   1.00
C1211  C     0.36586   0.80727   0.71463   0.00000  Uiso   1.00
C1212  C     0.47528   0.84453   0.99356   0.00000  Uiso   1.00
C1213  C     0.34806   0.85970   0.78373   0.00000  Uiso   1.00
C1214  C     0.63365   0.85973   0.78364   0.00000  Uiso   1.00
C1215  C     0.49989   0.75348   0.74867   0.00000  Uiso   1.00
C1216  C     0.52643   0.83410   0.64790   0.00000  Uiso   1.00
C1217  C     0.58583   0.88642   0.51607   0.00000  Uiso   1.00
C1218  C     0.54181   0.84233   0.59022   0.00000  Uiso   1.00
C1219  C     0.41118   0.81737   0.94073   0.00000  Uiso   1.00
C1220  C     0.39784   0.81399   0.99730   0.00000  Uiso   1.00
C1221  C     0.43013   0.82729   0.52307   0.00000  Uiso   1.00
C1222  C     0.57463   0.71214   0.66156   0.00000  Uiso   1.00
C1223  C     0.48436   0.85497   0.93958   0.00000  Uiso   1.00
C1224  C     0.39699   0.77830   0.67219   0.00000  Uiso   1.00
C1225  C     0.59291   0.92672   0.91178   0.00000  Uiso   1.00
C1226  C     0.34723   0.82850   0.91406   0.00000  Uiso   1.00
C1227  C     0.35123   0.79514   0.52977   0.00000  Uiso   1.00
C1228  C     0.57758   0.95505   0.66495   0.00000  Uiso   1.00
C1229  C     0.51172   0.85172   0.51624   0.00000  Uiso   1.00
C1230  C     0.55166   0.87809   0.99022   0.00000  Uiso   1.00
C1231  C     0.55509   0.89588   0.94017   0.00000  Uiso   1.00
C1232  C     0.52208   0.88327   0.91500   0.00000  Uiso   1.00
C1233  C     0.50969   0.83200   0.56372   0.00000  Uiso   1.00
C1234  C     0.58089   0.86852   0.56566   0.00000  Uiso   1.00
H1235  H     0.60604   0.87699   0.58612   0.00000  Uiso   1.00
H1236  H     0.52566   0.89630   0.87611   0.00000  Uiso   1.00
H1237  H     0.64385   0.71938   0.61609   0.00000  Uiso   1.00
H1238  H     0.40538   0.74399   0.60359   0.00000  Uiso   1.00
H1239  H     0.54598   0.96701   0.89992   0.00000  Uiso   1.00
H1240  H     0.66139   0.81641   0.88682   0.00000  Uiso   1.00
H1241  H     0.36290   0.85969   0.89931   0.00000  Uiso   1.00
H1242  H     0.65386   0.83192   0.95516   0.00000  Uiso   1.00
H1243  H     0.63117   0.75391   0.53315   0.00000  Uiso   1.00
H1244  H     0.63689   0.92027   0.64670   0.00000  Uiso   1.00
H1245  H     0.43453   0.70453   0.81239   0.00000  Uiso   1.00
H1246  H     0.43616   0.96199   0.81393   0.00000  Uiso   1.00
H1247  H     0.63878   0.78702   0.68967   0.00000  Uiso   1.00
H1248  H     0.35871   0.88104   0.81050   0.00000  Uiso   1.00
H1249  H     0.60840   0.88107   0.81041   0.00000  Uiso   1.00
H1250  H     0.61578   0.90751   0.99947   0.00000  Uiso   1.00
H1251  H     0.48205   0.80913   0.58203   0.00000  Uiso   1.00
H1252  H     0.41918   0.82477   0.56650   0.00000  Uiso   1.00
N1253  N     0.38093   0.83334   0.75001   0.00000  Uiso   1.00
N1254  N     0.61906   0.83331   0.75001   0.00000  Uiso   1.00
O1255  O     0.46179   0.89442   0.75000   0.00000  Uiso   1.00
O1256  O     0.62290   0.70233   0.64744   0.00000  Uiso   1.00
O1257  O     0.43428   0.76538   0.67428   0.00000  Uiso   1.00
O1258  O     0.38190   0.76372   0.62966   0.00000  Uiso   1.00
O1259  O     0.63474   0.91986   0.90491   0.00000  Uiso   1.00
O1260  O     0.58159   0.96312   0.89054   0.00000  Uiso   1.00
O1261  O     0.38259   0.79960   0.91340   0.00000  Uiso   1.00
O1262  O     0.66459   0.80743   0.57633   0.00000  Uiso   1.00
O1263  O     0.66325   0.76349   0.50730   0.00000  Uiso   1.00
O1264  O     0.57954   0.95604   0.61766   0.00000  Uiso   1.00
O1265  O     0.61224   0.93399   0.67907   0.00000  Uiso   1.00
O1266  O     0.53823   0.89441   0.75000   0.00000  Uiso   1.00
O1267  O     0.44280   0.83333   0.82681   0.00000  Uiso   1.00
O1268  O     0.51924   0.83332   0.82681   0.00000  Uiso   1.00
O1269  O     0.46177   0.77226   0.74999   0.00000  Uiso   1.00
O1270  O     0.53821   0.77225   0.75000   0.00000  Uiso   1.00
O1271  O     0.48076   0.83335   0.67319   0.00000  Uiso   1.00
O1272  O     0.55720   0.83334   0.67319   0.00000  Uiso   1.00
O1273  O     0.56237   0.73970   0.63776   0.00000  Uiso   1.00
Zn1274 Zn    0.44896   0.83334   0.75000   0.00000  Uiso   1.00
Zn1275 Zn    0.55104   0.83333   0.75000   0.00000  Uiso   1.00
C1276  C     0.83421   0.91323   0.74898   0.00000  Uiso   1.00
C1277  C     0.78873   0.83679   0.91161   0.00000  Uiso   1.00
C1278  C     0.87306   0.97841   0.70697   0.00000  Uiso   1.00
C1279  C     0.80668   0.83456   0.85222   0.00000  Uiso   1.00
C1280  C     0.87135   0.68863   0.70502   0.00000  Uiso   1.00
C1281  C     0.83347   0.70932   0.74435   0.00000  Uiso   1.00
C1282  C     0.79673   0.68798   0.78257   0.00000  Uiso   1.00
C1283  C     0.79794   0.97862   0.78378   0.00000  Uiso   1.00
C1284  C     0.83599   0.95747   0.74692   0.00000  Uiso   1.00
C1285  C     0.98446   0.80750   0.71598   0.00000  Uiso   1.00
C1286  C     0.69919   0.80727   0.71463   0.00000  Uiso   1.00
C1287  C     0.80862   0.84453   0.99356   0.00000  Uiso   1.00
C1288  C     0.68139   0.85970   0.78373   0.00000  Uiso   1.00
C1289  C     0.96698   0.85973   0.78364   0.00000  Uiso   1.00
C1290  C     0.83323   0.75348   0.74867   0.00000  Uiso   1.00
C1291  C     0.85976   0.83410   0.64790   0.00000  Uiso   1.00
C1292  C     0.91916   0.88642   0.51607   0.00000  Uiso   1.00
C1293  C     0.87514   0.84233   0.59022   0.00000  Uiso   1.00
C1294  C     0.74451   0.81737   0.94073   0.00000  Uiso   1.00
C1295  C     0.73117   0.81399   0.99730   0.00000  Uiso   1.00
C1296  C     0.76347   0.82729   0.52307   0.00000  Uiso   1.00
C1297  C     0.90796   0.71214   0.66156   0.00000  Uiso   1.00
C1298  C     0.81769   0.85497   0.93958   0.00000  Uiso   1.00
C1299  C     0.73032   0.77830   0.67219   0.00000  Uiso   1.00
C1300  C     0.92624   0.92672   0.91178   0.00000  Uiso   1.00
C1301  C     0.68057   0.82850   0.91406   0.00000  Uiso   1.00
C1302  C     0.68456   0.79514   0.52977   0.00000  Uiso   1.00
C1303  C     0.91091   0.95505   0.66495   0.00000  Uiso   1.00
C1304  C     0.84506   0.85172   0.51624   0.00000  Uiso   1.00
C1305  C     0.88499   0.87809   0.99022   0.00000  Uiso   1.00
C1306  C     0.88843   0.89588   0.94017   0.00000  Uiso   1.00
C1307  C     0.85541   0.88327   0.91500   0.00000  Uiso   1.00
C1308  C     0.84302   0.83200   0.56372   0.00000  Uiso   1.00
C1309  C     0.91422   0.86852   0.56566   0.00000  Uiso   1.00
H1310  H     0.93937   0.87699   0.58612   0.00000  Uiso   1.00
H1311  H     0.85900   0.89630   0.87611   0.00000  Uiso   1.00
H1312  H     0.97718   0.71938   0.61609   0.00000  Uiso   1.00
H1313  H     0.73872   0.74399   0.60359   0.00000  Uiso   1.00
H1314  H     0.87932   0.96701   0.89992   0.00000  Uiso   1.00
H1315  H     0.99473   0.81641   0.88682   0.00000  Uiso   1.00
H1316  H     0.69624   0.85969   0.89931   0.00000  Uiso   1.00
H1317  H     0.98719   0.83192   0.95516   0.00000  Uiso   1.00
H1318  H     0.96451   0.75391   0.53315   0.00000  Uiso   1.00
H1319  H     0.97023   0.92027   0.64670   0.00000  Uiso   1.00
H1320  H     0.76786   0.70453   0.81239   0.00000  Uiso   1.00
H1321  H     0.76949   0.96199   0.81393   0.00000  Uiso   1.00
H1322  H     0.97211   0.78702   0.68967   0.00000  Uiso   1.00
H1323  H     0.69204   0.88104   0.81050   0.00000  Uiso   1.00
H1324  H     0.94173   0.88107   0.81041   0.00000  Uiso   1.00
H1325  H     0.94911   0.90751   0.99947   0.00000  Uiso   1.00
H1326  H     0.81539   0.80913   0.58203   0.00000  Uiso   1.00
H1327  H     0.75251   0.82477   0.56650   0.00000  Uiso   1.00
N1328  N     0.71426   0.83334   0.75001   0.00000  Uiso   1.00
N1329  N     0.95239   0.83331   0.75001   0.00000  Uiso   1.00
O1330  O     0.79512   0.89442   0.75000   0.00000  Uiso   1.00
O1331  O     0.95623   0.70233   0.64744   0.00000  Uiso   1.00
O1332  O     0.76761   0.76538   0.67428   0.00000  Uiso   1.00
O1333  O     0.71524   0.76372   0.62966   0.00000  Uiso   1.00
O1334  O     0.96807   0.91986   0.90491   0.00000  Uiso   1.00
O1335  O     0.91492   0.96312   0.89054   0.00000  Uiso   1.00
O1336  O     0.71592   0.79960   0.91340   0.00000  Uiso   1.00
O1337  O     0.99792   0.80743   0.57633   0.00000  Uiso   1.00
O1338  O     0.99658   0.76349   0.50730   0.00000  Uiso   1.00
O1339  O     0.91288   0.95604   0.61766   0.00000  Uiso   1.00
O1340  O     0.94558   0.93399   0.67907   0.00000  Uiso   1.00
O1341  O     0.87157   0.89441   0.75000   0.00000  Uiso   1.00
O1342  O     0.77613   0.83333   0.82681   0.00000  Uiso   1.00
O1343  O     0.85258   0.83332   0.82681   0.00000  Uiso   1.00
O1344  O     0.79510   0.77226   0.74999   0.00000  Uiso   1.00
O1345  O     0.87154   0.77225   0.75000   0.00000  Uiso   1.00
O1346  O     0.81409   0.83335   0.67319   0.00000  Uiso   1.00
O1347  O     0.89053   0.83334   0.67319   0.00000  Uiso   1.00
O1348  O     0.89571   0.73970   0.63776   0.00000  Uiso   1.00
Zn1349 Zn    0.78229   0.83334   0.75000   0.00000  Uiso   1.00
Zn1350 Zn    0.88438   0.83333   0.75000   0.00000  Uiso   1.00
loop_
_geom_bond_atom_site_label_1
_geom_bond_atom_site_label_2
_geom_bond_distance
_geom_bond_site_symmetry_2
_ccdc_geom_bond_type
C1     O66     1.284   .     A
C1     O55     1.288   .     A
C1     C9      1.415   .     S
C2     C4      1.467   .     S
C2     C23     1.410   .     A
C2     C19     1.418   .     A
C3     C9      1.411   .     A
C3     C28     1.483   .     S
C3     C230    1.396   .     S
C4     O68     1.304   .     A
C4     O67     1.293   .     A
C5     C6      1.410   .     A
C5     C22     1.492   .     S
C5     C453    1.396   1_545 S
C6     C7      1.390   .     A
C6     C15     1.412   .     S
C7     H45     1.085   .     S
C7     C458    1.367   1_545 S
C8     H46     1.085   .     S
C8     C9      1.392   .     A
C8     C232    1.367   .     S
C10    N54     1.346   .     A
C10    H47     1.082   .     S
C10    C86     1.418   .     S
C11    C24     1.498   .     S
C11    N53     1.404   .     A
C11    C160    1.418   1_455 S
C12    C23     1.397   .     A
C12    C696    1.413   .     S
C12    C704    1.411   .     S
C13    N53     1.366   .     A
C13    H48     1.081   .     S
C13    C164    1.420   1_455 S
C14    H49     1.080   .     S
C14    N54     1.369   .     A
C14    C88     1.420   .     S
C15    O69     1.285   .     A
C15    O70     1.285   .     A
C16    O72     1.298   .     A
C16    O71     1.296   .     A
C16    C18     1.455   .     S
C17    C34     1.396   .     A
C17    C705    1.414   1_554 S
C17    H725    1.079   1_554 S
C18    C34     1.395   .     A
C18    C33     1.385   .     A
C19    O61     1.385   .     S
C19    C20     1.407   .     A
C20    C696    1.399   .     S
C20    C702    1.485   .     S
C21    H52     1.079   .     S
C21    C695    1.399   1_554 S
C21    C687    1.413   1_554 S
C22    O56     1.398   .     S
C22    O73     1.223   .     D
C23    C32     1.411   .     A
C24    O58     1.398   .     S
C24    O57     1.211   .     D
C25    C31     1.489   .     S
C25    O60     1.399   .     S
C25    O59     1.220   .     D
C26    O61     1.411   .     S
C26    H41     1.113   .     S
C26    H190    1.109   1_455 S
C26    H192    1.108   1_455 S
C27    C695    1.485   1_554 S
C27    O212    1.223   1_455 S
C27    O213    1.398   1_455 S
C28    O65     1.398   .     S
C28    O64     1.222   .     D
C29    C33     1.393   .     A
C29    C687    1.411   1_554 S
C29    C705    1.423   1_554 S
C30    C31     1.415   .     A
C30    C692    1.414   .     S
C30    C704    1.423   .     S
C31    C32     1.400   .     A
C32    H36     1.083   .     S
C33    H51     1.080   .     S
C34    H35     1.082   .     S
H37    O56     1.013   .     S
H38    O58     1.014   .     S
H39    O60     1.013   .     S
H40    C101    1.109   .     S
H42    C101    1.108   .     S
H43    O63     1.014   .     S
H44    O65     1.013   .     S
H50    C692    1.079   .     S
N53    Zn74    2.022   .     S
N54    Zn75    2.022   .     S
O55    Zn74    1.979   .     S
O62    C102    1.223   .     S
O63    C102    1.398   .     S
O66    Zn75    1.997   .     S
O67    Zn74    1.959   .     S
O68    Zn75    1.916   .     S
O69    Zn74    1.997   .     S
O70    Zn75    1.979   .     S
O71    Zn74    1.916   .     S
O72    Zn75    1.959   .     S
C76    O141    1.284   .     A
C76    O130    1.288   .     A
C76    C84     1.415   .     S
C77    C79     1.467   .     S
C77    C98     1.410   .     A
C77    C94     1.418   .     A
C78    C84     1.411   .     A
C78    C103    1.483   .     S
C78    C305    1.396   .     S
C79    O143    1.304   .     A
C79    O142    1.293   .     A
C80    C81     1.410   .     A
C80    C97     1.492   .     S
C80    C528    1.396   1_545 S
C81    C82     1.390   .     A
C81    C90     1.412   .     S
C82    H120    1.085   .     S
C82    C533    1.367   1_545 S
C83    H121    1.085   .     S
C83    C84     1.392   .     A
C83    C307    1.367   .     S
C85    N129    1.346   .     A
C85    H122    1.082   .     S
C85    C161    1.418   .     S
C86    C99     1.498   .     S
C86    N128    1.404   .     A
C87    C98     1.397   .     A
C87    C771    1.413   .     S
C87    C779    1.411   .     S
C88    N128    1.366   .     A
C88    H123    1.081   .     S
C89    H124    1.080   .     S
C89    N129    1.369   .     A
C89    C163    1.420   .     S
C90    O144    1.285   .     A
C90    O145    1.285   .     A
C91    O147    1.298   .     A
C91    O146    1.296   .     A
C91    C93     1.455   .     S
C92    C109    1.396   .     A
C92    C780    1.414   1_554 S
C92    H800    1.079   1_554 S
C93    C109    1.395   .     A
C93    C108    1.385   .     A
C94    O136    1.385   .     S
C94    C95     1.407   .     A
C95    C771    1.399   .     S
C95    C777    1.485   .     S
C96    H127    1.079   .     S
C96    C770    1.399   1_554 S
C96    C762    1.413   1_554 S
C97    O131    1.398   .     S
C97    O148    1.223   .     D
C98    C107    1.411   .     A
C99    O133    1.398   .     S
C99    O132    1.211   .     D
C100   C106    1.489   .     S
C100   O135    1.399   .     S
C100   O134    1.220   .     D
C101   O136    1.411   .     S
C101   H116    1.113   .     S
C102   C770    1.485   1_554 S
C103   O140    1.398   .     S
C103   O139    1.222   .     D
C104   C108    1.393   .     A
C104   C762    1.411   1_554 S
C104   C780    1.423   1_554 S
C105   C106    1.415   .     A
C105   C767    1.414   .     S
C105   C779    1.423   .     S
C106   C107    1.400   .     A
C107   H111    1.083   .     S
C108   H126    1.080   .     S
C109   H110    1.082   .     S
H112   O131    1.013   .     S
H113   O133    1.014   .     S
H114   O135    1.013   .     S
H115   C176    1.109   .     S
H117   C176    1.108   .     S
H118   O138    1.014   .     S
H119   O140    1.013   .     S
H125   C767    1.079   .     S
N128   Zn149   2.022   .     S
N129   Zn150   2.022   .     S
O130   Zn149   1.979   .     S
O137   C177    1.223   .     S
O138   C177    1.398   .     S
O141   Zn150   1.997   .     S
O142   Zn149   1.959   .     S
O143   Zn150   1.916   .     S
O144   Zn149   1.997   .     S
O145   Zn150   1.979   .     S
O146   Zn149   1.916   .     S
O147   Zn150   1.959   .     S
C151   O216    1.284   .     A
C151   O205    1.288   .     A
C151   C159    1.415   .     S
C152   C154    1.467   .     S
C152   C173    1.410   .     A
C152   C169    1.418   .     A
C153   C159    1.411   .     A
C153   C178    1.483   .     S
C153   C380    1.396   .     S
C154   O218    1.304   .     A
C154   O217    1.293   .     A
C155   C156    1.410   .     A
C155   C172    1.492   .     S
C155   C603    1.396   1_545 S
C156   C157    1.390   .     A
C156   C165    1.412   .     S
C157   H195    1.085   .     S
C157   C608    1.367   1_545 S
C158   H196    1.085   .     S
C158   C159    1.392   .     A
C158   C382    1.367   .     S
C160   N204    1.346   .     A
C160   H197    1.082   .     S
C160   C11     1.418   1_655 S
C161   C174    1.498   .     S
C161   N203    1.404   .     A
C162   C173    1.397   .     A
C162   C846    1.413   .     S
C162   C854    1.411   .     S
C163   N203    1.366   .     A
C163   H198    1.081   .     S
C164   H199    1.080   .     S
C164   N204    1.369   .     A
C164   C13     1.420   1_655 S
C165   O219    1.285   .     A
C165   O220    1.285   .     A
C166   O222    1.298   .     A
C166   O221    1.296   .     A
C166   C168    1.455   .     S
C167   C184    1.396   .     A
C167   C855    1.414   1_554 S
C167   H875    1.079   1_554 S
C168   C184    1.395   .     A
C168   C183    1.385   .     A
C169   O211    1.385   .     S
C169   C170    1.407   .     A
C170   C846    1.399   .     S
C170   C852    1.485   .     S
C171   H202    1.079   .     S
C171   C845    1.399   1_554 S
C171   C837    1.413   1_554 S
C172   O206    1.398   .     S
C172   O223    1.223   .     D
C173   C182    1.411   .     A
C174   O208    1.398   .     S
C174   O207    1.211   .     D
C175   C181    1.489   .     S
C175   O210    1.399   .     S
C175   O209    1.220   .     D
C176   O211    1.411   .     S
C176   H191    1.113   .     S
C177   C845    1.485   1_554 S
C178   O215    1.398   .     S
C178   O214    1.222   .     D
C179   C183    1.393   .     A
C179   C837    1.411   1_554 S
C179   C855    1.423   1_554 S
C180   C181    1.415   .     A
C180   C842    1.414   .     S
C180   C854    1.423   .     S
C181   C182    1.400   .     A
C182   H186    1.083   .     S
C183   H201    1.080   .     S
C184   H185    1.082   .     S
H187   O206    1.013   .     S
H188   O208    1.014   .     S
H189   O210    1.013   .     S
H190   C26     1.109   1_655 S
H192   C26     1.108   1_655 S
H193   O213    1.014   .     S
H194   O215    1.013   .     S
H200   C842    1.079   .     S
N203   Zn224   2.022   .     S
N204   Zn225   2.022   .     S
O205   Zn224   1.979   .     S
O212   C27     1.223   1_655 S
O213   C27     1.398   1_655 S
O216   Zn225   1.997   .     S
O217   Zn224   1.959   .     S
O218   Zn225   1.916   .     S
O219   Zn224   1.997   .     S
O220   Zn225   1.979   .     S
O221   Zn224   1.916   .     S
O222   Zn225   1.959   .     S
C226   O291    1.284   .     A
C226   O280    1.288   .     A
C226   C234    1.415   .     S
C227   C229    1.467   .     S
C227   C248    1.410   .     A
C227   C244    1.418   .     A
C228   C234    1.411   .     A
C228   C253    1.483   .     S
C228   C455    1.396   .     S
C229   O293    1.304   .     A
C229   O292    1.293   .     A
C230   C231    1.410   .     A
C230   C247    1.492   .     S
C231   C232    1.390   .     A
C231   C240    1.412   .     S
C232   H270    1.085   .     S
C233   H271    1.085   .     S
C233   C234    1.392   .     A
C233   C457    1.367   .     S
C235   N279    1.346   .     A
C235   H272    1.082   .     S
C235   C311    1.418   .     S
C236   C249    1.498   .     S
C236   N278    1.404   .     A
C236   C385    1.418   1_455 S
C237   C248    1.397   .     A
C237   C921    1.413   .     S
C237   C929    1.411   .     S
C238   N278    1.366   .     A
C238   H273    1.081   .     S
C238   C389    1.420   1_455 S
C239   H274    1.080   .     S
C239   N279    1.369   .     A
C239   C313    1.420   .     S
C240   O294    1.285   .     A
C240   O295    1.285   .     A
C241   O297    1.298   .     A
C241   O296    1.296   .     A
C241   C243    1.455   .     S
C242   C259    1.396   .     A
C242   C930    1.414   1_554 S
C242   H950    1.079   1_554 S
C243   C259    1.395   .     A
C243   C258    1.385   .     A
C244   O286    1.385   .     S
C244   C245    1.407   .     A
C245   C921    1.399   .     S
C245   C927    1.485   .     S
C246   H277    1.079   .     S
C246   C920    1.399   1_554 S
C246   C912    1.413   1_554 S
C247   O281    1.398   .     S
C247   O298    1.223   .     D
C248   C257    1.411   .     A
C249   O283    1.398   .     S
C249   O282    1.211   .     D
C250   C256    1.489   .     S
C250   O285    1.399   .     S
C250   O284    1.220   .     D
C251   O286    1.411   .     S
C251   H266    1.113   .     S
C251   H415    1.109   1_455 S
C251   H417    1.108   1_455 S
C252   C920    1.485   1_554 S
C252   O437    1.223   1_455 S
C252   O438    1.398   1_455 S
C253   O290    1.398   .     S
C253   O289    1.222   .     D
C254   C258    1.393   .     A
C254   C912    1.411   1_554 S
C254   C930    1.423   1_554 S
C255   C256    1.415   .     A
C255   C917    1.414   .     S
C255   C929    1.423   .     S
C256   C257    1.400   .     A
C257   H261    1.083   .     S
C258   H276    1.080   .     S
C259   H260    1.082   .     S
H262   O281    1.013   .     S
H263   O283    1.014   .     S
H264   O285    1.013   .     S
H265   C326    1.109   .     S
H267   C326    1.108   .     S
H268   O288    1.014   .     S
H269   O290    1.013   .     S
H275   C917    1.079   .     S
N278   Zn299   2.022   .     S
N279   Zn300   2.022   .     S
O280   Zn299   1.979   .     S
O287   C327    1.223   .     S
O288   C327    1.398   .     S
O291   Zn300   1.997   .     S
O292   Zn299   1.959   .     S
O293   Zn300   1.916   .     S
O294   Zn299   1.997   .     S
O295   Zn300   1.979   .     S
O296   Zn299   1.916   .     S
O297   Zn300   1.959   .     S
C301   O366    1.284   .     A
C301   O355    1.288   .     A
C301   C309    1.415   .     S
C302   C304    1.467   .     S
C302   C323    1.410   .     A
C302   C319    1.418   .     A
C303   C309    1.411   .     A
C303   C328    1.483   .     S
C303   C530    1.396   .     S
C304   O368    1.304   .     A
C304   O367    1.293   .     A
C305   C306    1.410   .     A
C305   C322    1.492   .     S
C306   C307    1.390   .     A
C306   C315    1.412   .     S
C307   H345    1.085   .     S
C308   H346    1.085   .     S
C308   C309    1.392   .     A
C308   C532    1.367   .     S
C310   N354    1.346   .     A
C310   H347    1.082   .     S
C310   C386    1.418   .     S
C311   C324    1.498   .     S
C311   N353    1.404   .     A
C312   C323    1.397   .     A
C312   C996    1.413   .     S
C312   C1004   1.411   .     S
C313   N353    1.366   .     A
C313   H348    1.081   .     S
C314   H349    1.080   .     S
C314   N354    1.369   .     A
C314   C388    1.420   .     S
C315   O369    1.285   .     A
C315   O370    1.285   .     A
C316   O372    1.298   .     A
C316   O371    1.296   .     A
C316   C318    1.455   .     S
C317   C334    1.396   .     A
C317   C1005   1.414   1_554 S
C317   H1025   1.079   1_554 S
C318   C334    1.395   .     A
C318   C333    1.385   .     A
C319   O361    1.385   .     S
C319   C320    1.407   .     A
C320   C996    1.399   .     S
C320   C1002   1.485   .     S
C321   H352    1.079   .     S
C321   C995    1.399   1_554 S
C321   C987    1.413   1_554 S
C322   O356    1.398   .     S
C322   O373    1.223   .     D
C323   C332    1.411   .     A
C324   O358    1.398   .     S
C324   O357    1.211   .     D
C325   C331    1.489   .     S
C325   O360    1.399   .     S
C325   O359    1.220   .     D
C326   O361    1.411   .     S
C326   H341    1.113   .     S
C327   C995    1.485   1_554 S
C328   O365    1.398   .     S
C328   O364    1.222   .     D
C329   C333    1.393   .     A
C329   C987    1.411   1_554 S
C329   C1005   1.423   1_554 S
C330   C331    1.415   .     A
C330   C992    1.414   .     S
C330   C1004   1.423   .     S
C331   C332    1.400   .     A
C332   H336    1.083   .     S
C333   H351    1.080   .     S
C334   H335    1.082   .     S
H337   O356    1.013   .     S
H338   O358    1.014   .     S
H339   O360    1.013   .     S
H340   C401    1.109   .     S
H342   C401    1.108   .     S
H343   O363    1.014   .     S
H344   O365    1.013   .     S
H350   C992    1.079   .     S
N353   Zn374   2.022   .     S
N354   Zn375   2.022   .     S
O355   Zn374   1.979   .     S
O362   C402    1.223   .     S
O363   C402    1.398   .     S
O366   Zn375   1.997   .     S
O367   Zn374   1.959   .     S
O368   Zn375   1.916   .     S
O369   Zn374   1.997   .     S
O370   Zn375   1.979   .     S
O371   Zn374   1.916   .     S
O372   Zn375   1.959   .     S
C376   O441    1.284   .     A
C376   O430    1.288   .     A
C376   C384    1.415   .     S
C377   C379    1.467   .     S
C377   C398    1.410   .     A
C377   C394    1.418   .     A
C378   C384    1.411   .     A
C378   C403    1.483   .     S
C378   C605    1.396   .     S
C379   O443    1.304   .     A
C379   O442    1.293   .     A
C380   C381    1.410   .     A
C380   C397    1.492   .     S
C381   C382    1.390   .     A
C381   C390    1.412   .     S
C382   H420    1.085   .     S
C383   H421    1.085   .     S
C383   C384    1.392   .     A
C383   C607    1.367   .     S
C385   N429    1.346   .     A
C385   H422    1.082   .     S
C385   C236    1.418   1_655 S
C386   C399    1.498   .     S
C386   N428    1.404   .     A
C387   C398    1.397   .     A
C387   C1071   1.413   .     S
C387   C1079   1.411   .     S
C388   N428    1.366   .     A
C388   H423    1.081   .     S
C389   H424    1.080   .     S
C389   N429    1.369   .     A
C389   C238    1.420   1_655 S
C390   O444    1.285   .     A
C390   O445    1.285   .     A
C391   O447    1.298   .     A
C391   O446    1.296   .     A
C391   C393    1.455   .     S
C392   C409    1.396   .     A
C392   C1080   1.414   1_554 S
C392   H1100   1.079   1_554 S
C393   C409    1.395   .     A
C393   C408    1.385   .     A
C394   O436    1.385   .     S
C394   C395    1.407   .     A
C395   C1071   1.399   .     S
C395   C1077   1.485   .     S
C396   H427    1.079   .     S
C396   C1070   1.399   1_554 S
C396   C1062   1.413   1_554 S
C397   O431    1.398   .     S
C397   O448    1.223   .     D
C398   C407    1.411   .     A
C399   O433    1.398   .     S
C399   O432    1.211   .     D
C400   C406    1.489   .     S
C400   O435    1.399   .     S
C400   O434    1.220   .     D
C401   O436    1.411   .     S
C401   H416    1.113   .     S
C402   C1070   1.485   1_554 S
C403   O440    1.398   .     S
C403   O439    1.222   .     D
C404   C408    1.393   .     A
C404   C1062   1.411   1_554 S
C404   C1080   1.423   1_554 S
C405   C406    1.415   .     A
C405   C1067   1.414   .     S
C405   C1079   1.423   .     S
C406   C407    1.400   .     A
C407   H411    1.083   .     S
C408   H426    1.080   .     S
C409   H410    1.082   .     S
H412   O431    1.013   .     S
H413   O433    1.014   .     S
H414   O435    1.013   .     S
H415   C251    1.109   1_655 S
H417   C251    1.108   1_655 S
H418   O438    1.014   .     S
H419   O440    1.013   .     S
H425   C1067   1.079   .     S
N428   Zn449   2.022   .     S
N429   Zn450   2.022   .     S
O430   Zn449   1.979   .     S
O437   C252    1.223   1_655 S
O438   C252    1.398   1_655 S
O441   Zn450   1.997   .     S
O442   Zn449   1.959   .     S
O443   Zn450   1.916   .     S
O444   Zn449   1.997   .     S
O445   Zn450   1.979   .     S
O446   Zn449   1.916   .     S
O447   Zn450   1.959   .     S
C451   O516    1.284   .     A
C451   O505    1.288   .     A
C451   C459    1.415   .     S
C452   C454    1.467   .     S
C452   C473    1.410   .     A
C452   C469    1.418   .     A
C453   C459    1.411   .     A
C453   C478    1.483   .     S
C453   C5      1.396   1_565 S
C454   O518    1.304   .     A
C454   O517    1.293   .     A
C455   C456    1.410   .     A
C455   C472    1.492   .     S
C456   C457    1.390   .     A
C456   C465    1.412   .     S
C457   H495    1.085   .     S
C458   H496    1.085   .     S
C458   C459    1.392   .     A
C458   C7      1.367   1_565 S
C460   N504    1.346   .     A
C460   H497    1.082   .     S
C460   C536    1.418   .     S
C461   C474    1.498   .     S
C461   N503    1.404   .     A
C461   C610    1.418   1_455 S
C462   C473    1.397   .     A
C462   C1146   1.413   .     S
C462   C1154   1.411   .     S
C463   N503    1.366   .     A
C463   H498    1.081   .     S
C463   C614    1.420   1_455 S
C464   H499    1.080   .     S
C464   N504    1.369   .     A
C464   C538    1.420   .     S
C465   O519    1.285   .     A
C465   O520    1.285   .     A
C466   O522    1.298   .     A
C466   O521    1.296   .     A
C466   C468    1.455   .     S
C467   C484    1.396   .     A
C467   C1155   1.414   1_554 S
C467   H1175   1.079   1_554 S
C468   C484    1.395   .     A
C468   C483    1.385   .     A
C469   O511    1.385   .     S
C469   C470    1.407   .     A
C470   C1146   1.399   .     S
C470   C1152   1.485   .     S
C471   H502    1.079   .     S
C471   C1145   1.399   1_554 S
C471   C1137   1.413   1_554 S
C472   O506    1.398   .     S
C472   O523    1.223   .     D
C473   C482    1.411   .     A
C474   O508    1.398   .     S
C474   O507    1.211   .     D
C475   C481    1.489   .     S
C475   O510    1.399   .     S
C475   O509    1.220   .     D
C476   O511    1.411   .     S
C476   H491    1.113   .     S
C476   H640    1.109   1_455 S
C476   H642    1.108   1_455 S
C477   C1145   1.485   1_554 S
C477   O662    1.223   1_455 S
C477   O663    1.398   1_455 S
C478   O515    1.398   .     S
C478   O514    1.222   .     D
C479   C483    1.393   .     A
C479   C1137   1.411   1_554 S
C479   C1155   1.423   1_554 S
C480   C481    1.415   .     A
C480   C1142   1.414   .     S
C480   C1154   1.423   .     S
C481   C482    1.400   .     A
C482   H486    1.083   .     S
C483   H501    1.080   .     S
C484   H485    1.082   .     S
H487   O506    1.013   .     S
H488   O508    1.014   .     S
H489   O510    1.013   .     S
H490   C551    1.109   .     S
H492   C551    1.108   .     S
H493   O513    1.014   .     S
H494   O515    1.013   .     S
H500   C1142   1.079   .     S
N503   Zn524   2.022   .     S
N504   Zn525   2.022   .     S
O505   Zn524   1.979   .     S
O512   C552    1.223   .     S
O513   C552    1.398   .     S
O516   Zn525   1.997   .     S
O517   Zn524   1.959   .     S
O518   Zn525   1.916   .     S
O519   Zn524   1.997   .     S
O520   Zn525   1.979   .     S
O521   Zn524   1.916   .     S
O522   Zn525   1.959   .     S
C526   O591    1.284   .     A
C526   O580    1.288   .     A
C526   C534    1.415   .     S
C527   C529    1.467   .     S
C527   C548    1.410   .     A
C527   C544    1.418   .     A
C528   C534    1.411   .     A
C528   C553    1.483   .     S
C528   C80     1.396   1_565 S
C529   O593    1.304   .     A
C529   O592    1.293   .     A
C530   C531    1.410   .     A
C530   C547    1.492   .     S
C531   C532    1.390   .     A
C531   C540    1.412   .     S
C532   H570    1.085   .     S
C533   H571    1.085   .     S
C533   C534    1.392   .     A
C533   C82     1.367   1_565 S
C535   N579    1.346   .     A
C535   H572    1.082   .     S
C535   C611    1.418   .     S
C536   C549    1.498   .     S
C536   N578    1.404   .     A
C537   C548    1.397   .     A
C537   C1221   1.413   .     S
C537   C1229   1.411   .     S
C538   N578    1.366   .     A
C538   H573    1.081   .     S
C539   H574    1.080   .     S
C539   N579    1.369   .     A
C539   C613    1.420   .     S
C540   O594    1.285   .     A
C540   O595    1.285   .     A
C541   O597    1.298   .     A
C541   O596    1.296   .     A
C541   C543    1.455   .     S
C542   C559    1.396   .     A
C542   C1230   1.414   1_554 S
C542   H1250   1.079   1_554 S
C543   C559    1.395   .     A
C543   C558    1.385   .     A
C544   O586    1.385   .     S
C544   C545    1.407   .     A
C545   C1221   1.399   .     S
C545   C1227   1.485   .     S
C546   H577    1.079   .     S
C546   C1220   1.399   1_554 S
C546   C1212   1.413   1_554 S
C547   O581    1.398   .     S
C547   O598    1.223   .     D
C548   C557    1.411   .     A
C549   O583    1.398   .     S
C549   O582    1.211   .     D
C550   C556    1.489   .     S
C550   O585    1.399   .     S
C550   O584    1.220   .     D
C551   O586    1.411   .     S
C551   H566    1.113   .     S
C552   C1220   1.485   1_554 S
C553   O590    1.398   .     S
C553   O589    1.222   .     D
C554   C558    1.393   .     A
C554   C1212   1.411   1_554 S
C554   C1230   1.423   1_554 S
C555   C556    1.415   .     A
C555   C1217   1.414   .     S
C555   C1229   1.423   .     S
C556   C557    1.400   .     A
C557   H561    1.083   .     S
C558   H576    1.080   .     S
C559   H560    1.082   .     S
H562   O581    1.013   .     S
H563   O583    1.014   .     S
H564   O585    1.013   .     S
H565   C626    1.109   .     S
H567   C626    1.108   .     S
H568   O588    1.014   .     S
H569   O590    1.013   .     S
H575   C1217   1.079   .     S
N578   Zn599   2.022   .     S
N579   Zn600   2.022   .     S
O580   Zn599   1.979   .     S
O587   C627    1.223   .     S
O588   C627    1.398   .     S
O591   Zn600   1.997   .     S
O592   Zn599   1.959   .     S
O593   Zn600   1.916   .     S
O594   Zn599   1.997   .     S
O595   Zn600   1.979   .     S
O596   Zn599   1.916   .     S
O597   Zn600   1.959   .     S
C601   O666    1.284   .     A
C601   O655    1.288   .     A
C601   C609    1.415   .     S
C602   C604    1.467   .     S
C602   C623    1.410   .     A
C602   C619    1.418   .     A
C603   C609    1.411   .     A
C603   C628    1.483   .     S
C603   C155    1.396   1_565 S
C604   O668    1.304   .     A
C604   O667    1.293   .     A
C605   C606    1.410   .     A
C605   C622    1.492   .     S
C606   C607    1.390   .     A
C606   C615    1.412   .     S
C607   H645    1.085   .     S
C608   H646    1.085   .     S
C608   C609    1.392   .     A
C608   C157    1.367   1_565 S
C610   N654    1.346   .     A
C610   H647    1.082   .     S
C610   C461    1.418   1_655 S
C611   C624    1.498   .     S
C611   N653    1.404   .     A
C612   C623    1.397   .     A
C612   C1296   1.413   .     S
C612   C1304   1.411   .     S
C613   N653    1.366   .     A
C613   H648    1.081   .     S
C614   H649    1.080   .     S
C614   N654    1.369   .     A
C614   C463    1.420   1_655 S
C615   O669    1.285   .     A
C615   O670    1.285   .     A
C616   O672    1.298   .     A
C616   O671    1.296   .     A
C616   C618    1.455   .     S
C617   C634    1.396   .     A
C617   C1305   1.414   1_554 S
C617   H1325   1.079   1_554 S
C618   C634    1.395   .     A
C618   C633    1.385   .     A
C619   O661    1.385   .     S
C619   C620    1.407   .     A
C620   C1296   1.399   .     S
C620   C1302   1.485   .     S
C621   H652    1.079   .     S
C621   C1295   1.399   1_554 S
C621   C1287   1.413   1_554 S
C622   O656    1.398   .     S
C622   O673    1.223   .     D
C623   C632    1.411   .     A
C624   O658    1.398   .     S
C624   O657    1.211   .     D
C625   C631    1.489   .     S
C625   O660    1.399   .     S
C625   O659    1.220   .     D
C626   O661    1.411   .     S
C626   H641    1.113   .     S
C627   C1295   1.485   1_554 S
C628   O665    1.398   .     S
C628   O664    1.222   .     D
C629   C633    1.393   .     A
C629   C1287   1.411   1_554 S
C629   C1305   1.423   1_554 S
C630   C631    1.415   .     A
C630   C1292   1.414   .     S
C630   C1304   1.423   .     S
C631   C632    1.400   .     A
C632   H636    1.083   .     S
C633   H651    1.080   .     S
C634   H635    1.082   .     S
H637   O656    1.013   .     S
H638   O658    1.014   .     S
H639   O660    1.013   .     S
H640   C476    1.109   1_655 S
H642   C476    1.108   1_655 S
H643   O663    1.014   .     S
H644   O665    1.013   .     S
H650   C1292   1.079   .     S
N653   Zn674   2.022   .     S
N654   Zn675   2.022   .     S
O655   Zn674   1.979   .     S
O662   C477    1.223   1_655 S
O663   C477    1.398   1_655 S
O666   Zn675   1.997   .     S
O667   Zn674   1.959   .     S
O668   Zn675   1.916   .     S
O669   Zn674   1.997   .     S
O670   Zn675   1.979   .     S
O671   Zn674   1.916   .     S
O672   Zn675   1.959   .     S
C676   O741    1.284   .     A
C676   O730    1.288   .     A
C676   C684    1.415   .     S
C677   C679    1.467   .     S
C677   C698    1.410   .     A
C677   C694    1.418   .     A
C678   C684    1.411   .     A
C678   C703    1.483   .     S
C678   C905    1.396   .     S
C679   O743    1.304   .     A
C679   O742    1.293   .     A
C680   C681    1.410   .     A
C680   C697    1.492   .     S
C680   C1128   1.396   1_545 S
C681   C682    1.390   .     A
C681   C690    1.412   .     S
C682   H720    1.085   .     S
C682   C1133   1.367   1_545 S
C683   H721    1.085   .     S
C683   C684    1.392   .     A
C683   C907    1.367   .     S
C685   N729    1.346   .     A
C685   H722    1.082   .     S
C685   C761    1.418   .     S
C686   C699    1.498   .     S
C686   N728    1.404   .     A
C686   C835    1.418   1_455 S
C687   C698    1.397   .     A
C687   C21     1.413   1_556 S
C687   C29     1.411   1_556 S
C688   N728    1.366   .     A
C688   H723    1.081   .     S
C688   C839    1.420   1_455 S
C689   H724    1.080   .     S
C689   N729    1.369   .     A
C689   C763    1.420   .     S
C690   O744    1.285   .     A
C690   O745    1.285   .     A
C691   O747    1.298   .     A
C691   O746    1.296   .     A
C691   C693    1.455   .     S
C692   C709    1.396   .     A
C693   C709    1.395   .     A
C693   C708    1.385   .     A
C694   O736    1.385   .     S
C694   C695    1.407   .     A
C695   C21     1.399   1_556 S
C695   C27     1.485   1_556 S
C696   H727    1.079   .     S
C697   O731    1.398   .     S
C697   O748    1.223   .     D
C698   C707    1.411   .     A
C699   O733    1.398   .     S
C699   O732    1.211   .     D
C700   C706    1.489   .     S
C700   O735    1.399   .     S
C700   O734    1.220   .     D
C701   O736    1.411   .     S
C701   H716    1.113   .     S
C701   H865    1.109   1_455 S
C701   H867    1.108   1_455 S
C702   O887    1.223   1_455 S
C702   O888    1.398   1_455 S
C703   O740    1.398   .     S
C703   O739    1.222   .     D
C704   C708    1.393   .     A
C705   C706    1.415   .     A
C705   C17     1.414   1_556 S
C705   C29     1.423   1_556 S
C706   C707    1.400   .     A
C707   H711    1.083   .     S
C708   H726    1.080   .     S
C709   H710    1.082   .     S
H712   O731    1.013   .     S
H713   O733    1.014   .     S
H714   O735    1.013   .     S
H715   C776    1.109   .     S
H717   C776    1.108   .     S
H718   O738    1.014   .     S
H719   O740    1.013   .     S
H725   C17     1.079   1_556 S
N728   Zn749   2.022   .     S
N729   Zn750   2.022   .     S
O730   Zn749   1.979   .     S
O737   C777    1.223   .     S
O738   C777    1.398   .     S
O741   Zn750   1.997   .     S
O742   Zn749   1.959   .     S
O743   Zn750   1.916   .     S
O744   Zn749   1.997   .     S
O745   Zn750   1.979   .     S
O746   Zn749   1.916   .     S
O747   Zn750   1.959   .     S
C751   O816    1.284   .     A
C751   O805    1.288   .     A
C751   C759    1.415   .     S
C752   C754    1.467   .     S
C752   C773    1.410   .     A
C752   C769    1.418   .     A
C753   C759    1.411   .     A
C753   C778    1.483   .     S
C753   C980    1.396   .     S
C754   O818    1.304   .     A
C754   O817    1.293   .     A
C755   C756    1.410   .     A
C755   C772    1.492   .     S
C755   C1203   1.396   1_545 S
C756   C757    1.390   .     A
C756   C765    1.412   .     S
C757   H795    1.085   .     S
C757   C1208   1.367   1_545 S
C758   H796    1.085   .     S
C758   C759    1.392   .     A
C758   C982    1.367   .     S
C760   N804    1.346   .     A
C760   H797    1.082   .     S
C760   C836    1.418   .     S
C761   C774    1.498   .     S
C761   N803    1.404   .     A
C762   C773    1.397   .     A
C762   C96     1.413   1_556 S
C762   C104    1.411   1_556 S
C763   N803    1.366   .     A
C763   H798    1.081   .     S
C764   H799    1.080   .     S
C764   N804    1.369   .     A
C764   C838    1.420   .     S
C765   O819    1.285   .     A
C765   O820    1.285   .     A
C766   O822    1.298   .     A
C766   O821    1.296   .     A
C766   C768    1.455   .     S
C767   C784    1.396   .     A
C768   C784    1.395   .     A
C768   C783    1.385   .     A
C769   O811    1.385   .     S
C769   C770    1.407   .     A
C770   C96     1.399   1_556 S
C770   C102    1.485   1_556 S
C771   H802    1.079   .     S
C772   O806    1.398   .     S
C772   O823    1.223   .     D
C773   C782    1.411   .     A
C774   O808    1.398   .     S
C774   O807    1.211   .     D
C775   C781    1.489   .     S
C775   O810    1.399   .     S
C775   O809    1.220   .     D
C776   O811    1.411   .     S
C776   H791    1.113   .     S
C778   O815    1.398   .     S
C778   O814    1.222   .     D
C779   C783    1.393   .     A
C780   C781    1.415   .     A
C780   C92     1.414   1_556 S
C780   C104    1.423   1_556 S
C781   C782    1.400   .     A
C782   H786    1.083   .     S
C783   H801    1.080   .     S
C784   H785    1.082   .     S
H787   O806    1.013   .     S
H788   O808    1.014   .     S
H789   O810    1.013   .     S
H790   C851    1.109   .     S
H792   C851    1.108   .     S
H793   O813    1.014   .     S
H794   O815    1.013   .     S
H800   C92     1.079   1_556 S
N803   Zn824   2.022   .     S
N804   Zn825   2.022   .     S
O805   Zn824   1.979   .     S
O812   C852    1.223   .     S
O813   C852    1.398   .     S
O816   Zn825   1.997   .     S
O817   Zn824   1.959   .     S
O818   Zn825   1.916   .     S
O819   Zn824   1.997   .     S
O820   Zn825   1.979   .     S
O821   Zn824   1.916   .     S
O822   Zn825   1.959   .     S
C826   O891    1.284   .     A
C826   O880    1.288   .     A
C826   C834    1.415   .     S
C827   C829    1.467   .     S
C827   C848    1.410   .     A
C827   C844    1.418   .     A
C828   C834    1.411   .     A
C828   C853    1.483   .     S
C828   C1055   1.396   .     S
C829   O893    1.304   .     A
C829   O892    1.293   .     A
C830   C831    1.410   .     A
C830   C847    1.492   .     S
C830   C1278   1.396   1_545 S
C831   C832    1.390   .     A
C831   C840    1.412   .     S
C832   H870    1.085   .     S
C832   C1283   1.367   1_545 S
C833   H871    1.085   .     S
C833   C834    1.392   .     A
C833   C1057   1.367   .     S
C835   N879    1.346   .     A
C835   H872    1.082   .     S
C835   C686    1.418   1_655 S
C836   C849    1.498   .     S
C836   N878    1.404   .     A
C837   C848    1.397   .     A
C837   C171    1.413   1_556 S
C837   C179    1.411   1_556 S
C838   N878    1.366   .     A
C838   H873    1.081   .     S
C839   H874    1.080   .     S
C839   N879    1.369   .     A
C839   C688    1.420   1_655 S
C840   O894    1.285   .     A
C840   O895    1.285   .     A
C841   O897    1.298   .     A
C841   O896    1.296   .     A
C841   C843    1.455   .     S
C842   C859    1.396   .     A
C843   C859    1.395   .     A
C843   C858    1.385   .     A
C844   O886    1.385   .     S
C844   C845    1.407   .     A
C845   C171    1.399   1_556 S
C845   C177    1.485   1_556 S
C846   H877    1.079   .     S
C847   O881    1.398   .     S
C847   O898    1.223   .     D
C848   C857    1.411   .     A
C849   O883    1.398   .     S
C849   O882    1.211   .     D
C850   C856    1.489   .     S
C850   O885    1.399   .     S
C850   O884    1.220   .     D
C851   O886    1.411   .     S
C851   H866    1.113   .     S
C853   O890    1.398   .     S
C853   O889    1.222   .     D
C854   C858    1.393   .     A
C855   C856    1.415   .     A
C855   C167    1.414   1_556 S
C855   C179    1.423   1_556 S
C856   C857    1.400   .     A
C857   H861    1.083   .     S
C858   H876    1.080   .     S
C859   H860    1.082   .     S
H862   O881    1.013   .     S
H863   O883    1.014   .     S
H864   O885    1.013   .     S
H865   C701    1.109   1_655 S
H867   C701    1.108   1_655 S
H868   O888    1.014   .     S
H869   O890    1.013   .     S
H875   C167    1.079   1_556 S
N878   Zn899   2.022   .     S
N879   Zn900   2.022   .     S
O880   Zn899   1.979   .     S
O887   C702    1.223   1_655 S
O888   C702    1.398   1_655 S
O891   Zn900   1.997   .     S
O892   Zn899   1.959   .     S
O893   Zn900   1.916   .     S
O894   Zn899   1.997   .     S
O895   Zn900   1.979   .     S
O896   Zn899   1.916   .     S
O897   Zn900   1.959   .     S
C901   O966    1.284   .     A
C901   O955    1.288   .     A
C901   C909    1.415   .     S
C902   C904    1.467   .     S
C902   C923    1.410   .     A
C902   C919    1.418   .     A
C903   C909    1.411   .     A
C903   C928    1.483   .     S
C903   C1130   1.396   .     S
C904   O968    1.304   .     A
C904   O967    1.293   .     A
C905   C906    1.410   .     A
C905   C922    1.492   .     S
C906   C907    1.390   .     A
C906   C915    1.412   .     S
C907   H945    1.085   .     S
C908   H946    1.085   .     S
C908   C909    1.392   .     A
C908   C1132   1.367   .     S
C910   N954    1.346   .     A
C910   H947    1.082   .     S
C910   C986    1.418   .     S
C911   C924    1.498   .     S
C911   N953    1.404   .     A
C911   C1060   1.418   1_455 S
C912   C923    1.397   .     A
C912   C246    1.413   1_556 S
C912   C254    1.411   1_556 S
C913   N953    1.366   .     A
C913   H948    1.081   .     S
C913   C1064   1.420   1_455 S
C914   H949    1.080   .     S
C914   N954    1.369   .     A
C914   C988    1.420   .     S
C915   O969    1.285   .     A
C915   O970    1.285   .     A
C916   O972    1.298   .     A
C916   O971    1.296   .     A
C916   C918    1.455   .     S
C917   C934    1.396   .     A
C918   C934    1.395   .     A
C918   C933    1.385   .     A
C919   O961    1.385   .     S
C919   C920    1.407   .     A
C920   C246    1.399   1_556 S
C920   C252    1.485   1_556 S
C921   H952    1.079   .     S
C922   O956    1.398   .     S
C922   O973    1.223   .     D
C923   C932    1.411   .     A
C924   O958    1.398   .     S
C924   O957    1.211   .     D
C925   C931    1.489   .     S
C925   O960    1.399   .     S
C925   O959    1.220   .     D
C926   O961    1.411   .     S
C926   H941    1.113   .     S
C926   H1090   1.109   1_455 S
C926   H1092   1.108   1_455 S
C927   O1112   1.223   1_455 S
C927   O1113   1.398   1_455 S
C928   O965    1.398   .     S
C928   O964    1.222   .     D
C929   C933    1.393   .     A
C930   C931    1.415   .     A
C930   C242    1.414   1_556 S
C930   C254    1.423   1_556 S
C931   C932    1.400   .     A
C932   H936    1.083   .     S
C933   H951    1.080   .     S
C934   H935    1.082   .     S
H937   O956    1.013   .     S
H938   O958    1.014   .     S
H939   O960    1.013   .     S
H940   C1001   1.109   .     S
H942   C1001   1.108   .     S
H943   O963    1.014   .     S
H944   O965    1.013   .     S
H950   C242    1.079   1_556 S
N953   Zn974   2.022   .     S
N954   Zn975   2.022   .     S
O955   Zn974   1.979   .     S
O962   C1002   1.223   .     S
O963   C1002   1.398   .     S
O966   Zn975   1.997   .     S
O967   Zn974   1.959   .     S
O968   Zn975   1.916   .     S
O969   Zn974   1.997   .     S
O970   Zn975   1.979   .     S
O971   Zn974   1.916   .     S
O972   Zn975   1.959   .     S
C976   O1041   1.284   .     A
C976   O1030   1.288   .     A
C976   C984    1.415   .     S
C977   C979    1.467   .     S
C977   C998    1.410   .     A
C977   C994    1.418   .     A
C978   C984    1.411   .     A
C978   C1003   1.483   .     S
C978   C1205   1.396   .     S
C979   O1043   1.304   .     A
C979   O1042   1.293   .     A
C980   C981    1.410   .     A
C980   C997    1.492   .     S
C981   C982    1.390   .     A
C981   C990    1.412   .     S
C982   H1020   1.085   .     S
C983   H1021   1.085   .     S
C983   C984    1.392   .     A
C983   C1207   1.367   .     S
C985   N1029   1.346   .     A
C985   H1022   1.082   .     S
C985   C1061   1.418   .     S
C986   C999    1.498   .     S
C986   N1028   1.404   .     A
C987   C998    1.397   .     A
C987   C321    1.413   1_556 S
C987   C329    1.411   1_556 S
C988   N1028   1.366   .     A
C988   H1023   1.081   .     S
C989   H1024   1.080   .     S
C989   N1029   1.369   .     A
C989   C1063   1.420   .     S
C990   O1044   1.285   .     A
C990   O1045   1.285   .     A
C991   O1047   1.298   .     A
C991   O1046   1.296   .     A
C991   C993    1.455   .     S
C992   C1009   1.396   .     A
C993   C1009   1.395   .     A
C993   C1008   1.385   .     A
C994   O1036   1.385   .     S
C994   C995    1.407   .     A
C995   C321    1.399   1_556 S
C995   C327    1.485   1_556 S
C996   H1027   1.079   .     S
C997   O1031   1.398   .     S
C997   O1048   1.223   .     D
C998   C1007   1.411   .     A
C999   O1033   1.398   .     S
C999   O1032   1.211   .     D
C1000  C1006   1.489   .     S
C1000  O1035   1.399   .     S
C1000  O1034   1.220   .     D
C1001  O1036   1.411   .     S
C1001  H1016   1.113   .     S
C1003  O1040   1.398   .     S
C1003  O1039   1.222   .     D
C1004  C1008   1.393   .     A
C1005  C1006   1.415   .     A
C1005  C317    1.414   1_556 S
C1005  C329    1.423   1_556 S
C1006  C1007   1.400   .     A
C1007  H1011   1.083   .     S
C1008  H1026   1.080   .     S
C1009  H1010   1.082   .     S
H1012  O1031   1.013   .     S
H1013  O1033   1.014   .     S
H1014  O1035   1.013   .     S
H1015  C1076   1.109   .     S
H1017  C1076   1.108   .     S
H1018  O1038   1.014   .     S
H1019  O1040   1.013   .     S
H1025  C317    1.079   1_556 S
N1028  Zn1049  2.022   .     S
N1029  Zn1050  2.022   .     S
O1030  Zn1049  1.979   .     S
O1037  C1077   1.223   .     S
O1038  C1077   1.398   .     S
O1041  Zn1050  1.997   .     S
O1042  Zn1049  1.959   .     S
O1043  Zn1050  1.916   .     S
O1044  Zn1049  1.997   .     S
O1045  Zn1050  1.979   .     S
O1046  Zn1049  1.916   .     S
O1047  Zn1050  1.959   .     S
C1051  O1116   1.284   .     A
C1051  O1105   1.288   .     A
C1051  C1059   1.415   .     S
C1052  C1054   1.467   .     S
C1052  C1073   1.410   .     A
C1052  C1069   1.418   .     A
C1053  C1059   1.411   .     A
C1053  C1078   1.483   .     S
C1053  C1280   1.396   .     S
C1054  O1118   1.304   .     A
C1054  O1117   1.293   .     A
C1055  C1056   1.410   .     A
C1055  C1072   1.492   .     S
C1056  C1057   1.390   .     A
C1056  C1065   1.412   .     S
C1057  H1095   1.085   .     S
C1058  H1096   1.085   .     S
C1058  C1059   1.392   .     A
C1058  C1282   1.367   .     S
C1060  N1104   1.346   .     A
C1060  H1097   1.082   .     S
C1060  C911    1.418   1_655 S
C1061  C1074   1.498   .     S
C1061  N1103   1.404   .     A
C1062  C1073   1.397   .     A
C1062  C396    1.413   1_556 S
C1062  C404    1.411   1_556 S
C1063  N1103   1.366   .     A
C1063  H1098   1.081   .     S
C1064  H1099   1.080   .     S
C1064  N1104   1.369   .     A
C1064  C913    1.420   1_655 S
C1065  O1119   1.285   .     A
C1065  O1120   1.285   .     A
C1066  O1122   1.298   .     A
C1066  O1121   1.296   .     A
C1066  C1068   1.455   .     S
C1067  C1084   1.396   .     A
C1068  C1084   1.395   .     A
C1068  C1083   1.385   .     A
C1069  O1111   1.385   .     S
C1069  C1070   1.407   .     A
C1070  C396    1.399   1_556 S
C1070  C402    1.485   1_556 S
C1071  H1102   1.079   .     S
C1072  O1106   1.398   .     S
C1072  O1123   1.223   .     D
C1073  C1082   1.411   .     A
C1074  O1108   1.398   .     S
C1074  O1107   1.211   .     D
C1075  C1081   1.489   .     S
C1075  O1110   1.399   .     S
C1075  O1109   1.220   .     D
C1076  O1111   1.411   .     S
C1076  H1091   1.113   .     S
C1078  O1115   1.398   .     S
C1078  O1114   1.222   .     D
C1079  C1083   1.393   .     A
C1080  C1081   1.415   .     A
C1080  C392    1.414   1_556 S
C1080  C404    1.423   1_556 S
C1081  C1082   1.400   .     A
C1082  H1086   1.083   .     S
C1083  H1101   1.080   .     S
C1084  H1085   1.082   .     S
H1087  O1106   1.013   .     S
H1088  O1108   1.014   .     S
H1089  O1110   1.013   .     S
H1090  C926    1.109   1_655 S
H1092  C926    1.108   1_655 S
H1093  O1113   1.014   .     S
H1094  O1115   1.013   .     S
H1100  C392    1.079   1_556 S
N1103  Zn1124  2.022   .     S
N1104  Zn1125  2.022   .     S
O1105  Zn1124  1.979   .     S
O1112  C927    1.223   1_655 S
O1113  C927    1.398   1_655 S
O1116  Zn1125  1.997   .     S
O1117  Zn1124  1.959   .     S
O1118  Zn1125  1.916   .     S
O1119  Zn1124  1.997   .     S
O1120  Zn1125  1.979   .     S
O1121  Zn1124  1.916   .     S
O1122  Zn1125  1.959   .     S
C1126  O1191   1.284   .     A
C1126  O1180   1.288   .     A
C1126  C1134   1.415   .     S
C1127  C1129   1.467   .     S
C1127  C1148   1.410   .     A
C1127  C1144   1.418   .     A
C1128  C1134   1.411   .     A
C1128  C1153   1.483   .     S
C1128  C680    1.396   1_565 S
C1129  O1193   1.304   .     A
C1129  O1192   1.293   .     A
C1130  C1131   1.410   .     A
C1130  C1147   1.492   .     S
C1131  C1132   1.390   .     A
C1131  C1140   1.412   .     S
C1132  H1170   1.085   .     S
C1133  H1171   1.085   .     S
C1133  C1134   1.392   .     A
C1133  C682    1.367   1_565 S
C1135  N1179   1.346   .     A
C1135  H1172   1.082   .     S
C1135  C1211   1.418   .     S
C1136  C1149   1.498   .     S
C1136  N1178   1.404   .     A
C1136  C1285   1.418   1_455 S
C1137  C1148   1.397   .     A
C1137  C471    1.413   1_556 S
C1137  C479    1.411   1_556 S
C1138  N1178   1.366   .     A
C1138  H1173   1.081   .     S
C1138  C1289   1.420   1_455 S
C1139  H1174   1.080   .     S
C1139  N1179   1.369   .     A
C1139  C1213   1.420   .     S
C1140  O1194   1.285   .     A
C1140  O1195   1.285   .     A
C1141  O1197   1.298   .     A
C1141  O1196   1.296   .     A
C1141  C1143   1.455   .     S
C1142  C1159   1.396   .     A
C1143  C1159   1.395   .     A
C1143  C1158   1.385   .     A
C1144  O1186   1.385   .     S
C1144  C1145   1.407   .     A
C1145  C471    1.399   1_556 S
C1145  C477    1.485   1_556 S
C1146  H1177   1.079   .     S
C1147  O1181   1.398   .     S
C1147  O1198   1.223   .     D
C1148  C1157   1.411   .     A
C1149  O1183   1.398   .     S
C1149  O1182   1.211   .     D
C1150  C1156   1.489   .     S
C1150  O1185   1.399   .     S
C1150  O1184   1.220   .     D
C1151  O1186   1.411   .     S
C1151  H1166   1.113   .     S
C1151  H1315   1.109   1_455 S
C1151  H1317   1.108   1_455 S
C1152  O1337   1.223   1_455 S
C1152  O1338   1.398   1_455 S
C1153  O1190   1.398   .     S
C1153  O1189   1.222   .     D
C1154  C1158   1.393   .     A
C1155  C1156   1.415   .     A
C1155  C467    1.414   1_556 S
C1155  C479    1.423   1_556 S
C1156  C1157   1.400   .     A
C1157  H1161   1.083   .     S
C1158  H1176   1.080   .     S
C1159  H1160   1.082   .     S
H1162  O1181   1.013   .     S
H1163  O1183   1.014   .     S
H1164  O1185   1.013   .     S
H1165  C1226   1.109   .     S
H1167  C1226   1.108   .     S
H1168  O1188   1.014   .     S
H1169  O1190   1.013   .     S
H1175  C467    1.079   1_556 S
N1178  Zn1199  2.022   .     S
N1179  Zn1200  2.022   .     S
O1180  Zn1199  1.979   .     S
O1187  C1227   1.223   .     S
O1188  C1227   1.398   .     S
O1191  Zn1200  1.997   .     S
O1192  Zn1199  1.959   .     S
O1193  Zn1200  1.916   .     S
O1194  Zn1199  1.997   .     S
O1195  Zn1200  1.979   .     S
O1196  Zn1199  1.916   .     S
O1197  Zn1200  1.959   .     S
C1201  O1266   1.284   .     A
C1201  O1255   1.288   .     A
C1201  C1209   1.415   .     S
C1202  C1204   1.467   .     S
C1202  C1223   1.410   .     A
C1202  C1219   1.418   .     A
C1203  C1209   1.411   .     A
C1203  C1228   1.483   .     S
C1203  C755    1.396   1_565 S
C1204  O1268   1.304   .     A
C1204  O1267   1.293   .     A
C1205  C1206   1.410   .     A
C1205  C1222   1.492   .     S
C1206  C1207   1.390   .     A
C1206  C1215   1.412   .     S
C1207  H1245   1.085   .     S
C1208  H1246   1.085   .     S
C1208  C1209   1.392   .     A
C1208  C757    1.367   1_565 S
C1210  N1254   1.346   .     A
C1210  H1247   1.082   .     S
C1210  C1286   1.418   .     S
C1211  C1224   1.498   .     S
C1211  N1253   1.404   .     A
C1212  C1223   1.397   .     A
C1212  C546    1.413   1_556 S
C1212  C554    1.411   1_556 S
C1213  N1253   1.366   .     A
C1213  H1248   1.081   .     S
C1214  H1249   1.080   .     S
C1214  N1254   1.369   .     A
C1214  C1288   1.420   .     S
C1215  O1269   1.285   .     A
C1215  O1270   1.285   .     A
C1216  O1272   1.298   .     A
C1216  O1271   1.296   .     A
C1216  C1218   1.455   .     S
C1217  C1234   1.396   .     A
C1218  C1234   1.395   .     A
C1218  C1233   1.385   .     A
C1219  O1261   1.385   .     S
C1219  C1220   1.407   .     A
C1220  C546    1.399   1_556 S
C1220  C552    1.485   1_556 S
C1221  H1252   1.079   .     S
C1222  O1256   1.398   .     S
C1222  O1273   1.223   .     D
C1223  C1232   1.411   .     A
C1224  O1258   1.398   .     S
C1224  O1257   1.211   .     D
C1225  C1231   1.489   .     S
C1225  O1260   1.399   .     S
C1225  O1259   1.220   .     D
C1226  O1261   1.411   .     S
C1226  H1241   1.113   .     S
C1228  O1265   1.398   .     S
C1228  O1264   1.222   .     D
C1229  C1233   1.393   .     A
C1230  C1231   1.415   .     A
C1230  C542    1.414   1_556 S
C1230  C554    1.423   1_556 S
C1231  C1232   1.400   .     A
C1232  H1236   1.083   .     S
C1233  H1251   1.080   .     S
C1234  H1235   1.082   .     S
H1237  O1256   1.013   .     S
H1238  O1258   1.014   .     S
H1239  O1260   1.013   .     S
H1240  C1301   1.109   .     S
H1242  C1301   1.108   .     S
H1243  O1263   1.014   .     S
H1244  O1265   1.013   .     S
H1250  C542    1.079   1_556 S
N1253  Zn1274  2.022   .     S
N1254  Zn1275  2.022   .     S
O1255  Zn1274  1.979   .     S
O1262  C1302   1.223   .     S
O1263  C1302   1.398   .     S
O1266  Zn1275  1.997   .     S
O1267  Zn1274  1.959   .     S
O1268  Zn1275  1.916   .     S
O1269  Zn1274  1.997   .     S
O1270  Zn1275  1.979   .     S
O1271  Zn1274  1.916   .     S
O1272  Zn1275  1.959   .     S
C1276  O1341   1.284   .     A
C1276  O1330   1.288   .     A
C1276  C1284   1.415   .     S
C1277  C1279   1.467   .     S
C1277  C1298   1.410   .     A
C1277  C1294   1.418   .     A
C1278  C1284   1.411   .     A
C1278  C1303   1.483   .     S
C1278  C830    1.396   1_565 S
C1279  O1343   1.304   .     A
C1279  O1342   1.293   .     A
C1280  C1281   1.410   .     A
C1280  C1297   1.492   .     S
C1281  C1282   1.390   .     A
C1281  C1290   1.412   .     S
C1282  H1320   1.085   .     S
C1283  H1321   1.085   .     S
C1283  C1284   1.392   .     A
C1283  C832    1.367   1_565 S
C1285  N1329   1.346   .     A
C1285  H1322   1.082   .     S
C1285  C1136   1.418   1_655 S
C1286  C1299   1.498   .     S
C1286  N1328   1.404   .     A
C1287  C1298   1.397   .     A
C1287  C621    1.413   1_556 S
C1287  C629    1.411   1_556 S
C1288  N1328   1.366   .     A
C1288  H1323   1.081   .     S
C1289  H1324   1.080   .     S
C1289  N1329   1.369   .     A
C1289  C1138   1.420   1_655 S
C1290  O1344   1.285   .     A
C1290  O1345   1.285   .     A
C1291  O1347   1.298   .     A
C1291  O1346   1.296   .     A
C1291  C1293   1.455   .     S
C1292  C1309   1.396   .     A
C1293  C1309   1.395   .     A
C1293  C1308   1.385   .     A
C1294  O1336   1.385   .     S
C1294  C1295   1.407   .     A
C1295  C621    1.399   1_556 S
C1295  C627    1.485   1_556 S
C1296  H1327   1.079   .     S
C1297  O1331   1.398   .     S
C1297  O1348   1.223   .     D
C1298  C1307   1.411   .     A
C1299  O1333   1.398   .     S
C1299  O1332   1.211   .     D
C1300  C1306   1.489   .     S
C1300  O1335   1.399   .     S
C1300  O1334   1.220   .     D
C1301  O1336   1.411   .     S
C1301  H1316   1.113   .     S
C1303  O1340   1.398   .     S
C1303  O1339   1.222   .     D
C1304  C1308   1.393   .     A
C1305  C1306   1.415   .     A
C1305  C617    1.414   1_556 S
C1305  C629    1.423   1_556 S
C1306  C1307   1.400   .     A
C1307  H1311   1.083   .     S
C1308  H1326   1.080   .     S
C1309  H1310   1.082   .     S
H1312  O1331   1.013   .     S
H1313  O1333   1.014   .     S
H1314  O1335   1.013   .     S
H1315  C1151   1.109   1_655 S
H1317  C1151   1.108   1_655 S
H1318  O1338   1.014   .     S
H1319  O1340   1.013   .     S
H1325  C617    1.079   1_556 S
N1328  Zn1349  2.022   .     S
N1329  Zn1350  2.022   .     S
O1330  Zn1349  1.979   .     S
O1337  C1152   1.223   1_655 S
O1338  C1152   1.398   1_655 S
O1341  Zn1350  1.997   .     S
O1342  Zn1349  1.959   .     S
O1343  Zn1350  1.916   .     S
O1344  Zn1349  1.997   .     S
O1345  Zn1350  1.979   .     S
O1346  Zn1349  1.916   .     S
O1347  Zn1350  1.959   .     S
