data_str_m2_o1_o10_pcu_sym.169
_audit_creation_date              2020-01-03
_audit_creation_method            'Materials Studio'
_symmetry_space_group_name_H-M    'P1'
_symmetry_Int_Tables_number       1
_symmetry_cell_setting            triclinic
loop_
_symmetry_equiv_pos_as_xyz
  x,y,z
_cell_length_a                    26.1881
_cell_length_b                    32.5003
_cell_length_c                    28.7630
_cell_angle_alpha                 89.4819
_cell_angle_beta                  97.3733
_cell_angle_gamma                 91.4321
loop_
_atom_site_label
_atom_site_type_symbol
_atom_site_fract_x
_atom_site_fract_y
_atom_site_fract_z
_atom_site_U_iso_or_equiv
_atom_site_adp_type
_atom_site_occupancy
C1     C     0.16658   0.08742   0.16677   0.00000  Uiso   1.00
C2     C     0.16675   0.24591   0.16657   0.00000  Uiso   1.00
C3     C     0.06805   0.16663   0.15473   0.00000  Uiso   1.00
C4     C     0.26528   0.16671   0.17861   0.00000  Uiso   1.00
C5     C     0.01284   0.16669   0.14812   0.00000  Uiso   1.00
C6     C     0.32049   0.16665   0.18521   0.00000  Uiso   1.00
C7     C     0.16598   0.02164   0.12441   0.00000  Uiso   1.00
C8     C     0.16736   0.31169   0.20892   0.00000  Uiso   1.00
C9     C     0.16607   0.31240   0.12429   0.00000  Uiso   1.00
C10    C     0.16726   0.02094   0.20904   0.00000  Uiso   1.00
C11    C     0.16675   0.29057   0.16654   0.00000  Uiso   1.00
C12    C     0.16658   0.04277   0.16680   0.00000  Uiso   1.00
C13    C     0.14127   0.13651   0.02263   0.00000  Uiso   1.00
C14    C     0.19206   0.19682   0.31071   0.00000  Uiso   1.00
C15    C     0.14056   0.13641   0.30673   0.00000  Uiso   1.00
C16    C     0.19277   0.19692   0.02660   0.00000  Uiso   1.00
Cu17   Cu    0.16667   0.16667   0.21355   0.00000  Uiso   1.00
Cu18   Cu    0.16667   0.16666   0.11978   0.00000  Uiso   1.00
H19    H     0.16541   0.03790   0.09132   0.00000  Uiso   1.00
H20    H     0.16792   0.29543   0.24201   0.00000  Uiso   1.00
H21    H     0.12054   0.11254   0.03931   0.00000  Uiso   1.00
H22    H     0.21279   0.22079   0.29402   0.00000  Uiso   1.00
N23    N     0.16668   0.16668   0.28403   0.00000  Uiso   1.00
N24    N     0.16665   0.16666   0.04931   0.00000  Uiso   1.00
O25    O     0.16666   0.10655   0.20625   0.00000  Uiso   1.00
O26    O     0.16667   0.22678   0.12709   0.00000  Uiso   1.00
O27    O     0.16666   0.10654   0.12706   0.00000  Uiso   1.00
O28    O     0.16667   0.22679   0.20628   0.00000  Uiso   1.00
O29    O     0.09161   0.16667   0.19712   0.00000  Uiso   1.00
O30    O     0.24172   0.16666   0.13621   0.00000  Uiso   1.00
O31    O     0.09161   0.16666   0.11793   0.00000  Uiso   1.00
O32    O     0.24172   0.16667   0.21540   0.00000  Uiso   1.00
H33    H     0.32656   0.16679   0.11243   0.00000  Uiso   1.00
H34    H     0.00678   0.16654   0.22090   0.00000  Uiso   1.00
H35    H     0.16556   0.29669   0.09118   0.00000  Uiso   1.00
H36    H     0.16778   0.03665   0.24216   0.00000  Uiso   1.00
O37    O     0.11287   0.10482   0.28322   0.00000  Uiso   1.00
H38    H     0.09965   0.11476   0.25179   0.00000  Uiso   1.00
O39    O     0.22046   0.22851   0.05011   0.00000  Uiso   1.00
H40    H     0.23368   0.21857   0.08154   0.00000  Uiso   1.00
C41    C     0.49992   0.08742   0.16677   0.00000  Uiso   1.00
C42    C     0.50009   0.24591   0.16657   0.00000  Uiso   1.00
C43    C     0.40138   0.16663   0.15473   0.00000  Uiso   1.00
C44    C     0.59862   0.16671   0.17861   0.00000  Uiso   1.00
C45    C     0.34617   0.16669   0.14812   0.00000  Uiso   1.00
C46    C     0.65383   0.16665   0.18521   0.00000  Uiso   1.00
C47    C     0.49931   0.02164   0.12441   0.00000  Uiso   1.00
C48    C     0.50069   0.31169   0.20892   0.00000  Uiso   1.00
C49    C     0.49940   0.31240   0.12429   0.00000  Uiso   1.00
C50    C     0.50060   0.02094   0.20904   0.00000  Uiso   1.00
C51    C     0.50008   0.29057   0.16654   0.00000  Uiso   1.00
C52    C     0.49992   0.04277   0.16680   0.00000  Uiso   1.00
C53    C     0.47461   0.13651   0.02263   0.00000  Uiso   1.00
C54    C     0.52539   0.19682   0.31071   0.00000  Uiso   1.00
C55    C     0.47389   0.13641   0.30673   0.00000  Uiso   1.00
C56    C     0.52611   0.19692   0.02660   0.00000  Uiso   1.00
Cu57   Cu    0.50000   0.16667   0.21355   0.00000  Uiso   1.00
Cu58   Cu    0.50000   0.16666   0.11978   0.00000  Uiso   1.00
H59    H     0.49875   0.03790   0.09132   0.00000  Uiso   1.00
H60    H     0.50125   0.29543   0.24201   0.00000  Uiso   1.00
H61    H     0.45388   0.11254   0.03931   0.00000  Uiso   1.00
H62    H     0.54612   0.22079   0.29402   0.00000  Uiso   1.00
N63    N     0.50001   0.16668   0.28403   0.00000  Uiso   1.00
N64    N     0.49999   0.16666   0.04931   0.00000  Uiso   1.00
O65    O     0.50000   0.10655   0.20625   0.00000  Uiso   1.00
O66    O     0.50000   0.22678   0.12709   0.00000  Uiso   1.00
O67    O     0.50000   0.10654   0.12706   0.00000  Uiso   1.00
O68    O     0.50000   0.22679   0.20628   0.00000  Uiso   1.00
O69    O     0.42495   0.16667   0.19712   0.00000  Uiso   1.00
O70    O     0.57505   0.16666   0.13621   0.00000  Uiso   1.00
O71    O     0.42494   0.16666   0.11793   0.00000  Uiso   1.00
O72    O     0.57506   0.16667   0.21540   0.00000  Uiso   1.00
H73    H     0.65989   0.16679   0.11243   0.00000  Uiso   1.00
H74    H     0.34011   0.16654   0.22090   0.00000  Uiso   1.00
H75    H     0.49889   0.29669   0.09118   0.00000  Uiso   1.00
H76    H     0.50111   0.03665   0.24216   0.00000  Uiso   1.00
O77    O     0.44621   0.10482   0.28322   0.00000  Uiso   1.00
H78    H     0.43298   0.11476   0.25179   0.00000  Uiso   1.00
O79    O     0.55379   0.22851   0.05011   0.00000  Uiso   1.00
H80    H     0.56702   0.21857   0.08154   0.00000  Uiso   1.00
C81    C     0.83325   0.08742   0.16677   0.00000  Uiso   1.00
C82    C     0.83342   0.24591   0.16657   0.00000  Uiso   1.00
C83    C     0.73472   0.16663   0.15473   0.00000  Uiso   1.00
C84    C     0.93195   0.16671   0.17861   0.00000  Uiso   1.00
C85    C     0.67951   0.16669   0.14812   0.00000  Uiso   1.00
C86    C     0.98716   0.16665   0.18521   0.00000  Uiso   1.00
C87    C     0.83264   0.02164   0.12441   0.00000  Uiso   1.00
C88    C     0.83402   0.31169   0.20892   0.00000  Uiso   1.00
C89    C     0.83274   0.31240   0.12429   0.00000  Uiso   1.00
C90    C     0.83393   0.02094   0.20904   0.00000  Uiso   1.00
C91    C     0.83342   0.29057   0.16654   0.00000  Uiso   1.00
C92    C     0.83325   0.04277   0.16680   0.00000  Uiso   1.00
C93    C     0.80794   0.13651   0.02263   0.00000  Uiso   1.00
C94    C     0.85873   0.19682   0.31071   0.00000  Uiso   1.00
C95    C     0.80723   0.13641   0.30673   0.00000  Uiso   1.00
C96    C     0.85944   0.19692   0.02660   0.00000  Uiso   1.00
Cu97   Cu    0.83333   0.16667   0.21355   0.00000  Uiso   1.00
Cu98   Cu    0.83333   0.16666   0.11978   0.00000  Uiso   1.00
H99    H     0.83208   0.03790   0.09132   0.00000  Uiso   1.00
H100   H     0.83459   0.29543   0.24201   0.00000  Uiso   1.00
H101   H     0.78721   0.11254   0.03931   0.00000  Uiso   1.00
H102   H     0.87946   0.22079   0.29402   0.00000  Uiso   1.00
N103   N     0.83335   0.16668   0.28403   0.00000  Uiso   1.00
N104   N     0.83332   0.16666   0.04931   0.00000  Uiso   1.00
O105   O     0.83333   0.10655   0.20625   0.00000  Uiso   1.00
O106   O     0.83334   0.22678   0.12709   0.00000  Uiso   1.00
O107   O     0.83333   0.10654   0.12706   0.00000  Uiso   1.00
O108   O     0.83334   0.22679   0.20628   0.00000  Uiso   1.00
O109   O     0.75828   0.16667   0.19712   0.00000  Uiso   1.00
O110   O     0.90839   0.16666   0.13621   0.00000  Uiso   1.00
O111   O     0.75828   0.16666   0.11793   0.00000  Uiso   1.00
O112   O     0.90839   0.16667   0.21540   0.00000  Uiso   1.00
H113   H     0.99322   0.16679   0.11243   0.00000  Uiso   1.00
H114   H     0.67344   0.16654   0.22090   0.00000  Uiso   1.00
H115   H     0.83222   0.29669   0.09118   0.00000  Uiso   1.00
H116   H     0.83444   0.03665   0.24216   0.00000  Uiso   1.00
O117   O     0.77954   0.10482   0.28322   0.00000  Uiso   1.00
H118   H     0.76632   0.11476   0.25179   0.00000  Uiso   1.00
O119   O     0.88713   0.22851   0.05011   0.00000  Uiso   1.00
H120   H     0.90035   0.21857   0.08154   0.00000  Uiso   1.00
C121   C     0.16658   0.42076   0.16677   0.00000  Uiso   1.00
C122   C     0.16675   0.57924   0.16657   0.00000  Uiso   1.00
C123   C     0.06805   0.49996   0.15473   0.00000  Uiso   1.00
C124   C     0.26528   0.50004   0.17861   0.00000  Uiso   1.00
C125   C     0.01284   0.50002   0.14812   0.00000  Uiso   1.00
C126   C     0.32049   0.49998   0.18521   0.00000  Uiso   1.00
C127   C     0.16598   0.35497   0.12441   0.00000  Uiso   1.00
C128   C     0.16736   0.64503   0.20892   0.00000  Uiso   1.00
C129   C     0.16607   0.64573   0.12429   0.00000  Uiso   1.00
C130   C     0.16726   0.35427   0.20904   0.00000  Uiso   1.00
C131   C     0.16675   0.62390   0.16654   0.00000  Uiso   1.00
C132   C     0.16658   0.37610   0.16680   0.00000  Uiso   1.00
C133   C     0.14127   0.46985   0.02263   0.00000  Uiso   1.00
C134   C     0.19206   0.53015   0.31071   0.00000  Uiso   1.00
C135   C     0.14056   0.46975   0.30673   0.00000  Uiso   1.00
C136   C     0.19277   0.53025   0.02660   0.00000  Uiso   1.00
Cu137  Cu    0.16667   0.50001   0.21355   0.00000  Uiso   1.00
Cu138  Cu    0.16667   0.49999   0.11978   0.00000  Uiso   1.00
H139   H     0.16541   0.37124   0.09132   0.00000  Uiso   1.00
H140   H     0.16792   0.62876   0.24201   0.00000  Uiso   1.00
H141   H     0.12054   0.44587   0.03931   0.00000  Uiso   1.00
H142   H     0.21279   0.55413   0.29402   0.00000  Uiso   1.00
N143   N     0.16668   0.50001   0.28403   0.00000  Uiso   1.00
N144   N     0.16665   0.49999   0.04931   0.00000  Uiso   1.00
O145   O     0.16666   0.43989   0.20625   0.00000  Uiso   1.00
O146   O     0.16667   0.56011   0.12709   0.00000  Uiso   1.00
O147   O     0.16666   0.43988   0.12706   0.00000  Uiso   1.00
O148   O     0.16667   0.56012   0.20628   0.00000  Uiso   1.00
O149   O     0.09161   0.50000   0.19712   0.00000  Uiso   1.00
O150   O     0.24172   0.50000   0.13621   0.00000  Uiso   1.00
O151   O     0.09161   0.49999   0.11793   0.00000  Uiso   1.00
O152   O     0.24172   0.50001   0.21540   0.00000  Uiso   1.00
H153   H     0.32656   0.50013   0.11243   0.00000  Uiso   1.00
H154   H     0.00678   0.49987   0.22090   0.00000  Uiso   1.00
H155   H     0.16556   0.63002   0.09118   0.00000  Uiso   1.00
H156   H     0.16778   0.36998   0.24216   0.00000  Uiso   1.00
O157   O     0.11287   0.43815   0.28322   0.00000  Uiso   1.00
H158   H     0.09965   0.44810   0.25179   0.00000  Uiso   1.00
O159   O     0.22046   0.56185   0.05011   0.00000  Uiso   1.00
H160   H     0.23368   0.55191   0.08154   0.00000  Uiso   1.00
C161   C     0.49992   0.42076   0.16677   0.00000  Uiso   1.00
C162   C     0.50009   0.57924   0.16657   0.00000  Uiso   1.00
C163   C     0.40138   0.49996   0.15473   0.00000  Uiso   1.00
C164   C     0.59862   0.50004   0.17861   0.00000  Uiso   1.00
C165   C     0.34617   0.50002   0.14812   0.00000  Uiso   1.00
C166   C     0.65383   0.49998   0.18521   0.00000  Uiso   1.00
C167   C     0.49931   0.35497   0.12441   0.00000  Uiso   1.00
C168   C     0.50069   0.64503   0.20892   0.00000  Uiso   1.00
C169   C     0.49940   0.64573   0.12429   0.00000  Uiso   1.00
C170   C     0.50060   0.35427   0.20904   0.00000  Uiso   1.00
C171   C     0.50008   0.62390   0.16654   0.00000  Uiso   1.00
C172   C     0.49992   0.37610   0.16680   0.00000  Uiso   1.00
C173   C     0.47461   0.46985   0.02263   0.00000  Uiso   1.00
C174   C     0.52539   0.53015   0.31071   0.00000  Uiso   1.00
C175   C     0.47389   0.46975   0.30673   0.00000  Uiso   1.00
C176   C     0.52611   0.53025   0.02660   0.00000  Uiso   1.00
Cu177  Cu    0.50000   0.50001   0.21355   0.00000  Uiso   1.00
Cu178  Cu    0.50000   0.49999   0.11978   0.00000  Uiso   1.00
H179   H     0.49875   0.37124   0.09132   0.00000  Uiso   1.00
H180   H     0.50125   0.62876   0.24201   0.00000  Uiso   1.00
H181   H     0.45388   0.44587   0.03931   0.00000  Uiso   1.00
H182   H     0.54612   0.55413   0.29402   0.00000  Uiso   1.00
N183   N     0.50001   0.50001   0.28403   0.00000  Uiso   1.00
N184   N     0.49999   0.49999   0.04931   0.00000  Uiso   1.00
O185   O     0.50000   0.43989   0.20625   0.00000  Uiso   1.00
O186   O     0.50000   0.56011   0.12709   0.00000  Uiso   1.00
O187   O     0.50000   0.43988   0.12706   0.00000  Uiso   1.00
O188   O     0.50000   0.56012   0.20628   0.00000  Uiso   1.00
O189   O     0.42495   0.50000   0.19712   0.00000  Uiso   1.00
O190   O     0.57505   0.50000   0.13621   0.00000  Uiso   1.00
O191   O     0.42494   0.49999   0.11793   0.00000  Uiso   1.00
O192   O     0.57506   0.50001   0.21540   0.00000  Uiso   1.00
H193   H     0.65989   0.50013   0.11243   0.00000  Uiso   1.00
H194   H     0.34011   0.49987   0.22090   0.00000  Uiso   1.00
H195   H     0.49889   0.63002   0.09118   0.00000  Uiso   1.00
H196   H     0.50111   0.36998   0.24216   0.00000  Uiso   1.00
O197   O     0.44621   0.43815   0.28322   0.00000  Uiso   1.00
H198   H     0.43298   0.44810   0.25179   0.00000  Uiso   1.00
O199   O     0.55379   0.56185   0.05011   0.00000  Uiso   1.00
H200   H     0.56702   0.55191   0.08154   0.00000  Uiso   1.00
C201   C     0.83325   0.42076   0.16677   0.00000  Uiso   1.00
C202   C     0.83342   0.57924   0.16657   0.00000  Uiso   1.00
C203   C     0.73472   0.49996   0.15473   0.00000  Uiso   1.00
C204   C     0.93195   0.50004   0.17861   0.00000  Uiso   1.00
C205   C     0.67951   0.50002   0.14812   0.00000  Uiso   1.00
C206   C     0.98716   0.49998   0.18521   0.00000  Uiso   1.00
C207   C     0.83264   0.35497   0.12441   0.00000  Uiso   1.00
C208   C     0.83402   0.64503   0.20892   0.00000  Uiso   1.00
C209   C     0.83274   0.64573   0.12429   0.00000  Uiso   1.00
C210   C     0.83393   0.35427   0.20904   0.00000  Uiso   1.00
C211   C     0.83342   0.62390   0.16654   0.00000  Uiso   1.00
C212   C     0.83325   0.37610   0.16680   0.00000  Uiso   1.00
C213   C     0.80794   0.46985   0.02263   0.00000  Uiso   1.00
C214   C     0.85873   0.53015   0.31071   0.00000  Uiso   1.00
C215   C     0.80723   0.46975   0.30673   0.00000  Uiso   1.00
C216   C     0.85944   0.53025   0.02660   0.00000  Uiso   1.00
Cu217  Cu    0.83333   0.50001   0.21355   0.00000  Uiso   1.00
Cu218  Cu    0.83333   0.49999   0.11978   0.00000  Uiso   1.00
H219   H     0.83208   0.37124   0.09132   0.00000  Uiso   1.00
H220   H     0.83459   0.62876   0.24201   0.00000  Uiso   1.00
H221   H     0.78721   0.44587   0.03931   0.00000  Uiso   1.00
H222   H     0.87946   0.55413   0.29402   0.00000  Uiso   1.00
N223   N     0.83335   0.50001   0.28403   0.00000  Uiso   1.00
N224   N     0.83332   0.49999   0.04931   0.00000  Uiso   1.00
O225   O     0.83333   0.43989   0.20625   0.00000  Uiso   1.00
O226   O     0.83334   0.56011   0.12709   0.00000  Uiso   1.00
O227   O     0.83333   0.43988   0.12706   0.00000  Uiso   1.00
O228   O     0.83334   0.56012   0.20628   0.00000  Uiso   1.00
O229   O     0.75828   0.50000   0.19712   0.00000  Uiso   1.00
O230   O     0.90839   0.50000   0.13621   0.00000  Uiso   1.00
O231   O     0.75828   0.49999   0.11793   0.00000  Uiso   1.00
O232   O     0.90839   0.50001   0.21540   0.00000  Uiso   1.00
H233   H     0.99322   0.50013   0.11243   0.00000  Uiso   1.00
H234   H     0.67344   0.49987   0.22090   0.00000  Uiso   1.00
H235   H     0.83222   0.63002   0.09118   0.00000  Uiso   1.00
H236   H     0.83444   0.36998   0.24216   0.00000  Uiso   1.00
O237   O     0.77954   0.43815   0.28322   0.00000  Uiso   1.00
H238   H     0.76632   0.44810   0.25179   0.00000  Uiso   1.00
O239   O     0.88713   0.56185   0.05011   0.00000  Uiso   1.00
H240   H     0.90035   0.55191   0.08154   0.00000  Uiso   1.00
C241   C     0.16658   0.75409   0.16677   0.00000  Uiso   1.00
C242   C     0.16675   0.91258   0.16657   0.00000  Uiso   1.00
C243   C     0.06805   0.83329   0.15473   0.00000  Uiso   1.00
C244   C     0.26528   0.83337   0.17861   0.00000  Uiso   1.00
C245   C     0.01284   0.83335   0.14812   0.00000  Uiso   1.00
C246   C     0.32049   0.83331   0.18521   0.00000  Uiso   1.00
C247   C     0.16598   0.68831   0.12441   0.00000  Uiso   1.00
C248   C     0.16736   0.97836   0.20892   0.00000  Uiso   1.00
C249   C     0.16607   0.97906   0.12429   0.00000  Uiso   1.00
C250   C     0.16726   0.68760   0.20904   0.00000  Uiso   1.00
C251   C     0.16675   0.95723   0.16654   0.00000  Uiso   1.00
C252   C     0.16658   0.70943   0.16680   0.00000  Uiso   1.00
C253   C     0.14127   0.80318   0.02263   0.00000  Uiso   1.00
C254   C     0.19206   0.86349   0.31071   0.00000  Uiso   1.00
C255   C     0.14056   0.80308   0.30673   0.00000  Uiso   1.00
C256   C     0.19277   0.86359   0.02660   0.00000  Uiso   1.00
Cu257  Cu    0.16667   0.83334   0.21355   0.00000  Uiso   1.00
Cu258  Cu    0.16667   0.83333   0.11978   0.00000  Uiso   1.00
H259   H     0.16541   0.70457   0.09132   0.00000  Uiso   1.00
H260   H     0.16792   0.96210   0.24201   0.00000  Uiso   1.00
H261   H     0.12054   0.77921   0.03931   0.00000  Uiso   1.00
H262   H     0.21279   0.88746   0.29402   0.00000  Uiso   1.00
N263   N     0.16668   0.83334   0.28403   0.00000  Uiso   1.00
N264   N     0.16665   0.83332   0.04931   0.00000  Uiso   1.00
O265   O     0.16666   0.77322   0.20625   0.00000  Uiso   1.00
O266   O     0.16667   0.89345   0.12709   0.00000  Uiso   1.00
O267   O     0.16666   0.77321   0.12706   0.00000  Uiso   1.00
O268   O     0.16667   0.89346   0.20628   0.00000  Uiso   1.00
O269   O     0.09161   0.83334   0.19712   0.00000  Uiso   1.00
O270   O     0.24172   0.83333   0.13621   0.00000  Uiso   1.00
O271   O     0.09161   0.83333   0.11793   0.00000  Uiso   1.00
O272   O     0.24172   0.83334   0.21540   0.00000  Uiso   1.00
H273   H     0.32656   0.83346   0.11243   0.00000  Uiso   1.00
H274   H     0.00678   0.83321   0.22090   0.00000  Uiso   1.00
H275   H     0.16556   0.96335   0.09118   0.00000  Uiso   1.00
H276   H     0.16778   0.70331   0.24216   0.00000  Uiso   1.00
O277   O     0.11287   0.77149   0.28322   0.00000  Uiso   1.00
H278   H     0.09965   0.78143   0.25179   0.00000  Uiso   1.00
O279   O     0.22046   0.89518   0.05011   0.00000  Uiso   1.00
H280   H     0.23368   0.88524   0.08154   0.00000  Uiso   1.00
C281   C     0.49992   0.75409   0.16677   0.00000  Uiso   1.00
C282   C     0.50009   0.91258   0.16657   0.00000  Uiso   1.00
C283   C     0.40138   0.83329   0.15473   0.00000  Uiso   1.00
C284   C     0.59862   0.83337   0.17861   0.00000  Uiso   1.00
C285   C     0.34617   0.83335   0.14812   0.00000  Uiso   1.00
C286   C     0.65383   0.83331   0.18521   0.00000  Uiso   1.00
C287   C     0.49931   0.68831   0.12441   0.00000  Uiso   1.00
C288   C     0.50069   0.97836   0.20892   0.00000  Uiso   1.00
C289   C     0.49940   0.97906   0.12429   0.00000  Uiso   1.00
C290   C     0.50060   0.68760   0.20904   0.00000  Uiso   1.00
C291   C     0.50008   0.95723   0.16654   0.00000  Uiso   1.00
C292   C     0.49992   0.70943   0.16680   0.00000  Uiso   1.00
C293   C     0.47461   0.80318   0.02263   0.00000  Uiso   1.00
C294   C     0.52539   0.86349   0.31071   0.00000  Uiso   1.00
C295   C     0.47389   0.80308   0.30673   0.00000  Uiso   1.00
C296   C     0.52611   0.86359   0.02660   0.00000  Uiso   1.00
Cu297  Cu    0.50000   0.83334   0.21355   0.00000  Uiso   1.00
Cu298  Cu    0.50000   0.83333   0.11978   0.00000  Uiso   1.00
H299   H     0.49875   0.70457   0.09132   0.00000  Uiso   1.00
H300   H     0.50125   0.96210   0.24201   0.00000  Uiso   1.00
H301   H     0.45388   0.77921   0.03931   0.00000  Uiso   1.00
H302   H     0.54612   0.88746   0.29402   0.00000  Uiso   1.00
N303   N     0.50001   0.83334   0.28403   0.00000  Uiso   1.00
N304   N     0.49999   0.83332   0.04931   0.00000  Uiso   1.00
O305   O     0.50000   0.77322   0.20625   0.00000  Uiso   1.00
O306   O     0.50000   0.89345   0.12709   0.00000  Uiso   1.00
O307   O     0.50000   0.77321   0.12706   0.00000  Uiso   1.00
O308   O     0.50000   0.89346   0.20628   0.00000  Uiso   1.00
O309   O     0.42495   0.83334   0.19712   0.00000  Uiso   1.00
O310   O     0.57505   0.83333   0.13621   0.00000  Uiso   1.00
O311   O     0.42494   0.83333   0.11793   0.00000  Uiso   1.00
O312   O     0.57506   0.83334   0.21540   0.00000  Uiso   1.00
H313   H     0.65989   0.83346   0.11243   0.00000  Uiso   1.00
H314   H     0.34011   0.83321   0.22090   0.00000  Uiso   1.00
H315   H     0.49889   0.96335   0.09118   0.00000  Uiso   1.00
H316   H     0.50111   0.70331   0.24216   0.00000  Uiso   1.00
O317   O     0.44621   0.77149   0.28322   0.00000  Uiso   1.00
H318   H     0.43298   0.78143   0.25179   0.00000  Uiso   1.00
O319   O     0.55379   0.89518   0.05011   0.00000  Uiso   1.00
H320   H     0.56702   0.88524   0.08154   0.00000  Uiso   1.00
C321   C     0.83325   0.75409   0.16677   0.00000  Uiso   1.00
C322   C     0.83342   0.91258   0.16657   0.00000  Uiso   1.00
C323   C     0.73472   0.83329   0.15473   0.00000  Uiso   1.00
C324   C     0.93195   0.83337   0.17861   0.00000  Uiso   1.00
C325   C     0.67951   0.83335   0.14812   0.00000  Uiso   1.00
C326   C     0.98716   0.83331   0.18521   0.00000  Uiso   1.00
C327   C     0.83264   0.68831   0.12441   0.00000  Uiso   1.00
C328   C     0.83402   0.97836   0.20892   0.00000  Uiso   1.00
C329   C     0.83274   0.97906   0.12429   0.00000  Uiso   1.00
C330   C     0.83393   0.68760   0.20904   0.00000  Uiso   1.00
C331   C     0.83342   0.95723   0.16654   0.00000  Uiso   1.00
C332   C     0.83325   0.70943   0.16680   0.00000  Uiso   1.00
C333   C     0.80794   0.80318   0.02263   0.00000  Uiso   1.00
C334   C     0.85873   0.86349   0.31071   0.00000  Uiso   1.00
C335   C     0.80723   0.80308   0.30673   0.00000  Uiso   1.00
C336   C     0.85944   0.86359   0.02660   0.00000  Uiso   1.00
Cu337  Cu    0.83333   0.83334   0.21355   0.00000  Uiso   1.00
Cu338  Cu    0.83333   0.83333   0.11978   0.00000  Uiso   1.00
H339   H     0.83208   0.70457   0.09132   0.00000  Uiso   1.00
H340   H     0.83459   0.96210   0.24201   0.00000  Uiso   1.00
H341   H     0.78721   0.77921   0.03931   0.00000  Uiso   1.00
H342   H     0.87946   0.88746   0.29402   0.00000  Uiso   1.00
N343   N     0.83335   0.83334   0.28403   0.00000  Uiso   1.00
N344   N     0.83332   0.83332   0.04931   0.00000  Uiso   1.00
O345   O     0.83333   0.77322   0.20625   0.00000  Uiso   1.00
O346   O     0.83334   0.89345   0.12709   0.00000  Uiso   1.00
O347   O     0.83333   0.77321   0.12706   0.00000  Uiso   1.00
O348   O     0.83334   0.89346   0.20628   0.00000  Uiso   1.00
O349   O     0.75828   0.83334   0.19712   0.00000  Uiso   1.00
O350   O     0.90839   0.83333   0.13621   0.00000  Uiso   1.00
O351   O     0.75828   0.83333   0.11793   0.00000  Uiso   1.00
O352   O     0.90839   0.83334   0.21540   0.00000  Uiso   1.00
H353   H     0.99322   0.83346   0.11243   0.00000  Uiso   1.00
H354   H     0.67344   0.83321   0.22090   0.00000  Uiso   1.00
H355   H     0.83222   0.96335   0.09118   0.00000  Uiso   1.00
H356   H     0.83444   0.70331   0.24216   0.00000  Uiso   1.00
O357   O     0.77954   0.77149   0.28322   0.00000  Uiso   1.00
H358   H     0.76632   0.78143   0.25179   0.00000  Uiso   1.00
O359   O     0.88713   0.89518   0.05011   0.00000  Uiso   1.00
H360   H     0.90035   0.88524   0.08154   0.00000  Uiso   1.00
C361   C     0.16658   0.08742   0.50010   0.00000  Uiso   1.00
C362   C     0.16675   0.24591   0.49990   0.00000  Uiso   1.00
C363   C     0.06805   0.16663   0.48806   0.00000  Uiso   1.00
C364   C     0.26528   0.16671   0.51194   0.00000  Uiso   1.00
C365   C     0.01284   0.16669   0.48146   0.00000  Uiso   1.00
C366   C     0.32049   0.16665   0.51854   0.00000  Uiso   1.00
C367   C     0.16598   0.02164   0.45775   0.00000  Uiso   1.00
C368   C     0.16736   0.31169   0.54225   0.00000  Uiso   1.00
C369   C     0.16607   0.31240   0.45762   0.00000  Uiso   1.00
C370   C     0.16726   0.02094   0.54238   0.00000  Uiso   1.00
C371   C     0.16675   0.29057   0.49987   0.00000  Uiso   1.00
C372   C     0.16658   0.04277   0.50013   0.00000  Uiso   1.00
C373   C     0.14127   0.13651   0.35596   0.00000  Uiso   1.00
C374   C     0.19206   0.19682   0.64404   0.00000  Uiso   1.00
C375   C     0.14056   0.13641   0.64006   0.00000  Uiso   1.00
C376   C     0.19277   0.19692   0.35994   0.00000  Uiso   1.00
Cu377  Cu    0.16667   0.16667   0.54689   0.00000  Uiso   1.00
Cu378  Cu    0.16667   0.16666   0.45311   0.00000  Uiso   1.00
H379   H     0.16541   0.03790   0.42465   0.00000  Uiso   1.00
H380   H     0.16792   0.29543   0.57535   0.00000  Uiso   1.00
H381   H     0.12054   0.11254   0.37264   0.00000  Uiso   1.00
H382   H     0.21279   0.22079   0.62736   0.00000  Uiso   1.00
N383   N     0.16668   0.16668   0.61736   0.00000  Uiso   1.00
N384   N     0.16665   0.16666   0.38264   0.00000  Uiso   1.00
O385   O     0.16666   0.10655   0.53958   0.00000  Uiso   1.00
O386   O     0.16667   0.22678   0.46042   0.00000  Uiso   1.00
O387   O     0.16666   0.10654   0.46039   0.00000  Uiso   1.00
O388   O     0.16667   0.22679   0.53961   0.00000  Uiso   1.00
O389   O     0.09161   0.16667   0.53046   0.00000  Uiso   1.00
O390   O     0.24172   0.16666   0.46954   0.00000  Uiso   1.00
O391   O     0.09161   0.16666   0.45127   0.00000  Uiso   1.00
O392   O     0.24172   0.16667   0.54873   0.00000  Uiso   1.00
H393   H     0.32656   0.16679   0.44577   0.00000  Uiso   1.00
H394   H     0.00678   0.16654   0.55423   0.00000  Uiso   1.00
H395   H     0.16556   0.29669   0.42451   0.00000  Uiso   1.00
H396   H     0.16778   0.03665   0.57549   0.00000  Uiso   1.00
O397   O     0.11287   0.10482   0.61656   0.00000  Uiso   1.00
H398   H     0.09965   0.11476   0.58513   0.00000  Uiso   1.00
O399   O     0.22046   0.22851   0.38345   0.00000  Uiso   1.00
H400   H     0.23368   0.21857   0.41487   0.00000  Uiso   1.00
C401   C     0.49992   0.08742   0.50010   0.00000  Uiso   1.00
C402   C     0.50009   0.24591   0.49990   0.00000  Uiso   1.00
C403   C     0.40138   0.16663   0.48806   0.00000  Uiso   1.00
C404   C     0.59862   0.16671   0.51194   0.00000  Uiso   1.00
C405   C     0.34617   0.16669   0.48146   0.00000  Uiso   1.00
C406   C     0.65383   0.16665   0.51854   0.00000  Uiso   1.00
C407   C     0.49931   0.02164   0.45775   0.00000  Uiso   1.00
C408   C     0.50069   0.31169   0.54225   0.00000  Uiso   1.00
C409   C     0.49940   0.31240   0.45762   0.00000  Uiso   1.00
C410   C     0.50060   0.02094   0.54238   0.00000  Uiso   1.00
C411   C     0.50008   0.29057   0.49987   0.00000  Uiso   1.00
C412   C     0.49992   0.04277   0.50013   0.00000  Uiso   1.00
C413   C     0.47461   0.13651   0.35596   0.00000  Uiso   1.00
C414   C     0.52539   0.19682   0.64404   0.00000  Uiso   1.00
C415   C     0.47389   0.13641   0.64006   0.00000  Uiso   1.00
C416   C     0.52611   0.19692   0.35994   0.00000  Uiso   1.00
Cu417  Cu    0.50000   0.16667   0.54689   0.00000  Uiso   1.00
Cu418  Cu    0.50000   0.16666   0.45311   0.00000  Uiso   1.00
H419   H     0.49875   0.03790   0.42465   0.00000  Uiso   1.00
H420   H     0.50125   0.29543   0.57535   0.00000  Uiso   1.00
H421   H     0.45388   0.11254   0.37264   0.00000  Uiso   1.00
H422   H     0.54612   0.22079   0.62736   0.00000  Uiso   1.00
N423   N     0.50001   0.16668   0.61736   0.00000  Uiso   1.00
N424   N     0.49999   0.16666   0.38264   0.00000  Uiso   1.00
O425   O     0.50000   0.10655   0.53958   0.00000  Uiso   1.00
O426   O     0.50000   0.22678   0.46042   0.00000  Uiso   1.00
O427   O     0.50000   0.10654   0.46039   0.00000  Uiso   1.00
O428   O     0.50000   0.22679   0.53961   0.00000  Uiso   1.00
O429   O     0.42495   0.16667   0.53046   0.00000  Uiso   1.00
O430   O     0.57505   0.16666   0.46954   0.00000  Uiso   1.00
O431   O     0.42494   0.16666   0.45127   0.00000  Uiso   1.00
O432   O     0.57506   0.16667   0.54873   0.00000  Uiso   1.00
H433   H     0.65989   0.16679   0.44577   0.00000  Uiso   1.00
H434   H     0.34011   0.16654   0.55423   0.00000  Uiso   1.00
H435   H     0.49889   0.29669   0.42451   0.00000  Uiso   1.00
H436   H     0.50111   0.03665   0.57549   0.00000  Uiso   1.00
O437   O     0.44621   0.10482   0.61656   0.00000  Uiso   1.00
H438   H     0.43298   0.11476   0.58513   0.00000  Uiso   1.00
O439   O     0.55379   0.22851   0.38345   0.00000  Uiso   1.00
H440   H     0.56702   0.21857   0.41487   0.00000  Uiso   1.00
C441   C     0.83325   0.08742   0.50010   0.00000  Uiso   1.00
C442   C     0.83342   0.24591   0.49990   0.00000  Uiso   1.00
C443   C     0.73472   0.16663   0.48806   0.00000  Uiso   1.00
C444   C     0.93195   0.16671   0.51194   0.00000  Uiso   1.00
C445   C     0.67951   0.16669   0.48146   0.00000  Uiso   1.00
C446   C     0.98716   0.16665   0.51854   0.00000  Uiso   1.00
C447   C     0.83264   0.02164   0.45775   0.00000  Uiso   1.00
C448   C     0.83402   0.31169   0.54225   0.00000  Uiso   1.00
C449   C     0.83274   0.31240   0.45762   0.00000  Uiso   1.00
C450   C     0.83393   0.02094   0.54238   0.00000  Uiso   1.00
C451   C     0.83342   0.29057   0.49987   0.00000  Uiso   1.00
C452   C     0.83325   0.04277   0.50013   0.00000  Uiso   1.00
C453   C     0.80794   0.13651   0.35596   0.00000  Uiso   1.00
C454   C     0.85873   0.19682   0.64404   0.00000  Uiso   1.00
C455   C     0.80723   0.13641   0.64006   0.00000  Uiso   1.00
C456   C     0.85944   0.19692   0.35994   0.00000  Uiso   1.00
Cu457  Cu    0.83333   0.16667   0.54689   0.00000  Uiso   1.00
Cu458  Cu    0.83333   0.16666   0.45311   0.00000  Uiso   1.00
H459   H     0.83208   0.03790   0.42465   0.00000  Uiso   1.00
H460   H     0.83459   0.29543   0.57535   0.00000  Uiso   1.00
H461   H     0.78721   0.11254   0.37264   0.00000  Uiso   1.00
H462   H     0.87946   0.22079   0.62736   0.00000  Uiso   1.00
N463   N     0.83335   0.16668   0.61736   0.00000  Uiso   1.00
N464   N     0.83332   0.16666   0.38264   0.00000  Uiso   1.00
O465   O     0.83333   0.10655   0.53958   0.00000  Uiso   1.00
O466   O     0.83334   0.22678   0.46042   0.00000  Uiso   1.00
O467   O     0.83333   0.10654   0.46039   0.00000  Uiso   1.00
O468   O     0.83334   0.22679   0.53961   0.00000  Uiso   1.00
O469   O     0.75828   0.16667   0.53046   0.00000  Uiso   1.00
O470   O     0.90839   0.16666   0.46954   0.00000  Uiso   1.00
O471   O     0.75828   0.16666   0.45127   0.00000  Uiso   1.00
O472   O     0.90839   0.16667   0.54873   0.00000  Uiso   1.00
H473   H     0.99322   0.16679   0.44577   0.00000  Uiso   1.00
H474   H     0.67344   0.16654   0.55423   0.00000  Uiso   1.00
H475   H     0.83222   0.29669   0.42451   0.00000  Uiso   1.00
H476   H     0.83444   0.03665   0.57549   0.00000  Uiso   1.00
O477   O     0.77954   0.10482   0.61656   0.00000  Uiso   1.00
H478   H     0.76632   0.11476   0.58513   0.00000  Uiso   1.00
O479   O     0.88713   0.22851   0.38345   0.00000  Uiso   1.00
H480   H     0.90035   0.21857   0.41487   0.00000  Uiso   1.00
C481   C     0.16658   0.42076   0.50010   0.00000  Uiso   1.00
C482   C     0.16675   0.57924   0.49990   0.00000  Uiso   1.00
C483   C     0.06805   0.49996   0.48806   0.00000  Uiso   1.00
C484   C     0.26528   0.50004   0.51194   0.00000  Uiso   1.00
C485   C     0.01284   0.50002   0.48146   0.00000  Uiso   1.00
C486   C     0.32049   0.49998   0.51854   0.00000  Uiso   1.00
C487   C     0.16598   0.35497   0.45775   0.00000  Uiso   1.00
C488   C     0.16736   0.64503   0.54225   0.00000  Uiso   1.00
C489   C     0.16607   0.64573   0.45762   0.00000  Uiso   1.00
C490   C     0.16726   0.35427   0.54238   0.00000  Uiso   1.00
C491   C     0.16675   0.62390   0.49987   0.00000  Uiso   1.00
C492   C     0.16658   0.37610   0.50013   0.00000  Uiso   1.00
C493   C     0.14127   0.46985   0.35596   0.00000  Uiso   1.00
C494   C     0.19206   0.53015   0.64404   0.00000  Uiso   1.00
C495   C     0.14056   0.46975   0.64006   0.00000  Uiso   1.00
C496   C     0.19277   0.53025   0.35994   0.00000  Uiso   1.00
Cu497  Cu    0.16667   0.50001   0.54689   0.00000  Uiso   1.00
Cu498  Cu    0.16667   0.49999   0.45311   0.00000  Uiso   1.00
H499   H     0.16541   0.37124   0.42465   0.00000  Uiso   1.00
H500   H     0.16792   0.62876   0.57535   0.00000  Uiso   1.00
H501   H     0.12054   0.44587   0.37264   0.00000  Uiso   1.00
H502   H     0.21279   0.55413   0.62736   0.00000  Uiso   1.00
N503   N     0.16668   0.50001   0.61736   0.00000  Uiso   1.00
N504   N     0.16665   0.49999   0.38264   0.00000  Uiso   1.00
O505   O     0.16666   0.43989   0.53958   0.00000  Uiso   1.00
O506   O     0.16667   0.56011   0.46042   0.00000  Uiso   1.00
O507   O     0.16666   0.43988   0.46039   0.00000  Uiso   1.00
O508   O     0.16667   0.56012   0.53961   0.00000  Uiso   1.00
O509   O     0.09161   0.50000   0.53046   0.00000  Uiso   1.00
O510   O     0.24172   0.50000   0.46954   0.00000  Uiso   1.00
O511   O     0.09161   0.49999   0.45127   0.00000  Uiso   1.00
O512   O     0.24172   0.50001   0.54873   0.00000  Uiso   1.00
H513   H     0.32656   0.50013   0.44577   0.00000  Uiso   1.00
H514   H     0.00678   0.49987   0.55423   0.00000  Uiso   1.00
H515   H     0.16556   0.63002   0.42451   0.00000  Uiso   1.00
H516   H     0.16778   0.36998   0.57549   0.00000  Uiso   1.00
O517   O     0.11287   0.43815   0.61656   0.00000  Uiso   1.00
H518   H     0.09965   0.44810   0.58513   0.00000  Uiso   1.00
O519   O     0.22046   0.56185   0.38345   0.00000  Uiso   1.00
H520   H     0.23368   0.55191   0.41487   0.00000  Uiso   1.00
C521   C     0.49992   0.42076   0.50010   0.00000  Uiso   1.00
C522   C     0.50009   0.57924   0.49990   0.00000  Uiso   1.00
C523   C     0.40138   0.49996   0.48806   0.00000  Uiso   1.00
C524   C     0.59862   0.50004   0.51194   0.00000  Uiso   1.00
C525   C     0.34617   0.50002   0.48146   0.00000  Uiso   1.00
C526   C     0.65383   0.49998   0.51854   0.00000  Uiso   1.00
C527   C     0.49931   0.35497   0.45775   0.00000  Uiso   1.00
C528   C     0.50069   0.64503   0.54225   0.00000  Uiso   1.00
C529   C     0.49940   0.64573   0.45762   0.00000  Uiso   1.00
C530   C     0.50060   0.35427   0.54238   0.00000  Uiso   1.00
C531   C     0.50008   0.62390   0.49987   0.00000  Uiso   1.00
C532   C     0.49992   0.37610   0.50013   0.00000  Uiso   1.00
C533   C     0.47461   0.46985   0.35596   0.00000  Uiso   1.00
C534   C     0.52539   0.53015   0.64404   0.00000  Uiso   1.00
C535   C     0.47389   0.46975   0.64006   0.00000  Uiso   1.00
C536   C     0.52611   0.53025   0.35994   0.00000  Uiso   1.00
Cu537  Cu    0.50000   0.50001   0.54689   0.00000  Uiso   1.00
Cu538  Cu    0.50000   0.49999   0.45311   0.00000  Uiso   1.00
H539   H     0.49875   0.37124   0.42465   0.00000  Uiso   1.00
H540   H     0.50125   0.62876   0.57535   0.00000  Uiso   1.00
H541   H     0.45388   0.44587   0.37264   0.00000  Uiso   1.00
H542   H     0.54612   0.55413   0.62736   0.00000  Uiso   1.00
N543   N     0.50001   0.50001   0.61736   0.00000  Uiso   1.00
N544   N     0.49999   0.49999   0.38264   0.00000  Uiso   1.00
O545   O     0.50000   0.43989   0.53958   0.00000  Uiso   1.00
O546   O     0.50000   0.56011   0.46042   0.00000  Uiso   1.00
O547   O     0.50000   0.43988   0.46039   0.00000  Uiso   1.00
O548   O     0.50000   0.56012   0.53961   0.00000  Uiso   1.00
O549   O     0.42495   0.50000   0.53046   0.00000  Uiso   1.00
O550   O     0.57505   0.50000   0.46954   0.00000  Uiso   1.00
O551   O     0.42494   0.49999   0.45127   0.00000  Uiso   1.00
O552   O     0.57506   0.50001   0.54873   0.00000  Uiso   1.00
H553   H     0.65989   0.50013   0.44577   0.00000  Uiso   1.00
H554   H     0.34011   0.49987   0.55423   0.00000  Uiso   1.00
H555   H     0.49889   0.63002   0.42451   0.00000  Uiso   1.00
H556   H     0.50111   0.36998   0.57549   0.00000  Uiso   1.00
O557   O     0.44621   0.43815   0.61656   0.00000  Uiso   1.00
H558   H     0.43298   0.44810   0.58513   0.00000  Uiso   1.00
O559   O     0.55379   0.56185   0.38345   0.00000  Uiso   1.00
H560   H     0.56702   0.55191   0.41487   0.00000  Uiso   1.00
C561   C     0.83325   0.42076   0.50010   0.00000  Uiso   1.00
C562   C     0.83342   0.57924   0.49990   0.00000  Uiso   1.00
C563   C     0.73472   0.49996   0.48806   0.00000  Uiso   1.00
C564   C     0.93195   0.50004   0.51194   0.00000  Uiso   1.00
C565   C     0.67951   0.50002   0.48146   0.00000  Uiso   1.00
C566   C     0.98716   0.49998   0.51854   0.00000  Uiso   1.00
C567   C     0.83264   0.35497   0.45775   0.00000  Uiso   1.00
C568   C     0.83402   0.64503   0.54225   0.00000  Uiso   1.00
C569   C     0.83274   0.64573   0.45762   0.00000  Uiso   1.00
C570   C     0.83393   0.35427   0.54238   0.00000  Uiso   1.00
C571   C     0.83342   0.62390   0.49987   0.00000  Uiso   1.00
C572   C     0.83325   0.37610   0.50013   0.00000  Uiso   1.00
C573   C     0.80794   0.46985   0.35596   0.00000  Uiso   1.00
C574   C     0.85873   0.53015   0.64404   0.00000  Uiso   1.00
C575   C     0.80723   0.46975   0.64006   0.00000  Uiso   1.00
C576   C     0.85944   0.53025   0.35994   0.00000  Uiso   1.00
Cu577  Cu    0.83333   0.50001   0.54689   0.00000  Uiso   1.00
Cu578  Cu    0.83333   0.49999   0.45311   0.00000  Uiso   1.00
H579   H     0.83208   0.37124   0.42465   0.00000  Uiso   1.00
H580   H     0.83459   0.62876   0.57535   0.00000  Uiso   1.00
H581   H     0.78721   0.44587   0.37264   0.00000  Uiso   1.00
H582   H     0.87946   0.55413   0.62736   0.00000  Uiso   1.00
N583   N     0.83335   0.50001   0.61736   0.00000  Uiso   1.00
N584   N     0.83332   0.49999   0.38264   0.00000  Uiso   1.00
O585   O     0.83333   0.43989   0.53958   0.00000  Uiso   1.00
O586   O     0.83334   0.56011   0.46042   0.00000  Uiso   1.00
O587   O     0.83333   0.43988   0.46039   0.00000  Uiso   1.00
O588   O     0.83334   0.56012   0.53961   0.00000  Uiso   1.00
O589   O     0.75828   0.50000   0.53046   0.00000  Uiso   1.00
O590   O     0.90839   0.50000   0.46954   0.00000  Uiso   1.00
O591   O     0.75828   0.49999   0.45127   0.00000  Uiso   1.00
O592   O     0.90839   0.50001   0.54873   0.00000  Uiso   1.00
H593   H     0.99322   0.50013   0.44577   0.00000  Uiso   1.00
H594   H     0.67344   0.49987   0.55423   0.00000  Uiso   1.00
H595   H     0.83222   0.63002   0.42451   0.00000  Uiso   1.00
H596   H     0.83444   0.36998   0.57549   0.00000  Uiso   1.00
O597   O     0.77954   0.43815   0.61656   0.00000  Uiso   1.00
H598   H     0.76632   0.44810   0.58513   0.00000  Uiso   1.00
O599   O     0.88713   0.56185   0.38345   0.00000  Uiso   1.00
H600   H     0.90035   0.55191   0.41487   0.00000  Uiso   1.00
C601   C     0.16658   0.75409   0.50010   0.00000  Uiso   1.00
C602   C     0.16675   0.91258   0.49990   0.00000  Uiso   1.00
C603   C     0.06805   0.83329   0.48806   0.00000  Uiso   1.00
C604   C     0.26528   0.83337   0.51194   0.00000  Uiso   1.00
C605   C     0.01284   0.83335   0.48146   0.00000  Uiso   1.00
C606   C     0.32049   0.83331   0.51854   0.00000  Uiso   1.00
C607   C     0.16598   0.68831   0.45775   0.00000  Uiso   1.00
C608   C     0.16736   0.97836   0.54225   0.00000  Uiso   1.00
C609   C     0.16607   0.97906   0.45762   0.00000  Uiso   1.00
C610   C     0.16726   0.68760   0.54238   0.00000  Uiso   1.00
C611   C     0.16675   0.95723   0.49987   0.00000  Uiso   1.00
C612   C     0.16658   0.70943   0.50013   0.00000  Uiso   1.00
C613   C     0.14127   0.80318   0.35596   0.00000  Uiso   1.00
C614   C     0.19206   0.86349   0.64404   0.00000  Uiso   1.00
C615   C     0.14056   0.80308   0.64006   0.00000  Uiso   1.00
C616   C     0.19277   0.86359   0.35994   0.00000  Uiso   1.00
Cu617  Cu    0.16667   0.83334   0.54689   0.00000  Uiso   1.00
Cu618  Cu    0.16667   0.83333   0.45311   0.00000  Uiso   1.00
H619   H     0.16541   0.70457   0.42465   0.00000  Uiso   1.00
H620   H     0.16792   0.96210   0.57535   0.00000  Uiso   1.00
H621   H     0.12054   0.77921   0.37264   0.00000  Uiso   1.00
H622   H     0.21279   0.88746   0.62736   0.00000  Uiso   1.00
N623   N     0.16668   0.83334   0.61736   0.00000  Uiso   1.00
N624   N     0.16665   0.83332   0.38264   0.00000  Uiso   1.00
O625   O     0.16666   0.77322   0.53958   0.00000  Uiso   1.00
O626   O     0.16667   0.89345   0.46042   0.00000  Uiso   1.00
O627   O     0.16666   0.77321   0.46039   0.00000  Uiso   1.00
O628   O     0.16667   0.89346   0.53961   0.00000  Uiso   1.00
O629   O     0.09161   0.83334   0.53046   0.00000  Uiso   1.00
O630   O     0.24172   0.83333   0.46954   0.00000  Uiso   1.00
O631   O     0.09161   0.83333   0.45127   0.00000  Uiso   1.00
O632   O     0.24172   0.83334   0.54873   0.00000  Uiso   1.00
H633   H     0.32656   0.83346   0.44577   0.00000  Uiso   1.00
H634   H     0.00678   0.83321   0.55423   0.00000  Uiso   1.00
H635   H     0.16556   0.96335   0.42451   0.00000  Uiso   1.00
H636   H     0.16778   0.70331   0.57549   0.00000  Uiso   1.00
O637   O     0.11287   0.77149   0.61656   0.00000  Uiso   1.00
H638   H     0.09965   0.78143   0.58513   0.00000  Uiso   1.00
O639   O     0.22046   0.89518   0.38345   0.00000  Uiso   1.00
H640   H     0.23368   0.88524   0.41487   0.00000  Uiso   1.00
C641   C     0.49992   0.75409   0.50010   0.00000  Uiso   1.00
C642   C     0.50009   0.91258   0.49990   0.00000  Uiso   1.00
C643   C     0.40138   0.83329   0.48806   0.00000  Uiso   1.00
C644   C     0.59862   0.83337   0.51194   0.00000  Uiso   1.00
C645   C     0.34617   0.83335   0.48146   0.00000  Uiso   1.00
C646   C     0.65383   0.83331   0.51854   0.00000  Uiso   1.00
C647   C     0.49931   0.68831   0.45775   0.00000  Uiso   1.00
C648   C     0.50069   0.97836   0.54225   0.00000  Uiso   1.00
C649   C     0.49940   0.97906   0.45762   0.00000  Uiso   1.00
C650   C     0.50060   0.68760   0.54238   0.00000  Uiso   1.00
C651   C     0.50008   0.95723   0.49987   0.00000  Uiso   1.00
C652   C     0.49992   0.70943   0.50013   0.00000  Uiso   1.00
C653   C     0.47461   0.80318   0.35596   0.00000  Uiso   1.00
C654   C     0.52539   0.86349   0.64404   0.00000  Uiso   1.00
C655   C     0.47389   0.80308   0.64006   0.00000  Uiso   1.00
C656   C     0.52611   0.86359   0.35994   0.00000  Uiso   1.00
Cu657  Cu    0.50000   0.83334   0.54689   0.00000  Uiso   1.00
Cu658  Cu    0.50000   0.83333   0.45311   0.00000  Uiso   1.00
H659   H     0.49875   0.70457   0.42465   0.00000  Uiso   1.00
H660   H     0.50125   0.96210   0.57535   0.00000  Uiso   1.00
H661   H     0.45388   0.77921   0.37264   0.00000  Uiso   1.00
H662   H     0.54612   0.88746   0.62736   0.00000  Uiso   1.00
N663   N     0.50001   0.83334   0.61736   0.00000  Uiso   1.00
N664   N     0.49999   0.83332   0.38264   0.00000  Uiso   1.00
O665   O     0.50000   0.77322   0.53958   0.00000  Uiso   1.00
O666   O     0.50000   0.89345   0.46042   0.00000  Uiso   1.00
O667   O     0.50000   0.77321   0.46039   0.00000  Uiso   1.00
O668   O     0.50000   0.89346   0.53961   0.00000  Uiso   1.00
O669   O     0.42495   0.83334   0.53046   0.00000  Uiso   1.00
O670   O     0.57505   0.83333   0.46954   0.00000  Uiso   1.00
O671   O     0.42494   0.83333   0.45127   0.00000  Uiso   1.00
O672   O     0.57506   0.83334   0.54873   0.00000  Uiso   1.00
H673   H     0.65989   0.83346   0.44577   0.00000  Uiso   1.00
H674   H     0.34011   0.83321   0.55423   0.00000  Uiso   1.00
H675   H     0.49889   0.96335   0.42451   0.00000  Uiso   1.00
H676   H     0.50111   0.70331   0.57549   0.00000  Uiso   1.00
O677   O     0.44621   0.77149   0.61656   0.00000  Uiso   1.00
H678   H     0.43298   0.78143   0.58513   0.00000  Uiso   1.00
O679   O     0.55379   0.89518   0.38345   0.00000  Uiso   1.00
H680   H     0.56702   0.88524   0.41487   0.00000  Uiso   1.00
C681   C     0.83325   0.75409   0.50010   0.00000  Uiso   1.00
C682   C     0.83342   0.91258   0.49990   0.00000  Uiso   1.00
C683   C     0.73472   0.83329   0.48806   0.00000  Uiso   1.00
C684   C     0.93195   0.83337   0.51194   0.00000  Uiso   1.00
C685   C     0.67951   0.83335   0.48146   0.00000  Uiso   1.00
C686   C     0.98716   0.83331   0.51854   0.00000  Uiso   1.00
C687   C     0.83264   0.68831   0.45775   0.00000  Uiso   1.00
C688   C     0.83402   0.97836   0.54225   0.00000  Uiso   1.00
C689   C     0.83274   0.97906   0.45762   0.00000  Uiso   1.00
C690   C     0.83393   0.68760   0.54238   0.00000  Uiso   1.00
C691   C     0.83342   0.95723   0.49987   0.00000  Uiso   1.00
C692   C     0.83325   0.70943   0.50013   0.00000  Uiso   1.00
C693   C     0.80794   0.80318   0.35596   0.00000  Uiso   1.00
C694   C     0.85873   0.86349   0.64404   0.00000  Uiso   1.00
C695   C     0.80723   0.80308   0.64006   0.00000  Uiso   1.00
C696   C     0.85944   0.86359   0.35994   0.00000  Uiso   1.00
Cu697  Cu    0.83333   0.83334   0.54689   0.00000  Uiso   1.00
Cu698  Cu    0.83333   0.83333   0.45311   0.00000  Uiso   1.00
H699   H     0.83208   0.70457   0.42465   0.00000  Uiso   1.00
H700   H     0.83459   0.96210   0.57535   0.00000  Uiso   1.00
H701   H     0.78721   0.77921   0.37264   0.00000  Uiso   1.00
H702   H     0.87946   0.88746   0.62736   0.00000  Uiso   1.00
N703   N     0.83335   0.83334   0.61736   0.00000  Uiso   1.00
N704   N     0.83332   0.83332   0.38264   0.00000  Uiso   1.00
O705   O     0.83333   0.77322   0.53958   0.00000  Uiso   1.00
O706   O     0.83334   0.89345   0.46042   0.00000  Uiso   1.00
O707   O     0.83333   0.77321   0.46039   0.00000  Uiso   1.00
O708   O     0.83334   0.89346   0.53961   0.00000  Uiso   1.00
O709   O     0.75828   0.83334   0.53046   0.00000  Uiso   1.00
O710   O     0.90839   0.83333   0.46954   0.00000  Uiso   1.00
O711   O     0.75828   0.83333   0.45127   0.00000  Uiso   1.00
O712   O     0.90839   0.83334   0.54873   0.00000  Uiso   1.00
H713   H     0.99322   0.83346   0.44577   0.00000  Uiso   1.00
H714   H     0.67344   0.83321   0.55423   0.00000  Uiso   1.00
H715   H     0.83222   0.96335   0.42451   0.00000  Uiso   1.00
H716   H     0.83444   0.70331   0.57549   0.00000  Uiso   1.00
O717   O     0.77954   0.77149   0.61656   0.00000  Uiso   1.00
H718   H     0.76632   0.78143   0.58513   0.00000  Uiso   1.00
O719   O     0.88713   0.89518   0.38345   0.00000  Uiso   1.00
H720   H     0.90035   0.88524   0.41487   0.00000  Uiso   1.00
C721   C     0.16658   0.08742   0.83343   0.00000  Uiso   1.00
C722   C     0.16675   0.24591   0.83323   0.00000  Uiso   1.00
C723   C     0.06805   0.16663   0.82139   0.00000  Uiso   1.00
C724   C     0.26528   0.16671   0.84527   0.00000  Uiso   1.00
C725   C     0.01284   0.16669   0.81479   0.00000  Uiso   1.00
C726   C     0.32049   0.16665   0.85188   0.00000  Uiso   1.00
C727   C     0.16598   0.02164   0.79108   0.00000  Uiso   1.00
C728   C     0.16736   0.31169   0.87559   0.00000  Uiso   1.00
C729   C     0.16607   0.31240   0.79096   0.00000  Uiso   1.00
C730   C     0.16726   0.02094   0.87571   0.00000  Uiso   1.00
C731   C     0.16675   0.29057   0.83320   0.00000  Uiso   1.00
C732   C     0.16658   0.04277   0.83346   0.00000  Uiso   1.00
C733   C     0.14127   0.13651   0.68929   0.00000  Uiso   1.00
C734   C     0.19206   0.19682   0.97737   0.00000  Uiso   1.00
C735   C     0.14056   0.13641   0.97340   0.00000  Uiso   1.00
C736   C     0.19277   0.19692   0.69327   0.00000  Uiso   1.00
Cu737  Cu    0.16667   0.16667   0.88022   0.00000  Uiso   1.00
Cu738  Cu    0.16667   0.16666   0.78645   0.00000  Uiso   1.00
H739   H     0.16541   0.03790   0.75799   0.00000  Uiso   1.00
H740   H     0.16792   0.29543   0.90868   0.00000  Uiso   1.00
H741   H     0.12054   0.11254   0.70598   0.00000  Uiso   1.00
H742   H     0.21279   0.22079   0.96069   0.00000  Uiso   1.00
N743   N     0.16668   0.16668   0.95069   0.00000  Uiso   1.00
N744   N     0.16665   0.16666   0.71597   0.00000  Uiso   1.00
O745   O     0.16666   0.10655   0.87291   0.00000  Uiso   1.00
O746   O     0.16667   0.22678   0.79375   0.00000  Uiso   1.00
O747   O     0.16666   0.10654   0.79372   0.00000  Uiso   1.00
O748   O     0.16667   0.22679   0.87294   0.00000  Uiso   1.00
O749   O     0.09161   0.16667   0.86379   0.00000  Uiso   1.00
O750   O     0.24172   0.16666   0.80288   0.00000  Uiso   1.00
O751   O     0.09161   0.16666   0.78460   0.00000  Uiso   1.00
O752   O     0.24172   0.16667   0.88207   0.00000  Uiso   1.00
H753   H     0.32656   0.16679   0.77910   0.00000  Uiso   1.00
H754   H     0.00678   0.16654   0.88757   0.00000  Uiso   1.00
H755   H     0.16556   0.29669   0.75784   0.00000  Uiso   1.00
H756   H     0.16778   0.03665   0.90883   0.00000  Uiso   1.00
O757   O     0.11287   0.10482   0.94989   0.00000  Uiso   1.00
H758   H     0.09965   0.11476   0.91846   0.00000  Uiso   1.00
O759   O     0.22046   0.22851   0.71678   0.00000  Uiso   1.00
H760   H     0.23368   0.21857   0.74821   0.00000  Uiso   1.00
C761   C     0.49992   0.08742   0.83343   0.00000  Uiso   1.00
C762   C     0.50009   0.24591   0.83323   0.00000  Uiso   1.00
C763   C     0.40138   0.16663   0.82139   0.00000  Uiso   1.00
C764   C     0.59862   0.16671   0.84527   0.00000  Uiso   1.00
C765   C     0.34617   0.16669   0.81479   0.00000  Uiso   1.00
C766   C     0.65383   0.16665   0.85188   0.00000  Uiso   1.00
C767   C     0.49931   0.02164   0.79108   0.00000  Uiso   1.00
C768   C     0.50069   0.31169   0.87559   0.00000  Uiso   1.00
C769   C     0.49940   0.31240   0.79096   0.00000  Uiso   1.00
C770   C     0.50060   0.02094   0.87571   0.00000  Uiso   1.00
C771   C     0.50008   0.29057   0.83320   0.00000  Uiso   1.00
C772   C     0.49992   0.04277   0.83346   0.00000  Uiso   1.00
C773   C     0.47461   0.13651   0.68929   0.00000  Uiso   1.00
C774   C     0.52539   0.19682   0.97737   0.00000  Uiso   1.00
C775   C     0.47389   0.13641   0.97340   0.00000  Uiso   1.00
C776   C     0.52611   0.19692   0.69327   0.00000  Uiso   1.00
Cu777  Cu    0.50000   0.16667   0.88022   0.00000  Uiso   1.00
Cu778  Cu    0.50000   0.16666   0.78645   0.00000  Uiso   1.00
H779   H     0.49875   0.03790   0.75799   0.00000  Uiso   1.00
H780   H     0.50125   0.29543   0.90868   0.00000  Uiso   1.00
H781   H     0.45388   0.11254   0.70598   0.00000  Uiso   1.00
H782   H     0.54612   0.22079   0.96069   0.00000  Uiso   1.00
N783   N     0.50001   0.16668   0.95069   0.00000  Uiso   1.00
N784   N     0.49999   0.16666   0.71597   0.00000  Uiso   1.00
O785   O     0.50000   0.10655   0.87291   0.00000  Uiso   1.00
O786   O     0.50000   0.22678   0.79375   0.00000  Uiso   1.00
O787   O     0.50000   0.10654   0.79372   0.00000  Uiso   1.00
O788   O     0.50000   0.22679   0.87294   0.00000  Uiso   1.00
O789   O     0.42495   0.16667   0.86379   0.00000  Uiso   1.00
O790   O     0.57505   0.16666   0.80288   0.00000  Uiso   1.00
O791   O     0.42494   0.16666   0.78460   0.00000  Uiso   1.00
O792   O     0.57506   0.16667   0.88207   0.00000  Uiso   1.00
H793   H     0.65989   0.16679   0.77910   0.00000  Uiso   1.00
H794   H     0.34011   0.16654   0.88757   0.00000  Uiso   1.00
H795   H     0.49889   0.29669   0.75784   0.00000  Uiso   1.00
H796   H     0.50111   0.03665   0.90883   0.00000  Uiso   1.00
O797   O     0.44621   0.10482   0.94989   0.00000  Uiso   1.00
H798   H     0.43298   0.11476   0.91846   0.00000  Uiso   1.00
O799   O     0.55379   0.22851   0.71678   0.00000  Uiso   1.00
H800   H     0.56702   0.21857   0.74821   0.00000  Uiso   1.00
C801   C     0.83325   0.08742   0.83343   0.00000  Uiso   1.00
C802   C     0.83342   0.24591   0.83323   0.00000  Uiso   1.00
C803   C     0.73472   0.16663   0.82139   0.00000  Uiso   1.00
C804   C     0.93195   0.16671   0.84527   0.00000  Uiso   1.00
C805   C     0.67951   0.16669   0.81479   0.00000  Uiso   1.00
C806   C     0.98716   0.16665   0.85188   0.00000  Uiso   1.00
C807   C     0.83264   0.02164   0.79108   0.00000  Uiso   1.00
C808   C     0.83402   0.31169   0.87559   0.00000  Uiso   1.00
C809   C     0.83274   0.31240   0.79096   0.00000  Uiso   1.00
C810   C     0.83393   0.02094   0.87571   0.00000  Uiso   1.00
C811   C     0.83342   0.29057   0.83320   0.00000  Uiso   1.00
C812   C     0.83325   0.04277   0.83346   0.00000  Uiso   1.00
C813   C     0.80794   0.13651   0.68929   0.00000  Uiso   1.00
C814   C     0.85873   0.19682   0.97737   0.00000  Uiso   1.00
C815   C     0.80723   0.13641   0.97340   0.00000  Uiso   1.00
C816   C     0.85944   0.19692   0.69327   0.00000  Uiso   1.00
Cu817  Cu    0.83333   0.16667   0.88022   0.00000  Uiso   1.00
Cu818  Cu    0.83333   0.16666   0.78645   0.00000  Uiso   1.00
H819   H     0.83208   0.03790   0.75799   0.00000  Uiso   1.00
H820   H     0.83459   0.29543   0.90868   0.00000  Uiso   1.00
H821   H     0.78721   0.11254   0.70598   0.00000  Uiso   1.00
H822   H     0.87946   0.22079   0.96069   0.00000  Uiso   1.00
N823   N     0.83335   0.16668   0.95069   0.00000  Uiso   1.00
N824   N     0.83332   0.16666   0.71597   0.00000  Uiso   1.00
O825   O     0.83333   0.10655   0.87291   0.00000  Uiso   1.00
O826   O     0.83334   0.22678   0.79375   0.00000  Uiso   1.00
O827   O     0.83333   0.10654   0.79372   0.00000  Uiso   1.00
O828   O     0.83334   0.22679   0.87294   0.00000  Uiso   1.00
O829   O     0.75828   0.16667   0.86379   0.00000  Uiso   1.00
O830   O     0.90839   0.16666   0.80288   0.00000  Uiso   1.00
O831   O     0.75828   0.16666   0.78460   0.00000  Uiso   1.00
O832   O     0.90839   0.16667   0.88207   0.00000  Uiso   1.00
H833   H     0.99322   0.16679   0.77910   0.00000  Uiso   1.00
H834   H     0.67344   0.16654   0.88757   0.00000  Uiso   1.00
H835   H     0.83222   0.29669   0.75784   0.00000  Uiso   1.00
H836   H     0.83444   0.03665   0.90883   0.00000  Uiso   1.00
O837   O     0.77954   0.10482   0.94989   0.00000  Uiso   1.00
H838   H     0.76632   0.11476   0.91846   0.00000  Uiso   1.00
O839   O     0.88713   0.22851   0.71678   0.00000  Uiso   1.00
H840   H     0.90035   0.21857   0.74821   0.00000  Uiso   1.00
C841   C     0.16658   0.42076   0.83343   0.00000  Uiso   1.00
C842   C     0.16675   0.57924   0.83323   0.00000  Uiso   1.00
C843   C     0.06805   0.49996   0.82139   0.00000  Uiso   1.00
C844   C     0.26528   0.50004   0.84527   0.00000  Uiso   1.00
C845   C     0.01284   0.50002   0.81479   0.00000  Uiso   1.00
C846   C     0.32049   0.49998   0.85188   0.00000  Uiso   1.00
C847   C     0.16598   0.35497   0.79108   0.00000  Uiso   1.00
C848   C     0.16736   0.64503   0.87559   0.00000  Uiso   1.00
C849   C     0.16607   0.64573   0.79096   0.00000  Uiso   1.00
C850   C     0.16726   0.35427   0.87571   0.00000  Uiso   1.00
C851   C     0.16675   0.62390   0.83320   0.00000  Uiso   1.00
C852   C     0.16658   0.37610   0.83346   0.00000  Uiso   1.00
C853   C     0.14127   0.46985   0.68929   0.00000  Uiso   1.00
C854   C     0.19206   0.53015   0.97737   0.00000  Uiso   1.00
C855   C     0.14056   0.46975   0.97340   0.00000  Uiso   1.00
C856   C     0.19277   0.53025   0.69327   0.00000  Uiso   1.00
Cu857  Cu    0.16667   0.50001   0.88022   0.00000  Uiso   1.00
Cu858  Cu    0.16667   0.49999   0.78645   0.00000  Uiso   1.00
H859   H     0.16541   0.37124   0.75799   0.00000  Uiso   1.00
H860   H     0.16792   0.62876   0.90868   0.00000  Uiso   1.00
H861   H     0.12054   0.44587   0.70598   0.00000  Uiso   1.00
H862   H     0.21279   0.55413   0.96069   0.00000  Uiso   1.00
N863   N     0.16668   0.50001   0.95069   0.00000  Uiso   1.00
N864   N     0.16665   0.49999   0.71597   0.00000  Uiso   1.00
O865   O     0.16666   0.43989   0.87291   0.00000  Uiso   1.00
O866   O     0.16667   0.56011   0.79375   0.00000  Uiso   1.00
O867   O     0.16666   0.43988   0.79372   0.00000  Uiso   1.00
O868   O     0.16667   0.56012   0.87294   0.00000  Uiso   1.00
O869   O     0.09161   0.50000   0.86379   0.00000  Uiso   1.00
O870   O     0.24172   0.50000   0.80288   0.00000  Uiso   1.00
O871   O     0.09161   0.49999   0.78460   0.00000  Uiso   1.00
O872   O     0.24172   0.50001   0.88207   0.00000  Uiso   1.00
H873   H     0.32656   0.50013   0.77910   0.00000  Uiso   1.00
H874   H     0.00678   0.49987   0.88757   0.00000  Uiso   1.00
H875   H     0.16556   0.63002   0.75784   0.00000  Uiso   1.00
H876   H     0.16778   0.36998   0.90883   0.00000  Uiso   1.00
O877   O     0.11287   0.43815   0.94989   0.00000  Uiso   1.00
H878   H     0.09965   0.44810   0.91846   0.00000  Uiso   1.00
O879   O     0.22046   0.56185   0.71678   0.00000  Uiso   1.00
H880   H     0.23368   0.55191   0.74821   0.00000  Uiso   1.00
C881   C     0.49992   0.42076   0.83343   0.00000  Uiso   1.00
C882   C     0.50009   0.57924   0.83323   0.00000  Uiso   1.00
C883   C     0.40138   0.49996   0.82139   0.00000  Uiso   1.00
C884   C     0.59862   0.50004   0.84527   0.00000  Uiso   1.00
C885   C     0.34617   0.50002   0.81479   0.00000  Uiso   1.00
C886   C     0.65383   0.49998   0.85188   0.00000  Uiso   1.00
C887   C     0.49931   0.35497   0.79108   0.00000  Uiso   1.00
C888   C     0.50069   0.64503   0.87559   0.00000  Uiso   1.00
C889   C     0.49940   0.64573   0.79096   0.00000  Uiso   1.00
C890   C     0.50060   0.35427   0.87571   0.00000  Uiso   1.00
C891   C     0.50008   0.62390   0.83320   0.00000  Uiso   1.00
C892   C     0.49992   0.37610   0.83346   0.00000  Uiso   1.00
C893   C     0.47461   0.46985   0.68929   0.00000  Uiso   1.00
C894   C     0.52539   0.53015   0.97737   0.00000  Uiso   1.00
C895   C     0.47389   0.46975   0.97340   0.00000  Uiso   1.00
C896   C     0.52611   0.53025   0.69327   0.00000  Uiso   1.00
Cu897  Cu    0.50000   0.50001   0.88022   0.00000  Uiso   1.00
Cu898  Cu    0.50000   0.49999   0.78645   0.00000  Uiso   1.00
H899   H     0.49875   0.37124   0.75799   0.00000  Uiso   1.00
H900   H     0.50125   0.62876   0.90868   0.00000  Uiso   1.00
H901   H     0.45388   0.44587   0.70598   0.00000  Uiso   1.00
H902   H     0.54612   0.55413   0.96069   0.00000  Uiso   1.00
N903   N     0.50001   0.50001   0.95069   0.00000  Uiso   1.00
N904   N     0.49999   0.49999   0.71597   0.00000  Uiso   1.00
O905   O     0.50000   0.43989   0.87291   0.00000  Uiso   1.00
O906   O     0.50000   0.56011   0.79375   0.00000  Uiso   1.00
O907   O     0.50000   0.43988   0.79372   0.00000  Uiso   1.00
O908   O     0.50000   0.56012   0.87294   0.00000  Uiso   1.00
O909   O     0.42495   0.50000   0.86379   0.00000  Uiso   1.00
O910   O     0.57505   0.50000   0.80288   0.00000  Uiso   1.00
O911   O     0.42494   0.49999   0.78460   0.00000  Uiso   1.00
O912   O     0.57506   0.50001   0.88207   0.00000  Uiso   1.00
H913   H     0.65989   0.50013   0.77910   0.00000  Uiso   1.00
H914   H     0.34011   0.49987   0.88757   0.00000  Uiso   1.00
H915   H     0.49889   0.63002   0.75784   0.00000  Uiso   1.00
H916   H     0.50111   0.36998   0.90883   0.00000  Uiso   1.00
O917   O     0.44621   0.43815   0.94989   0.00000  Uiso   1.00
H918   H     0.43298   0.44810   0.91846   0.00000  Uiso   1.00
O919   O     0.55379   0.56185   0.71678   0.00000  Uiso   1.00
H920   H     0.56702   0.55191   0.74821   0.00000  Uiso   1.00
C921   C     0.83325   0.42076   0.83343   0.00000  Uiso   1.00
C922   C     0.83342   0.57924   0.83323   0.00000  Uiso   1.00
C923   C     0.73472   0.49996   0.82139   0.00000  Uiso   1.00
C924   C     0.93195   0.50004   0.84527   0.00000  Uiso   1.00
C925   C     0.67951   0.50002   0.81479   0.00000  Uiso   1.00
C926   C     0.98716   0.49998   0.85188   0.00000  Uiso   1.00
C927   C     0.83264   0.35497   0.79108   0.00000  Uiso   1.00
C928   C     0.83402   0.64503   0.87559   0.00000  Uiso   1.00
C929   C     0.83274   0.64573   0.79096   0.00000  Uiso   1.00
C930   C     0.83393   0.35427   0.87571   0.00000  Uiso   1.00
C931   C     0.83342   0.62390   0.83320   0.00000  Uiso   1.00
C932   C     0.83325   0.37610   0.83346   0.00000  Uiso   1.00
C933   C     0.80794   0.46985   0.68929   0.00000  Uiso   1.00
C934   C     0.85873   0.53015   0.97737   0.00000  Uiso   1.00
C935   C     0.80723   0.46975   0.97340   0.00000  Uiso   1.00
C936   C     0.85944   0.53025   0.69327   0.00000  Uiso   1.00
Cu937  Cu    0.83333   0.50001   0.88022   0.00000  Uiso   1.00
Cu938  Cu    0.83333   0.49999   0.78645   0.00000  Uiso   1.00
H939   H     0.83208   0.37124   0.75799   0.00000  Uiso   1.00
H940   H     0.83459   0.62876   0.90868   0.00000  Uiso   1.00
H941   H     0.78721   0.44587   0.70598   0.00000  Uiso   1.00
H942   H     0.87946   0.55413   0.96069   0.00000  Uiso   1.00
N943   N     0.83335   0.50001   0.95069   0.00000  Uiso   1.00
N944   N     0.83332   0.49999   0.71597   0.00000  Uiso   1.00
O945   O     0.83333   0.43989   0.87291   0.00000  Uiso   1.00
O946   O     0.83334   0.56011   0.79375   0.00000  Uiso   1.00
O947   O     0.83333   0.43988   0.79372   0.00000  Uiso   1.00
O948   O     0.83334   0.56012   0.87294   0.00000  Uiso   1.00
O949   O     0.75828   0.50000   0.86379   0.00000  Uiso   1.00
O950   O     0.90839   0.50000   0.80288   0.00000  Uiso   1.00
O951   O     0.75828   0.49999   0.78460   0.00000  Uiso   1.00
O952   O     0.90839   0.50001   0.88207   0.00000  Uiso   1.00
H953   H     0.99322   0.50013   0.77910   0.00000  Uiso   1.00
H954   H     0.67344   0.49987   0.88757   0.00000  Uiso   1.00
H955   H     0.83222   0.63002   0.75784   0.00000  Uiso   1.00
H956   H     0.83444   0.36998   0.90883   0.00000  Uiso   1.00
O957   O     0.77954   0.43815   0.94989   0.00000  Uiso   1.00
H958   H     0.76632   0.44810   0.91846   0.00000  Uiso   1.00
O959   O     0.88713   0.56185   0.71678   0.00000  Uiso   1.00
H960   H     0.90035   0.55191   0.74821   0.00000  Uiso   1.00
C961   C     0.16658   0.75409   0.83343   0.00000  Uiso   1.00
C962   C     0.16675   0.91258   0.83323   0.00000  Uiso   1.00
C963   C     0.06805   0.83329   0.82139   0.00000  Uiso   1.00
C964   C     0.26528   0.83337   0.84527   0.00000  Uiso   1.00
C965   C     0.01284   0.83335   0.81479   0.00000  Uiso   1.00
C966   C     0.32049   0.83331   0.85188   0.00000  Uiso   1.00
C967   C     0.16598   0.68831   0.79108   0.00000  Uiso   1.00
C968   C     0.16736   0.97836   0.87559   0.00000  Uiso   1.00
C969   C     0.16607   0.97906   0.79096   0.00000  Uiso   1.00
C970   C     0.16726   0.68760   0.87571   0.00000  Uiso   1.00
C971   C     0.16675   0.95723   0.83320   0.00000  Uiso   1.00
C972   C     0.16658   0.70943   0.83346   0.00000  Uiso   1.00
C973   C     0.14127   0.80318   0.68929   0.00000  Uiso   1.00
C974   C     0.19206   0.86349   0.97737   0.00000  Uiso   1.00
C975   C     0.14056   0.80308   0.97340   0.00000  Uiso   1.00
C976   C     0.19277   0.86359   0.69327   0.00000  Uiso   1.00
Cu977  Cu    0.16667   0.83334   0.88022   0.00000  Uiso   1.00
Cu978  Cu    0.16667   0.83333   0.78645   0.00000  Uiso   1.00
H979   H     0.16541   0.70457   0.75799   0.00000  Uiso   1.00
H980   H     0.16792   0.96210   0.90868   0.00000  Uiso   1.00
H981   H     0.12054   0.77921   0.70598   0.00000  Uiso   1.00
H982   H     0.21279   0.88746   0.96069   0.00000  Uiso   1.00
N983   N     0.16668   0.83334   0.95069   0.00000  Uiso   1.00
N984   N     0.16665   0.83332   0.71597   0.00000  Uiso   1.00
O985   O     0.16666   0.77322   0.87291   0.00000  Uiso   1.00
O986   O     0.16667   0.89345   0.79375   0.00000  Uiso   1.00
O987   O     0.16666   0.77321   0.79372   0.00000  Uiso   1.00
O988   O     0.16667   0.89346   0.87294   0.00000  Uiso   1.00
O989   O     0.09161   0.83334   0.86379   0.00000  Uiso   1.00
O990   O     0.24172   0.83333   0.80288   0.00000  Uiso   1.00
O991   O     0.09161   0.83333   0.78460   0.00000  Uiso   1.00
O992   O     0.24172   0.83334   0.88207   0.00000  Uiso   1.00
H993   H     0.32656   0.83346   0.77910   0.00000  Uiso   1.00
H994   H     0.00678   0.83321   0.88757   0.00000  Uiso   1.00
H995   H     0.16556   0.96335   0.75784   0.00000  Uiso   1.00
H996   H     0.16778   0.70331   0.90883   0.00000  Uiso   1.00
O997   O     0.11287   0.77149   0.94989   0.00000  Uiso   1.00
H998   H     0.09965   0.78143   0.91846   0.00000  Uiso   1.00
O999   O     0.22046   0.89518   0.71678   0.00000  Uiso   1.00
H1000  H     0.23368   0.88524   0.74821   0.00000  Uiso   1.00
C1001  C     0.49992   0.75409   0.83343   0.00000  Uiso   1.00
C1002  C     0.50009   0.91258   0.83323   0.00000  Uiso   1.00
C1003  C     0.40138   0.83329   0.82139   0.00000  Uiso   1.00
C1004  C     0.59862   0.83337   0.84527   0.00000  Uiso   1.00
C1005  C     0.34617   0.83335   0.81479   0.00000  Uiso   1.00
C1006  C     0.65383   0.83331   0.85188   0.00000  Uiso   1.00
C1007  C     0.49931   0.68831   0.79108   0.00000  Uiso   1.00
C1008  C     0.50069   0.97836   0.87559   0.00000  Uiso   1.00
C1009  C     0.49940   0.97906   0.79096   0.00000  Uiso   1.00
C1010  C     0.50060   0.68760   0.87571   0.00000  Uiso   1.00
C1011  C     0.50008   0.95723   0.83320   0.00000  Uiso   1.00
C1012  C     0.49992   0.70943   0.83346   0.00000  Uiso   1.00
C1013  C     0.47461   0.80318   0.68929   0.00000  Uiso   1.00
C1014  C     0.52539   0.86349   0.97737   0.00000  Uiso   1.00
C1015  C     0.47389   0.80308   0.97340   0.00000  Uiso   1.00
C1016  C     0.52611   0.86359   0.69327   0.00000  Uiso   1.00
Cu1017 Cu    0.50000   0.83334   0.88022   0.00000  Uiso   1.00
Cu1018 Cu    0.50000   0.83333   0.78645   0.00000  Uiso   1.00
H1019  H     0.49875   0.70457   0.75799   0.00000  Uiso   1.00
H1020  H     0.50125   0.96210   0.90868   0.00000  Uiso   1.00
H1021  H     0.45388   0.77921   0.70598   0.00000  Uiso   1.00
H1022  H     0.54612   0.88746   0.96069   0.00000  Uiso   1.00
N1023  N     0.50001   0.83334   0.95069   0.00000  Uiso   1.00
N1024  N     0.49999   0.83332   0.71597   0.00000  Uiso   1.00
O1025  O     0.50000   0.77322   0.87291   0.00000  Uiso   1.00
O1026  O     0.50000   0.89345   0.79375   0.00000  Uiso   1.00
O1027  O     0.50000   0.77321   0.79372   0.00000  Uiso   1.00
O1028  O     0.50000   0.89346   0.87294   0.00000  Uiso   1.00
O1029  O     0.42495   0.83334   0.86379   0.00000  Uiso   1.00
O1030  O     0.57505   0.83333   0.80288   0.00000  Uiso   1.00
O1031  O     0.42494   0.83333   0.78460   0.00000  Uiso   1.00
O1032  O     0.57506   0.83334   0.88207   0.00000  Uiso   1.00
H1033  H     0.65989   0.83346   0.77910   0.00000  Uiso   1.00
H1034  H     0.34011   0.83321   0.88757   0.00000  Uiso   1.00
H1035  H     0.49889   0.96335   0.75784   0.00000  Uiso   1.00
H1036  H     0.50111   0.70331   0.90883   0.00000  Uiso   1.00
O1037  O     0.44621   0.77149   0.94989   0.00000  Uiso   1.00
H1038  H     0.43298   0.78143   0.91846   0.00000  Uiso   1.00
O1039  O     0.55379   0.89518   0.71678   0.00000  Uiso   1.00
H1040  H     0.56702   0.88524   0.74821   0.00000  Uiso   1.00
C1041  C     0.83325   0.75409   0.83343   0.00000  Uiso   1.00
C1042  C     0.83342   0.91258   0.83323   0.00000  Uiso   1.00
C1043  C     0.73472   0.83329   0.82139   0.00000  Uiso   1.00
C1044  C     0.93195   0.83337   0.84527   0.00000  Uiso   1.00
C1045  C     0.67951   0.83335   0.81479   0.00000  Uiso   1.00
C1046  C     0.98716   0.83331   0.85188   0.00000  Uiso   1.00
C1047  C     0.83264   0.68831   0.79108   0.00000  Uiso   1.00
C1048  C     0.83402   0.97836   0.87559   0.00000  Uiso   1.00
C1049  C     0.83274   0.97906   0.79096   0.00000  Uiso   1.00
C1050  C     0.83393   0.68760   0.87571   0.00000  Uiso   1.00
C1051  C     0.83342   0.95723   0.83320   0.00000  Uiso   1.00
C1052  C     0.83325   0.70943   0.83346   0.00000  Uiso   1.00
C1053  C     0.80794   0.80318   0.68929   0.00000  Uiso   1.00
C1054  C     0.85873   0.86349   0.97737   0.00000  Uiso   1.00
C1055  C     0.80723   0.80308   0.97340   0.00000  Uiso   1.00
C1056  C     0.85944   0.86359   0.69327   0.00000  Uiso   1.00
Cu1057 Cu    0.83333   0.83334   0.88022   0.00000  Uiso   1.00
Cu1058 Cu    0.83333   0.83333   0.78645   0.00000  Uiso   1.00
H1059  H     0.83208   0.70457   0.75799   0.00000  Uiso   1.00
H1060  H     0.83459   0.96210   0.90868   0.00000  Uiso   1.00
H1061  H     0.78721   0.77921   0.70598   0.00000  Uiso   1.00
H1062  H     0.87946   0.88746   0.96069   0.00000  Uiso   1.00
N1063  N     0.83335   0.83334   0.95069   0.00000  Uiso   1.00
N1064  N     0.83332   0.83332   0.71597   0.00000  Uiso   1.00
O1065  O     0.83333   0.77322   0.87291   0.00000  Uiso   1.00
O1066  O     0.83334   0.89345   0.79375   0.00000  Uiso   1.00
O1067  O     0.83333   0.77321   0.79372   0.00000  Uiso   1.00
O1068  O     0.83334   0.89346   0.87294   0.00000  Uiso   1.00
O1069  O     0.75828   0.83334   0.86379   0.00000  Uiso   1.00
O1070  O     0.90839   0.83333   0.80288   0.00000  Uiso   1.00
O1071  O     0.75828   0.83333   0.78460   0.00000  Uiso   1.00
O1072  O     0.90839   0.83334   0.88207   0.00000  Uiso   1.00
H1073  H     0.99322   0.83346   0.77910   0.00000  Uiso   1.00
H1074  H     0.67344   0.83321   0.88757   0.00000  Uiso   1.00
H1075  H     0.83222   0.96335   0.75784   0.00000  Uiso   1.00
H1076  H     0.83444   0.70331   0.90883   0.00000  Uiso   1.00
O1077  O     0.77954   0.77149   0.94989   0.00000  Uiso   1.00
H1078  H     0.76632   0.78143   0.91846   0.00000  Uiso   1.00
O1079  O     0.88713   0.89518   0.71678   0.00000  Uiso   1.00
H1080  H     0.90035   0.88524   0.74821   0.00000  Uiso   1.00
loop_
_geom_bond_atom_site_label_1
_geom_bond_atom_site_label_2
_geom_bond_distance
_geom_bond_site_symmetry_2
_ccdc_geom_bond_type
C1     O25     1.299   .     A
C1     O27     1.296   .     A
C1     C12     1.451   .     S
C2     C11     1.451   .     S
C2     O26     1.299   .     A
C2     O28     1.296   .     A
C3     O31     1.292   .     A
C3     O29     1.294   .     A
C3     C5      1.434   .     S
C4     O32     1.292   .     A
C4     C6      1.434   .     S
C4     O30     1.294   .     A
C5     C86     1.332   1_455 S
C5     H113    1.087   1_455 S
C6     C45     1.332   .     S
C6     H74     1.087   .     S
C7     H19     1.083   .     S
C7     C12     1.403   .     A
C7     C249    1.384   1_545 S
C8     H20     1.083   .     S
C8     C11     1.403   .     A
C8     C130    1.384   .     S
C9     C11     1.400   .     A
C9     H35     1.083   .     S
C9     C127    1.384   .     S
C10    C12     1.400   .     A
C10    H36     1.083   .     S
C10    C248    1.384   1_545 S
C13    H21     1.082   .     S
C13    N24     1.357   .     A
C13    C735    1.414   1_554 S
C14    N23     1.357   .     A
C14    H22     1.082   .     S
C14    C376    1.414   .     S
C15    N23     1.390   .     A
C15    O37     1.374   .     S
C15    C373    1.414   .     S
C16    N24     1.390   .     A
C16    O39     1.374   .     S
C16    C734    1.414   1_554 S
Cu17   O29     1.962   .     S
Cu17   O25     1.967   .     S
Cu17   Cu18    2.697   .     S
Cu17   N23     2.027   .     S
Cu17   O32     1.959   .     S
Cu17   O28     1.963   .     S
Cu18   O30     1.962   .     S
Cu18   O26     1.967   .     S
Cu18   N24     2.027   .     S
Cu18   O31     1.959   .     S
Cu18   O27     1.963   .     S
H33    C45     1.087   .     S
H34    C86     1.087   1_455 S
O37    H38     0.981   .     S
O39    H40     0.981   .     S
C41    O65     1.299   .     A
C41    O67     1.296   .     A
C41    C52     1.451   .     S
C42    C51     1.451   .     S
C42    O66     1.299   .     A
C42    O68     1.296   .     A
C43    O71     1.292   .     A
C43    O69     1.294   .     A
C43    C45     1.434   .     S
C44    O72     1.292   .     A
C44    C46     1.434   .     S
C44    O70     1.294   .     A
C46    C85     1.332   .     S
C46    H114    1.087   .     S
C47    H59     1.083   .     S
C47    C52     1.403   .     A
C47    C289    1.384   1_545 S
C48    H60     1.083   .     S
C48    C51     1.403   .     A
C48    C170    1.384   .     S
C49    C51     1.400   .     A
C49    H75     1.083   .     S
C49    C167    1.384   .     S
C50    C52     1.400   .     A
C50    H76     1.083   .     S
C50    C288    1.384   1_545 S
C53    H61     1.082   .     S
C53    N64     1.357   .     A
C53    C775    1.414   1_554 S
C54    N63     1.357   .     A
C54    H62     1.082   .     S
C54    C416    1.414   .     S
C55    N63     1.390   .     A
C55    O77     1.374   .     S
C55    C413    1.414   .     S
C56    N64     1.390   .     A
C56    O79     1.374   .     S
C56    C774    1.414   1_554 S
Cu57   O69     1.962   .     S
Cu57   O65     1.967   .     S
Cu57   Cu58    2.697   .     S
Cu57   N63     2.027   .     S
Cu57   O72     1.959   .     S
Cu57   O68     1.963   .     S
Cu58   O70     1.962   .     S
Cu58   O66     1.967   .     S
Cu58   N64     2.027   .     S
Cu58   O71     1.959   .     S
Cu58   O67     1.963   .     S
H73    C85     1.087   .     S
O77    H78     0.981   .     S
O79    H80     0.981   .     S
C81    O105    1.299   .     A
C81    O107    1.296   .     A
C81    C92     1.451   .     S
C82    C91     1.451   .     S
C82    O106    1.299   .     A
C82    O108    1.296   .     A
C83    O111    1.292   .     A
C83    O109    1.294   .     A
C83    C85     1.434   .     S
C84    O112    1.292   .     A
C84    C86     1.434   .     S
C84    O110    1.294   .     A
C86    C5      1.332   1_655 S
C86    H34     1.087   1_655 S
C87    H99     1.083   .     S
C87    C92     1.403   .     A
C87    C329    1.384   1_545 S
C88    H100    1.083   .     S
C88    C91     1.403   .     A
C88    C210    1.384   .     S
C89    C91     1.400   .     A
C89    H115    1.083   .     S
C89    C207    1.384   .     S
C90    C92     1.400   .     A
C90    H116    1.083   .     S
C90    C328    1.384   1_545 S
C93    H101    1.082   .     S
C93    N104    1.357   .     A
C93    C815    1.414   1_554 S
C94    N103    1.357   .     A
C94    H102    1.082   .     S
C94    C456    1.414   .     S
C95    N103    1.390   .     A
C95    O117    1.374   .     S
C95    C453    1.414   .     S
C96    N104    1.390   .     A
C96    O119    1.374   .     S
C96    C814    1.414   1_554 S
Cu97   O109    1.962   .     S
Cu97   O105    1.967   .     S
Cu97   Cu98    2.697   .     S
Cu97   N103    2.027   .     S
Cu97   O112    1.959   .     S
Cu97   O108    1.963   .     S
Cu98   O110    1.962   .     S
Cu98   O106    1.967   .     S
Cu98   N104    2.027   .     S
Cu98   O111    1.959   .     S
Cu98   O107    1.963   .     S
H113   C5      1.087   1_655 S
O117   H118    0.981   .     S
O119   H120    0.981   .     S
C121   O145    1.299   .     A
C121   O147    1.296   .     A
C121   C132    1.451   .     S
C122   C131    1.451   .     S
C122   O146    1.299   .     A
C122   O148    1.296   .     A
C123   O151    1.292   .     A
C123   O149    1.294   .     A
C123   C125    1.434   .     S
C124   O152    1.292   .     A
C124   C126    1.434   .     S
C124   O150    1.294   .     A
C125   C206    1.332   1_455 S
C125   H233    1.087   1_455 S
C126   C165    1.332   .     S
C126   H194    1.087   .     S
C127   H139    1.083   .     S
C127   C132    1.403   .     A
C128   H140    1.083   .     S
C128   C131    1.403   .     A
C128   C250    1.384   .     S
C129   C131    1.400   .     A
C129   H155    1.083   .     S
C129   C247    1.384   .     S
C130   C132    1.400   .     A
C130   H156    1.083   .     S
C133   H141    1.082   .     S
C133   N144    1.357   .     A
C133   C855    1.414   1_554 S
C134   N143    1.357   .     A
C134   H142    1.082   .     S
C134   C496    1.414   .     S
C135   N143    1.390   .     A
C135   O157    1.374   .     S
C135   C493    1.414   .     S
C136   N144    1.390   .     A
C136   O159    1.374   .     S
C136   C854    1.414   1_554 S
Cu137  O149    1.962   .     S
Cu137  O145    1.967   .     S
Cu137  Cu138   2.697   .     S
Cu137  N143    2.027   .     S
Cu137  O152    1.959   .     S
Cu137  O148    1.963   .     S
Cu138  O150    1.962   .     S
Cu138  O146    1.967   .     S
Cu138  N144    2.027   .     S
Cu138  O151    1.959   .     S
Cu138  O147    1.963   .     S
H153   C165    1.087   .     S
H154   C206    1.087   1_455 S
O157   H158    0.981   .     S
O159   H160    0.981   .     S
C161   O185    1.299   .     A
C161   O187    1.296   .     A
C161   C172    1.451   .     S
C162   C171    1.451   .     S
C162   O186    1.299   .     A
C162   O188    1.296   .     A
C163   O191    1.292   .     A
C163   O189    1.294   .     A
C163   C165    1.434   .     S
C164   O192    1.292   .     A
C164   C166    1.434   .     S
C164   O190    1.294   .     A
C166   C205    1.332   .     S
C166   H234    1.087   .     S
C167   H179    1.083   .     S
C167   C172    1.403   .     A
C168   H180    1.083   .     S
C168   C171    1.403   .     A
C168   C290    1.384   .     S
C169   C171    1.400   .     A
C169   H195    1.083   .     S
C169   C287    1.384   .     S
C170   C172    1.400   .     A
C170   H196    1.083   .     S
C173   H181    1.082   .     S
C173   N184    1.357   .     A
C173   C895    1.414   1_554 S
C174   N183    1.357   .     A
C174   H182    1.082   .     S
C174   C536    1.414   .     S
C175   N183    1.390   .     A
C175   O197    1.374   .     S
C175   C533    1.414   .     S
C176   N184    1.390   .     A
C176   O199    1.374   .     S
C176   C894    1.414   1_554 S
Cu177  O189    1.962   .     S
Cu177  O185    1.967   .     S
Cu177  Cu178   2.697   .     S
Cu177  N183    2.027   .     S
Cu177  O192    1.959   .     S
Cu177  O188    1.963   .     S
Cu178  O190    1.962   .     S
Cu178  O186    1.967   .     S
Cu178  N184    2.027   .     S
Cu178  O191    1.959   .     S
Cu178  O187    1.963   .     S
H193   C205    1.087   .     S
O197   H198    0.981   .     S
O199   H200    0.981   .     S
C201   O225    1.299   .     A
C201   O227    1.296   .     A
C201   C212    1.451   .     S
C202   C211    1.451   .     S
C202   O226    1.299   .     A
C202   O228    1.296   .     A
C203   O231    1.292   .     A
C203   O229    1.294   .     A
C203   C205    1.434   .     S
C204   O232    1.292   .     A
C204   C206    1.434   .     S
C204   O230    1.294   .     A
C206   C125    1.332   1_655 S
C206   H154    1.087   1_655 S
C207   H219    1.083   .     S
C207   C212    1.403   .     A
C208   H220    1.083   .     S
C208   C211    1.403   .     A
C208   C330    1.384   .     S
C209   C211    1.400   .     A
C209   H235    1.083   .     S
C209   C327    1.384   .     S
C210   C212    1.400   .     A
C210   H236    1.083   .     S
C213   H221    1.082   .     S
C213   N224    1.357   .     A
C213   C935    1.414   1_554 S
C214   N223    1.357   .     A
C214   H222    1.082   .     S
C214   C576    1.414   .     S
C215   N223    1.390   .     A
C215   O237    1.374   .     S
C215   C573    1.414   .     S
C216   N224    1.390   .     A
C216   O239    1.374   .     S
C216   C934    1.414   1_554 S
Cu217  O229    1.962   .     S
Cu217  O225    1.967   .     S
Cu217  Cu218   2.697   .     S
Cu217  N223    2.027   .     S
Cu217  O232    1.959   .     S
Cu217  O228    1.963   .     S
Cu218  O230    1.962   .     S
Cu218  O226    1.967   .     S
Cu218  N224    2.027   .     S
Cu218  O231    1.959   .     S
Cu218  O227    1.963   .     S
H233   C125    1.087   1_655 S
O237   H238    0.981   .     S
O239   H240    0.981   .     S
C241   O265    1.299   .     A
C241   O267    1.296   .     A
C241   C252    1.451   .     S
C242   C251    1.451   .     S
C242   O266    1.299   .     A
C242   O268    1.296   .     A
C243   O271    1.292   .     A
C243   O269    1.294   .     A
C243   C245    1.434   .     S
C244   O272    1.292   .     A
C244   C246    1.434   .     S
C244   O270    1.294   .     A
C245   C326    1.332   1_455 S
C245   H353    1.087   1_455 S
C246   C285    1.332   .     S
C246   H314    1.087   .     S
C247   H259    1.083   .     S
C247   C252    1.403   .     A
C248   H260    1.083   .     S
C248   C251    1.403   .     A
C248   C10     1.384   1_565 S
C249   C251    1.400   .     A
C249   H275    1.083   .     S
C249   C7      1.384   1_565 S
C250   C252    1.400   .     A
C250   H276    1.083   .     S
C253   H261    1.082   .     S
C253   N264    1.357   .     A
C253   C975    1.414   1_554 S
C254   N263    1.357   .     A
C254   H262    1.082   .     S
C254   C616    1.414   .     S
C255   N263    1.390   .     A
C255   O277    1.374   .     S
C255   C613    1.414   .     S
C256   N264    1.390   .     A
C256   O279    1.374   .     S
C256   C974    1.414   1_554 S
Cu257  O269    1.962   .     S
Cu257  O265    1.967   .     S
Cu257  Cu258   2.697   .     S
Cu257  N263    2.027   .     S
Cu257  O272    1.959   .     S
Cu257  O268    1.963   .     S
Cu258  O270    1.962   .     S
Cu258  O266    1.967   .     S
Cu258  N264    2.027   .     S
Cu258  O271    1.959   .     S
Cu258  O267    1.963   .     S
H273   C285    1.087   .     S
H274   C326    1.087   1_455 S
O277   H278    0.981   .     S
O279   H280    0.981   .     S
C281   O305    1.299   .     A
C281   O307    1.296   .     A
C281   C292    1.451   .     S
C282   C291    1.451   .     S
C282   O306    1.299   .     A
C282   O308    1.296   .     A
C283   O311    1.292   .     A
C283   O309    1.294   .     A
C283   C285    1.434   .     S
C284   O312    1.292   .     A
C284   C286    1.434   .     S
C284   O310    1.294   .     A
C286   C325    1.332   .     S
C286   H354    1.087   .     S
C287   H299    1.083   .     S
C287   C292    1.403   .     A
C288   H300    1.083   .     S
C288   C291    1.403   .     A
C288   C50     1.384   1_565 S
C289   C291    1.400   .     A
C289   H315    1.083   .     S
C289   C47     1.384   1_565 S
C290   C292    1.400   .     A
C290   H316    1.083   .     S
C293   H301    1.082   .     S
C293   N304    1.357   .     A
C293   C1015   1.414   1_554 S
C294   N303    1.357   .     A
C294   H302    1.082   .     S
C294   C656    1.414   .     S
C295   N303    1.390   .     A
C295   O317    1.374   .     S
C295   C653    1.414   .     S
C296   N304    1.390   .     A
C296   O319    1.374   .     S
C296   C1014   1.414   1_554 S
Cu297  O309    1.962   .     S
Cu297  O305    1.967   .     S
Cu297  Cu298   2.697   .     S
Cu297  N303    2.027   .     S
Cu297  O312    1.959   .     S
Cu297  O308    1.963   .     S
Cu298  O310    1.962   .     S
Cu298  O306    1.967   .     S
Cu298  N304    2.027   .     S
Cu298  O311    1.959   .     S
Cu298  O307    1.963   .     S
H313   C325    1.087   .     S
O317   H318    0.981   .     S
O319   H320    0.981   .     S
C321   O345    1.299   .     A
C321   O347    1.296   .     A
C321   C332    1.451   .     S
C322   C331    1.451   .     S
C322   O346    1.299   .     A
C322   O348    1.296   .     A
C323   O351    1.292   .     A
C323   O349    1.294   .     A
C323   C325    1.434   .     S
C324   O352    1.292   .     A
C324   C326    1.434   .     S
C324   O350    1.294   .     A
C326   C245    1.332   1_655 S
C326   H274    1.087   1_655 S
C327   H339    1.083   .     S
C327   C332    1.403   .     A
C328   H340    1.083   .     S
C328   C331    1.403   .     A
C328   C90     1.384   1_565 S
C329   C331    1.400   .     A
C329   H355    1.083   .     S
C329   C87     1.384   1_565 S
C330   C332    1.400   .     A
C330   H356    1.083   .     S
C333   H341    1.082   .     S
C333   N344    1.357   .     A
C333   C1055   1.414   1_554 S
C334   N343    1.357   .     A
C334   H342    1.082   .     S
C334   C696    1.414   .     S
C335   N343    1.390   .     A
C335   O357    1.374   .     S
C335   C693    1.414   .     S
C336   N344    1.390   .     A
C336   O359    1.374   .     S
C336   C1054   1.414   1_554 S
Cu337  O349    1.962   .     S
Cu337  O345    1.967   .     S
Cu337  Cu338   2.697   .     S
Cu337  N343    2.027   .     S
Cu337  O352    1.959   .     S
Cu337  O348    1.963   .     S
Cu338  O350    1.962   .     S
Cu338  O346    1.967   .     S
Cu338  N344    2.027   .     S
Cu338  O351    1.959   .     S
Cu338  O347    1.963   .     S
H353   C245    1.087   1_655 S
O357   H358    0.981   .     S
O359   H360    0.981   .     S
C361   O385    1.299   .     A
C361   O387    1.296   .     A
C361   C372    1.451   .     S
C362   C371    1.451   .     S
C362   O386    1.299   .     A
C362   O388    1.296   .     A
C363   O391    1.292   .     A
C363   O389    1.294   .     A
C363   C365    1.434   .     S
C364   O392    1.292   .     A
C364   C366    1.434   .     S
C364   O390    1.294   .     A
C365   C446    1.332   1_455 S
C365   H473    1.087   1_455 S
C366   C405    1.332   .     S
C366   H434    1.087   .     S
C367   H379    1.083   .     S
C367   C372    1.403   .     A
C367   C609    1.384   1_545 S
C368   H380    1.083   .     S
C368   C371    1.403   .     A
C368   C490    1.384   .     S
C369   C371    1.400   .     A
C369   H395    1.083   .     S
C369   C487    1.384   .     S
C370   C372    1.400   .     A
C370   H396    1.083   .     S
C370   C608    1.384   1_545 S
C373   H381    1.082   .     S
C373   N384    1.357   .     A
C374   N383    1.357   .     A
C374   H382    1.082   .     S
C374   C736    1.414   .     S
C375   N383    1.390   .     A
C375   O397    1.374   .     S
C375   C733    1.414   .     S
C376   N384    1.390   .     A
C376   O399    1.374   .     S
Cu377  O389    1.962   .     S
Cu377  O385    1.967   .     S
Cu377  Cu378   2.697   .     S
Cu377  N383    2.027   .     S
Cu377  O392    1.959   .     S
Cu377  O388    1.963   .     S
Cu378  O390    1.962   .     S
Cu378  O386    1.967   .     S
Cu378  N384    2.027   .     S
Cu378  O391    1.959   .     S
Cu378  O387    1.963   .     S
H393   C405    1.087   .     S
H394   C446    1.087   1_455 S
O397   H398    0.981   .     S
O399   H400    0.981   .     S
C401   O425    1.299   .     A
C401   O427    1.296   .     A
C401   C412    1.451   .     S
C402   C411    1.451   .     S
C402   O426    1.299   .     A
C402   O428    1.296   .     A
C403   O431    1.292   .     A
C403   O429    1.294   .     A
C403   C405    1.434   .     S
C404   O432    1.292   .     A
C404   C406    1.434   .     S
C404   O430    1.294   .     A
C406   C445    1.332   .     S
C406   H474    1.087   .     S
C407   H419    1.083   .     S
C407   C412    1.403   .     A
C407   C649    1.384   1_545 S
C408   H420    1.083   .     S
C408   C411    1.403   .     A
C408   C530    1.384   .     S
C409   C411    1.400   .     A
C409   H435    1.083   .     S
C409   C527    1.384   .     S
C410   C412    1.400   .     A
C410   H436    1.083   .     S
C410   C648    1.384   1_545 S
C413   H421    1.082   .     S
C413   N424    1.357   .     A
C414   N423    1.357   .     A
C414   H422    1.082   .     S
C414   C776    1.414   .     S
C415   N423    1.390   .     A
C415   O437    1.374   .     S
C415   C773    1.414   .     S
C416   N424    1.390   .     A
C416   O439    1.374   .     S
Cu417  O429    1.962   .     S
Cu417  O425    1.967   .     S
Cu417  Cu418   2.697   .     S
Cu417  N423    2.027   .     S
Cu417  O432    1.959   .     S
Cu417  O428    1.963   .     S
Cu418  O430    1.962   .     S
Cu418  O426    1.967   .     S
Cu418  N424    2.027   .     S
Cu418  O431    1.959   .     S
Cu418  O427    1.963   .     S
H433   C445    1.087   .     S
O437   H438    0.981   .     S
O439   H440    0.981   .     S
C441   O465    1.299   .     A
C441   O467    1.296   .     A
C441   C452    1.451   .     S
C442   C451    1.451   .     S
C442   O466    1.299   .     A
C442   O468    1.296   .     A
C443   O471    1.292   .     A
C443   O469    1.294   .     A
C443   C445    1.434   .     S
C444   O472    1.292   .     A
C444   C446    1.434   .     S
C444   O470    1.294   .     A
C446   C365    1.332   1_655 S
C446   H394    1.087   1_655 S
C447   H459    1.083   .     S
C447   C452    1.403   .     A
C447   C689    1.384   1_545 S
C448   H460    1.083   .     S
C448   C451    1.403   .     A
C448   C570    1.384   .     S
C449   C451    1.400   .     A
C449   H475    1.083   .     S
C449   C567    1.384   .     S
C450   C452    1.400   .     A
C450   H476    1.083   .     S
C450   C688    1.384   1_545 S
C453   H461    1.082   .     S
C453   N464    1.357   .     A
C454   N463    1.357   .     A
C454   H462    1.082   .     S
C454   C816    1.414   .     S
C455   N463    1.390   .     A
C455   O477    1.374   .     S
C455   C813    1.414   .     S
C456   N464    1.390   .     A
C456   O479    1.374   .     S
Cu457  O469    1.962   .     S
Cu457  O465    1.967   .     S
Cu457  Cu458   2.697   .     S
Cu457  N463    2.027   .     S
Cu457  O472    1.959   .     S
Cu457  O468    1.963   .     S
Cu458  O470    1.962   .     S
Cu458  O466    1.967   .     S
Cu458  N464    2.027   .     S
Cu458  O471    1.959   .     S
Cu458  O467    1.963   .     S
H473   C365    1.087   1_655 S
O477   H478    0.981   .     S
O479   H480    0.981   .     S
C481   O505    1.299   .     A
C481   O507    1.296   .     A
C481   C492    1.451   .     S
C482   C491    1.451   .     S
C482   O506    1.299   .     A
C482   O508    1.296   .     A
C483   O511    1.292   .     A
C483   O509    1.294   .     A
C483   C485    1.434   .     S
C484   O512    1.292   .     A
C484   C486    1.434   .     S
C484   O510    1.294   .     A
C485   C566    1.332   1_455 S
C485   H593    1.087   1_455 S
C486   C525    1.332   .     S
C486   H554    1.087   .     S
C487   H499    1.083   .     S
C487   C492    1.403   .     A
C488   H500    1.083   .     S
C488   C491    1.403   .     A
C488   C610    1.384   .     S
C489   C491    1.400   .     A
C489   H515    1.083   .     S
C489   C607    1.384   .     S
C490   C492    1.400   .     A
C490   H516    1.083   .     S
C493   H501    1.082   .     S
C493   N504    1.357   .     A
C494   N503    1.357   .     A
C494   H502    1.082   .     S
C494   C856    1.414   .     S
C495   N503    1.390   .     A
C495   O517    1.374   .     S
C495   C853    1.414   .     S
C496   N504    1.390   .     A
C496   O519    1.374   .     S
Cu497  O509    1.962   .     S
Cu497  O505    1.967   .     S
Cu497  Cu498   2.697   .     S
Cu497  N503    2.027   .     S
Cu497  O512    1.959   .     S
Cu497  O508    1.963   .     S
Cu498  O510    1.962   .     S
Cu498  O506    1.967   .     S
Cu498  N504    2.027   .     S
Cu498  O511    1.959   .     S
Cu498  O507    1.963   .     S
H513   C525    1.087   .     S
H514   C566    1.087   1_455 S
O517   H518    0.981   .     S
O519   H520    0.981   .     S
C521   O545    1.299   .     A
C521   O547    1.296   .     A
C521   C532    1.451   .     S
C522   C531    1.451   .     S
C522   O546    1.299   .     A
C522   O548    1.296   .     A
C523   O551    1.292   .     A
C523   O549    1.294   .     A
C523   C525    1.434   .     S
C524   O552    1.292   .     A
C524   C526    1.434   .     S
C524   O550    1.294   .     A
C526   C565    1.332   .     S
C526   H594    1.087   .     S
C527   H539    1.083   .     S
C527   C532    1.403   .     A
C528   H540    1.083   .     S
C528   C531    1.403   .     A
C528   C650    1.384   .     S
C529   C531    1.400   .     A
C529   H555    1.083   .     S
C529   C647    1.384   .     S
C530   C532    1.400   .     A
C530   H556    1.083   .     S
C533   H541    1.082   .     S
C533   N544    1.357   .     A
C534   N543    1.357   .     A
C534   H542    1.082   .     S
C534   C896    1.414   .     S
C535   N543    1.390   .     A
C535   O557    1.374   .     S
C535   C893    1.414   .     S
C536   N544    1.390   .     A
C536   O559    1.374   .     S
Cu537  O549    1.962   .     S
Cu537  O545    1.967   .     S
Cu537  Cu538   2.697   .     S
Cu537  N543    2.027   .     S
Cu537  O552    1.959   .     S
Cu537  O548    1.963   .     S
Cu538  O550    1.962   .     S
Cu538  O546    1.967   .     S
Cu538  N544    2.027   .     S
Cu538  O551    1.959   .     S
Cu538  O547    1.963   .     S
H553   C565    1.087   .     S
O557   H558    0.981   .     S
O559   H560    0.981   .     S
C561   O585    1.299   .     A
C561   O587    1.296   .     A
C561   C572    1.451   .     S
C562   C571    1.451   .     S
C562   O586    1.299   .     A
C562   O588    1.296   .     A
C563   O591    1.292   .     A
C563   O589    1.294   .     A
C563   C565    1.434   .     S
C564   O592    1.292   .     A
C564   C566    1.434   .     S
C564   O590    1.294   .     A
C566   C485    1.332   1_655 S
C566   H514    1.087   1_655 S
C567   H579    1.083   .     S
C567   C572    1.403   .     A
C568   H580    1.083   .     S
C568   C571    1.403   .     A
C568   C690    1.384   .     S
C569   C571    1.400   .     A
C569   H595    1.083   .     S
C569   C687    1.384   .     S
C570   C572    1.400   .     A
C570   H596    1.083   .     S
C573   H581    1.082   .     S
C573   N584    1.357   .     A
C574   N583    1.357   .     A
C574   H582    1.082   .     S
C574   C936    1.414   .     S
C575   N583    1.390   .     A
C575   O597    1.374   .     S
C575   C933    1.414   .     S
C576   N584    1.390   .     A
C576   O599    1.374   .     S
Cu577  O589    1.962   .     S
Cu577  O585    1.967   .     S
Cu577  Cu578   2.697   .     S
Cu577  N583    2.027   .     S
Cu577  O592    1.959   .     S
Cu577  O588    1.963   .     S
Cu578  O590    1.962   .     S
Cu578  O586    1.967   .     S
Cu578  N584    2.027   .     S
Cu578  O591    1.959   .     S
Cu578  O587    1.963   .     S
H593   C485    1.087   1_655 S
O597   H598    0.981   .     S
O599   H600    0.981   .     S
C601   O625    1.299   .     A
C601   O627    1.296   .     A
C601   C612    1.451   .     S
C602   C611    1.451   .     S
C602   O626    1.299   .     A
C602   O628    1.296   .     A
C603   O631    1.292   .     A
C603   O629    1.294   .     A
C603   C605    1.434   .     S
C604   O632    1.292   .     A
C604   C606    1.434   .     S
C604   O630    1.294   .     A
C605   C686    1.332   1_455 S
C605   H713    1.087   1_455 S
C606   C645    1.332   .     S
C606   H674    1.087   .     S
C607   H619    1.083   .     S
C607   C612    1.403   .     A
C608   H620    1.083   .     S
C608   C611    1.403   .     A
C608   C370    1.384   1_565 S
C609   C611    1.400   .     A
C609   H635    1.083   .     S
C609   C367    1.384   1_565 S
C610   C612    1.400   .     A
C610   H636    1.083   .     S
C613   H621    1.082   .     S
C613   N624    1.357   .     A
C614   N623    1.357   .     A
C614   H622    1.082   .     S
C614   C976    1.414   .     S
C615   N623    1.390   .     A
C615   O637    1.374   .     S
C615   C973    1.414   .     S
C616   N624    1.390   .     A
C616   O639    1.374   .     S
Cu617  O629    1.962   .     S
Cu617  O625    1.967   .     S
Cu617  Cu618   2.697   .     S
Cu617  N623    2.027   .     S
Cu617  O632    1.959   .     S
Cu617  O628    1.963   .     S
Cu618  O630    1.962   .     S
Cu618  O626    1.967   .     S
Cu618  N624    2.027   .     S
Cu618  O631    1.959   .     S
Cu618  O627    1.963   .     S
H633   C645    1.087   .     S
H634   C686    1.087   1_455 S
O637   H638    0.981   .     S
O639   H640    0.981   .     S
C641   O665    1.299   .     A
C641   O667    1.296   .     A
C641   C652    1.451   .     S
C642   C651    1.451   .     S
C642   O666    1.299   .     A
C642   O668    1.296   .     A
C643   O671    1.292   .     A
C643   O669    1.294   .     A
C643   C645    1.434   .     S
C644   O672    1.292   .     A
C644   C646    1.434   .     S
C644   O670    1.294   .     A
C646   C685    1.332   .     S
C646   H714    1.087   .     S
C647   H659    1.083   .     S
C647   C652    1.403   .     A
C648   H660    1.083   .     S
C648   C651    1.403   .     A
C648   C410    1.384   1_565 S
C649   C651    1.400   .     A
C649   H675    1.083   .     S
C649   C407    1.384   1_565 S
C650   C652    1.400   .     A
C650   H676    1.083   .     S
C653   H661    1.082   .     S
C653   N664    1.357   .     A
C654   N663    1.357   .     A
C654   H662    1.082   .     S
C654   C1016   1.414   .     S
C655   N663    1.390   .     A
C655   O677    1.374   .     S
C655   C1013   1.414   .     S
C656   N664    1.390   .     A
C656   O679    1.374   .     S
Cu657  O669    1.962   .     S
Cu657  O665    1.967   .     S
Cu657  Cu658   2.697   .     S
Cu657  N663    2.027   .     S
Cu657  O672    1.959   .     S
Cu657  O668    1.963   .     S
Cu658  O670    1.962   .     S
Cu658  O666    1.967   .     S
Cu658  N664    2.027   .     S
Cu658  O671    1.959   .     S
Cu658  O667    1.963   .     S
H673   C685    1.087   .     S
O677   H678    0.981   .     S
O679   H680    0.981   .     S
C681   O705    1.299   .     A
C681   O707    1.296   .     A
C681   C692    1.451   .     S
C682   C691    1.451   .     S
C682   O706    1.299   .     A
C682   O708    1.296   .     A
C683   O711    1.292   .     A
C683   O709    1.294   .     A
C683   C685    1.434   .     S
C684   O712    1.292   .     A
C684   C686    1.434   .     S
C684   O710    1.294   .     A
C686   C605    1.332   1_655 S
C686   H634    1.087   1_655 S
C687   H699    1.083   .     S
C687   C692    1.403   .     A
C688   H700    1.083   .     S
C688   C691    1.403   .     A
C688   C450    1.384   1_565 S
C689   C691    1.400   .     A
C689   H715    1.083   .     S
C689   C447    1.384   1_565 S
C690   C692    1.400   .     A
C690   H716    1.083   .     S
C693   H701    1.082   .     S
C693   N704    1.357   .     A
C694   N703    1.357   .     A
C694   H702    1.082   .     S
C694   C1056   1.414   .     S
C695   N703    1.390   .     A
C695   O717    1.374   .     S
C695   C1053   1.414   .     S
C696   N704    1.390   .     A
C696   O719    1.374   .     S
Cu697  O709    1.962   .     S
Cu697  O705    1.967   .     S
Cu697  Cu698   2.697   .     S
Cu697  N703    2.027   .     S
Cu697  O712    1.959   .     S
Cu697  O708    1.963   .     S
Cu698  O710    1.962   .     S
Cu698  O706    1.967   .     S
Cu698  N704    2.027   .     S
Cu698  O711    1.959   .     S
Cu698  O707    1.963   .     S
H713   C605    1.087   1_655 S
O717   H718    0.981   .     S
O719   H720    0.981   .     S
C721   O745    1.299   .     A
C721   O747    1.296   .     A
C721   C732    1.451   .     S
C722   C731    1.451   .     S
C722   O746    1.299   .     A
C722   O748    1.296   .     A
C723   O751    1.292   .     A
C723   O749    1.294   .     A
C723   C725    1.434   .     S
C724   O752    1.292   .     A
C724   C726    1.434   .     S
C724   O750    1.294   .     A
C725   C806    1.332   1_455 S
C725   H833    1.087   1_455 S
C726   C765    1.332   .     S
C726   H794    1.087   .     S
C727   H739    1.083   .     S
C727   C732    1.403   .     A
C727   C969    1.384   1_545 S
C728   H740    1.083   .     S
C728   C731    1.403   .     A
C728   C850    1.384   .     S
C729   C731    1.400   .     A
C729   H755    1.083   .     S
C729   C847    1.384   .     S
C730   C732    1.400   .     A
C730   H756    1.083   .     S
C730   C968    1.384   1_545 S
C733   H741    1.082   .     S
C733   N744    1.357   .     A
C734   N743    1.357   .     A
C734   H742    1.082   .     S
C734   C16     1.414   1_556 S
C735   N743    1.390   .     A
C735   O757    1.374   .     S
C735   C13     1.414   1_556 S
C736   N744    1.390   .     A
C736   O759    1.374   .     S
Cu737  O749    1.962   .     S
Cu737  O745    1.967   .     S
Cu737  Cu738   2.697   .     S
Cu737  N743    2.027   .     S
Cu737  O752    1.959   .     S
Cu737  O748    1.963   .     S
Cu738  O750    1.962   .     S
Cu738  O746    1.967   .     S
Cu738  N744    2.027   .     S
Cu738  O751    1.959   .     S
Cu738  O747    1.963   .     S
H753   C765    1.087   .     S
H754   C806    1.087   1_455 S
O757   H758    0.981   .     S
O759   H760    0.981   .     S
C761   O785    1.299   .     A
C761   O787    1.296   .     A
C761   C772    1.451   .     S
C762   C771    1.451   .     S
C762   O786    1.299   .     A
C762   O788    1.296   .     A
C763   O791    1.292   .     A
C763   O789    1.294   .     A
C763   C765    1.434   .     S
C764   O792    1.292   .     A
C764   C766    1.434   .     S
C764   O790    1.294   .     A
C766   C805    1.332   .     S
C766   H834    1.087   .     S
C767   H779    1.083   .     S
C767   C772    1.403   .     A
C767   C1009   1.384   1_545 S
C768   H780    1.083   .     S
C768   C771    1.403   .     A
C768   C890    1.384   .     S
C769   C771    1.400   .     A
C769   H795    1.083   .     S
C769   C887    1.384   .     S
C770   C772    1.400   .     A
C770   H796    1.083   .     S
C770   C1008   1.384   1_545 S
C773   H781    1.082   .     S
C773   N784    1.357   .     A
C774   N783    1.357   .     A
C774   H782    1.082   .     S
C774   C56     1.414   1_556 S
C775   N783    1.390   .     A
C775   O797    1.374   .     S
C775   C53     1.414   1_556 S
C776   N784    1.390   .     A
C776   O799    1.374   .     S
Cu777  O789    1.962   .     S
Cu777  O785    1.967   .     S
Cu777  Cu778   2.697   .     S
Cu777  N783    2.027   .     S
Cu777  O792    1.959   .     S
Cu777  O788    1.963   .     S
Cu778  O790    1.962   .     S
Cu778  O786    1.967   .     S
Cu778  N784    2.027   .     S
Cu778  O791    1.959   .     S
Cu778  O787    1.963   .     S
H793   C805    1.087   .     S
O797   H798    0.981   .     S
O799   H800    0.981   .     S
C801   O825    1.299   .     A
C801   O827    1.296   .     A
C801   C812    1.451   .     S
C802   C811    1.451   .     S
C802   O826    1.299   .     A
C802   O828    1.296   .     A
C803   O831    1.292   .     A
C803   O829    1.294   .     A
C803   C805    1.434   .     S
C804   O832    1.292   .     A
C804   C806    1.434   .     S
C804   O830    1.294   .     A
C806   C725    1.332   1_655 S
C806   H754    1.087   1_655 S
C807   H819    1.083   .     S
C807   C812    1.403   .     A
C807   C1049   1.384   1_545 S
C808   H820    1.083   .     S
C808   C811    1.403   .     A
C808   C930    1.384   .     S
C809   C811    1.400   .     A
C809   H835    1.083   .     S
C809   C927    1.384   .     S
C810   C812    1.400   .     A
C810   H836    1.083   .     S
C810   C1048   1.384   1_545 S
C813   H821    1.082   .     S
C813   N824    1.357   .     A
C814   N823    1.357   .     A
C814   H822    1.082   .     S
C814   C96     1.414   1_556 S
C815   N823    1.390   .     A
C815   O837    1.374   .     S
C815   C93     1.414   1_556 S
C816   N824    1.390   .     A
C816   O839    1.374   .     S
Cu817  O829    1.962   .     S
Cu817  O825    1.967   .     S
Cu817  Cu818   2.697   .     S
Cu817  N823    2.027   .     S
Cu817  O832    1.959   .     S
Cu817  O828    1.963   .     S
Cu818  O830    1.962   .     S
Cu818  O826    1.967   .     S
Cu818  N824    2.027   .     S
Cu818  O831    1.959   .     S
Cu818  O827    1.963   .     S
H833   C725    1.087   1_655 S
O837   H838    0.981   .     S
O839   H840    0.981   .     S
C841   O865    1.299   .     A
C841   O867    1.296   .     A
C841   C852    1.451   .     S
C842   C851    1.451   .     S
C842   O866    1.299   .     A
C842   O868    1.296   .     A
C843   O871    1.292   .     A
C843   O869    1.294   .     A
C843   C845    1.434   .     S
C844   O872    1.292   .     A
C844   C846    1.434   .     S
C844   O870    1.294   .     A
C845   C926    1.332   1_455 S
C845   H953    1.087   1_455 S
C846   C885    1.332   .     S
C846   H914    1.087   .     S
C847   H859    1.083   .     S
C847   C852    1.403   .     A
C848   H860    1.083   .     S
C848   C851    1.403   .     A
C848   C970    1.384   .     S
C849   C851    1.400   .     A
C849   H875    1.083   .     S
C849   C967    1.384   .     S
C850   C852    1.400   .     A
C850   H876    1.083   .     S
C853   H861    1.082   .     S
C853   N864    1.357   .     A
C854   N863    1.357   .     A
C854   H862    1.082   .     S
C854   C136    1.414   1_556 S
C855   N863    1.390   .     A
C855   O877    1.374   .     S
C855   C133    1.414   1_556 S
C856   N864    1.390   .     A
C856   O879    1.374   .     S
Cu857  O869    1.962   .     S
Cu857  O865    1.967   .     S
Cu857  Cu858   2.697   .     S
Cu857  N863    2.027   .     S
Cu857  O872    1.959   .     S
Cu857  O868    1.963   .     S
Cu858  O870    1.962   .     S
Cu858  O866    1.967   .     S
Cu858  N864    2.027   .     S
Cu858  O871    1.959   .     S
Cu858  O867    1.963   .     S
H873   C885    1.087   .     S
H874   C926    1.087   1_455 S
O877   H878    0.981   .     S
O879   H880    0.981   .     S
C881   O905    1.299   .     A
C881   O907    1.296   .     A
C881   C892    1.451   .     S
C882   C891    1.451   .     S
C882   O906    1.299   .     A
C882   O908    1.296   .     A
C883   O911    1.292   .     A
C883   O909    1.294   .     A
C883   C885    1.434   .     S
C884   O912    1.292   .     A
C884   C886    1.434   .     S
C884   O910    1.294   .     A
C886   C925    1.332   .     S
C886   H954    1.087   .     S
C887   H899    1.083   .     S
C887   C892    1.403   .     A
C888   H900    1.083   .     S
C888   C891    1.403   .     A
C888   C1010   1.384   .     S
C889   C891    1.400   .     A
C889   H915    1.083   .     S
C889   C1007   1.384   .     S
C890   C892    1.400   .     A
C890   H916    1.083   .     S
C893   H901    1.082   .     S
C893   N904    1.357   .     A
C894   N903    1.357   .     A
C894   H902    1.082   .     S
C894   C176    1.414   1_556 S
C895   N903    1.390   .     A
C895   O917    1.374   .     S
C895   C173    1.414   1_556 S
C896   N904    1.390   .     A
C896   O919    1.374   .     S
Cu897  O909    1.962   .     S
Cu897  O905    1.967   .     S
Cu897  Cu898   2.697   .     S
Cu897  N903    2.027   .     S
Cu897  O912    1.959   .     S
Cu897  O908    1.963   .     S
Cu898  O910    1.962   .     S
Cu898  O906    1.967   .     S
Cu898  N904    2.027   .     S
Cu898  O911    1.959   .     S
Cu898  O907    1.963   .     S
H913   C925    1.087   .     S
O917   H918    0.981   .     S
O919   H920    0.981   .     S
C921   O945    1.299   .     A
C921   O947    1.296   .     A
C921   C932    1.451   .     S
C922   C931    1.451   .     S
C922   O946    1.299   .     A
C922   O948    1.296   .     A
C923   O951    1.292   .     A
C923   O949    1.294   .     A
C923   C925    1.434   .     S
C924   O952    1.292   .     A
C924   C926    1.434   .     S
C924   O950    1.294   .     A
C926   C845    1.332   1_655 S
C926   H874    1.087   1_655 S
C927   H939    1.083   .     S
C927   C932    1.403   .     A
C928   H940    1.083   .     S
C928   C931    1.403   .     A
C928   C1050   1.384   .     S
C929   C931    1.400   .     A
C929   H955    1.083   .     S
C929   C1047   1.384   .     S
C930   C932    1.400   .     A
C930   H956    1.083   .     S
C933   H941    1.082   .     S
C933   N944    1.357   .     A
C934   N943    1.357   .     A
C934   H942    1.082   .     S
C934   C216    1.414   1_556 S
C935   N943    1.390   .     A
C935   O957    1.374   .     S
C935   C213    1.414   1_556 S
C936   N944    1.390   .     A
C936   O959    1.374   .     S
Cu937  O949    1.962   .     S
Cu937  O945    1.967   .     S
Cu937  Cu938   2.697   .     S
Cu937  N943    2.027   .     S
Cu937  O952    1.959   .     S
Cu937  O948    1.963   .     S
Cu938  O950    1.962   .     S
Cu938  O946    1.967   .     S
Cu938  N944    2.027   .     S
Cu938  O951    1.959   .     S
Cu938  O947    1.963   .     S
H953   C845    1.087   1_655 S
O957   H958    0.981   .     S
O959   H960    0.981   .     S
C961   O985    1.299   .     A
C961   O987    1.296   .     A
C961   C972    1.451   .     S
C962   C971    1.451   .     S
C962   O986    1.299   .     A
C962   O988    1.296   .     A
C963   O991    1.292   .     A
C963   O989    1.294   .     A
C963   C965    1.434   .     S
C964   O992    1.292   .     A
C964   C966    1.434   .     S
C964   O990    1.294   .     A
C965   C1046   1.332   1_455 S
C965   H1073   1.087   1_455 S
C966   C1005   1.332   .     S
C966   H1034   1.087   .     S
C967   H979    1.083   .     S
C967   C972    1.403   .     A
C968   H980    1.083   .     S
C968   C971    1.403   .     A
C968   C730    1.384   1_565 S
C969   C971    1.400   .     A
C969   H995    1.083   .     S
C969   C727    1.384   1_565 S
C970   C972    1.400   .     A
C970   H996    1.083   .     S
C973   H981    1.082   .     S
C973   N984    1.357   .     A
C974   N983    1.357   .     A
C974   H982    1.082   .     S
C974   C256    1.414   1_556 S
C975   N983    1.390   .     A
C975   O997    1.374   .     S
C975   C253    1.414   1_556 S
C976   N984    1.390   .     A
C976   O999    1.374   .     S
Cu977  O989    1.962   .     S
Cu977  O985    1.967   .     S
Cu977  Cu978   2.697   .     S
Cu977  N983    2.027   .     S
Cu977  O992    1.959   .     S
Cu977  O988    1.963   .     S
Cu978  O990    1.962   .     S
Cu978  O986    1.967   .     S
Cu978  N984    2.027   .     S
Cu978  O991    1.959   .     S
Cu978  O987    1.963   .     S
H993   C1005   1.087   .     S
H994   C1046   1.087   1_455 S
O997   H998    0.981   .     S
O999   H1000   0.981   .     S
C1001  O1025   1.299   .     A
C1001  O1027   1.296   .     A
C1001  C1012   1.451   .     S
C1002  C1011   1.451   .     S
C1002  O1026   1.299   .     A
C1002  O1028   1.296   .     A
C1003  O1031   1.292   .     A
C1003  O1029   1.294   .     A
C1003  C1005   1.434   .     S
C1004  O1032   1.292   .     A
C1004  C1006   1.434   .     S
C1004  O1030   1.294   .     A
C1006  C1045   1.332   .     S
C1006  H1074   1.087   .     S
C1007  H1019   1.083   .     S
C1007  C1012   1.403   .     A
C1008  H1020   1.083   .     S
C1008  C1011   1.403   .     A
C1008  C770    1.384   1_565 S
C1009  C1011   1.400   .     A
C1009  H1035   1.083   .     S
C1009  C767    1.384   1_565 S
C1010  C1012   1.400   .     A
C1010  H1036   1.083   .     S
C1013  H1021   1.082   .     S
C1013  N1024   1.357   .     A
C1014  N1023   1.357   .     A
C1014  H1022   1.082   .     S
C1014  C296    1.414   1_556 S
C1015  N1023   1.390   .     A
C1015  O1037   1.374   .     S
C1015  C293    1.414   1_556 S
C1016  N1024   1.390   .     A
C1016  O1039   1.374   .     S
Cu1017 O1029   1.962   .     S
Cu1017 O1025   1.967   .     S
Cu1017 Cu1018  2.697   .     S
Cu1017 N1023   2.027   .     S
Cu1017 O1032   1.959   .     S
Cu1017 O1028   1.963   .     S
Cu1018 O1030   1.962   .     S
Cu1018 O1026   1.967   .     S
Cu1018 N1024   2.027   .     S
Cu1018 O1031   1.959   .     S
Cu1018 O1027   1.963   .     S
H1033  C1045   1.087   .     S
O1037  H1038   0.981   .     S
O1039  H1040   0.981   .     S
C1041  O1065   1.299   .     A
C1041  O1067   1.296   .     A
C1041  C1052   1.451   .     S
C1042  C1051   1.451   .     S
C1042  O1066   1.299   .     A
C1042  O1068   1.296   .     A
C1043  O1071   1.292   .     A
C1043  O1069   1.294   .     A
C1043  C1045   1.434   .     S
C1044  O1072   1.292   .     A
C1044  C1046   1.434   .     S
C1044  O1070   1.294   .     A
C1046  C965    1.332   1_655 S
C1046  H994    1.087   1_655 S
C1047  H1059   1.083   .     S
C1047  C1052   1.403   .     A
C1048  H1060   1.083   .     S
C1048  C1051   1.403   .     A
C1048  C810    1.384   1_565 S
C1049  C1051   1.400   .     A
C1049  H1075   1.083   .     S
C1049  C807    1.384   1_565 S
C1050  C1052   1.400   .     A
C1050  H1076   1.083   .     S
C1053  H1061   1.082   .     S
C1053  N1064   1.357   .     A
C1054  N1063   1.357   .     A
C1054  H1062   1.082   .     S
C1054  C336    1.414   1_556 S
C1055  N1063   1.390   .     A
C1055  O1077   1.374   .     S
C1055  C333    1.414   1_556 S
C1056  N1064   1.390   .     A
C1056  O1079   1.374   .     S
Cu1057 O1069   1.962   .     S
Cu1057 O1065   1.967   .     S
Cu1057 Cu1058  2.697   .     S
Cu1057 N1063   2.027   .     S
Cu1057 O1072   1.959   .     S
Cu1057 O1068   1.963   .     S
Cu1058 O1070   1.962   .     S
Cu1058 O1066   1.967   .     S
Cu1058 N1064   2.027   .     S
Cu1058 O1071   1.959   .     S
Cu1058 O1067   1.963   .     S
H1073  C965    1.087   1_655 S
O1077  H1078   0.981   .     S
O1079  H1080   0.981   .     S
