data_str_m2_o10_o18_pcu_sym.87
_audit_creation_date              2020-01-03
_audit_creation_method            'Materials Studio'
_symmetry_space_group_name_H-M    'P1'
_symmetry_Int_Tables_number       1
_symmetry_cell_setting            triclinic
loop_
_symmetry_equiv_pos_as_xyz
  x,y,z
_cell_length_a                    22.4528
_cell_length_b                    26.2669
_cell_length_c                    31.6447
_cell_angle_alpha                 94.7271
_cell_angle_beta                  75.6557
_cell_angle_gamma                 103.0116
loop_
_atom_site_label
_atom_site_type_symbol
_atom_site_fract_x
_atom_site_fract_y
_atom_site_fract_z
_atom_site_U_iso_or_equiv
_atom_site_adp_type
_atom_site_occupancy
C1     C     0.18099   0.26638   0.25208   0.00000  Uiso   1.00
C2     C     0.20480   0.17168   0.16695   0.00000  Uiso   1.00
C3     C     0.10583   0.15052   0.37900   0.00000  Uiso   1.00
C4     C     0.22642   0.17756   0.11927   0.00000  Uiso   1.00
C5     C     0.04319   0.09061   0.43450   0.00000  Uiso   1.00
C6     C     0.30909   0.20159   0.05456   0.00000  Uiso   1.00
C7     C     0.06187   0.10443   0.39117   0.00000  Uiso   1.00
C8     C     0.29048   0.19001   0.09876   0.00000  Uiso   1.00
C9     C     0.13495   0.18035   0.40998   0.00000  Uiso   1.00
C10    C     0.18177   0.17298   0.09393   0.00000  Uiso   1.00
C11    C     0.12906   0.15894   0.45085   0.00000  Uiso   1.00
C12    C     0.15208   0.06691   0.24834   0.00000  Uiso   1.00
C13    C     0.20038   0.17368   0.04822   0.00000  Uiso   1.00
C14    C     0.07680   0.11730   0.46449   0.00000  Uiso   1.00
C15    C     0.26403   0.19498   0.02944   0.00000  Uiso   1.00
C16    C     0.17395   0.17450   0.47735   0.00000  Uiso   1.00
C17    C     0.15710   0.15656   0.02111   0.00000  Uiso   1.00
C18    C     0.08392   0.04156   0.07292   0.00000  Uiso   1.00
C19    C     0.02168   0.01318   0.10099   0.00000  Uiso   1.00
C20    C     0.29988   0.19022   0.39156   0.00000  Uiso   1.00
C21    C     0.26875   0.13377   0.38232   0.00000  Uiso   1.00
C22    C     0.22191   0.01059   0.31969   0.00000  Uiso   1.00
C23    C     0.10075   0.11781   0.03495   0.00000  Uiso   1.00
C24    C     0.28048   0.00280   0.33201   0.00000  Uiso   1.00
C25    C     0.11406   0.31398   0.18237   0.00000  Uiso   1.00
C26    C     0.06764   0.27086   0.16535   0.00000  Uiso   1.00
C27    C     0.23756   0.20131   0.46030   0.00000  Uiso   1.00
C28    C     0.06061   0.10036   0.00693   0.00000  Uiso   1.00
C29    C     0.28142   0.21094   0.48649   0.00000  Uiso   1.00
C30    C     0.18649   0.32193   0.25718   0.00000  Uiso   1.00
C31    C     0.14588   0.01134   0.24430   0.00000  Uiso   1.00
C32    C     0.12856   0.16253   0.33284   0.00000  Uiso   1.00
Cu33   Cu    0.10737   0.16108   0.24516   0.00000  Uiso   1.00
Cu34   Cu    0.22596   0.17225   0.25483   0.00000  Uiso   1.00
F35    F     0.00593   0.06513   0.02097   0.00000  Uiso   1.00
F36    F     0.00728   0.23898   0.47065   0.00000  Uiso   1.00
F37    F     0.12149   0.17579   0.11366   0.00000  Uiso   1.00
F38    F     0.16415   0.23071   0.40078   0.00000  Uiso   1.00
F39    F     0.01021   0.22165   0.28275   0.00000  Uiso   1.00
F40    F     0.32437   0.11421   0.21417   0.00000  Uiso   1.00
H41    H     0.32587   0.19397   0.11730   0.00000  Uiso   1.00
H42    H     0.00748   0.19127   0.40520   0.00000  Uiso   1.00
H43    H     0.31895   0.21016   0.36014   0.00000  Uiso   1.00
H44    H     0.29935   0.11755   0.35391   0.00000  Uiso   1.00
H45    H     0.26047   0.10952   0.41117   0.00000  Uiso   1.00
H46    H     0.22366   0.13149   0.37382   0.00000  Uiso   1.00
H47    H     0.18269   0.31024   0.33223   0.00000  Uiso   1.00
H48    H     0.20831   0.04642   0.33655   0.00000  Uiso   1.00
H49    H     0.32179   0.03294   0.31672   0.00000  Uiso   1.00
H50    H     0.27378   0.00561   0.36803   0.00000  Uiso   1.00
H51    H     0.28950   0.29698   0.32031   0.00000  Uiso   1.00
H52    H     0.04163   0.07949   0.36724   0.00000  Uiso   1.00
H53    H     0.16177   0.30501   0.17000   0.00000  Uiso   1.00
H54    H     0.11362   0.01857   0.16929   0.00000  Uiso   1.00
H55    H     0.08261   0.26784   0.12926   0.00000  Uiso   1.00
H56    H     0.06637   0.23292   0.17887   0.00000  Uiso   1.00
H57    H     0.01971   0.27924   0.17517   0.00000  Uiso   1.00
H58    H     0.00584   0.05649   0.44364   0.00000  Uiso   1.00
H59    H     0.02536   0.21534   0.04007   0.00000  Uiso   1.00
H60    H     0.12281   0.03469   0.08612   0.00000  Uiso   1.00
H61    H     0.09041   0.02401   0.03919   0.00000  Uiso   1.00
H62    H     0.31467   0.02286   0.09142   0.00000  Uiso   1.00
H63    H     0.01785   0.30370   0.09686   0.00000  Uiso   1.00
H64    H     0.01874   0.02493   0.13584   0.00000  Uiso   1.00
N65    N     0.31506   0.18068   0.26212   0.00000  Uiso   1.00
N66    N     0.01827   0.15265   0.23788   0.00000  Uiso   1.00
O67    O     0.12815   0.23809   0.24686   0.00000  Uiso   1.00
O68    O     0.25724   0.21862   0.41798   0.00000  Uiso   1.00
O69    O     0.23561   0.01736   0.27408   0.00000  Uiso   1.00
O70    O     0.09587   0.31576   0.22840   0.00000  Uiso   1.00
O71    O     0.20518   0.09524   0.25314   0.00000  Uiso   1.00
O72    O     0.22829   0.24753   0.25502   0.00000  Uiso   1.00
O73    O     0.10504   0.08580   0.24497   0.00000  Uiso   1.00
O74    O     0.08851   0.15930   0.30854   0.00000  Uiso   1.00
O75    O     0.24482   0.17403   0.19145   0.00000  Uiso   1.00
O76    O     0.18866   0.16874   0.31671   0.00000  Uiso   1.00
O77    O     0.14468   0.16460   0.18329   0.00000  Uiso   1.00
O78    O     0.08538   0.09591   0.07574   0.00000  Uiso   1.00
C79    C     0.51432   0.26638   0.25208   0.00000  Uiso   1.00
C80    C     0.53814   0.17168   0.16695   0.00000  Uiso   1.00
C81    C     0.43916   0.15052   0.37900   0.00000  Uiso   1.00
C82    C     0.55976   0.17756   0.11927   0.00000  Uiso   1.00
C83    C     0.37652   0.09061   0.43450   0.00000  Uiso   1.00
C84    C     0.64242   0.20159   0.05456   0.00000  Uiso   1.00
C85    C     0.39521   0.10443   0.39117   0.00000  Uiso   1.00
C86    C     0.62382   0.19001   0.09876   0.00000  Uiso   1.00
C87    C     0.46828   0.18035   0.40998   0.00000  Uiso   1.00
C88    C     0.51510   0.17298   0.09393   0.00000  Uiso   1.00
C89    C     0.46239   0.15894   0.45085   0.00000  Uiso   1.00
C90    C     0.48542   0.06691   0.24834   0.00000  Uiso   1.00
C91    C     0.53371   0.17368   0.04822   0.00000  Uiso   1.00
C92    C     0.41013   0.11730   0.46449   0.00000  Uiso   1.00
C93    C     0.59737   0.19498   0.02944   0.00000  Uiso   1.00
C94    C     0.50728   0.17450   0.47735   0.00000  Uiso   1.00
C95    C     0.49044   0.15656   0.02111   0.00000  Uiso   1.00
C96    C     0.41725   0.04156   0.07292   0.00000  Uiso   1.00
C97    C     0.35501   0.01318   0.10099   0.00000  Uiso   1.00
C98    C     0.63322   0.19022   0.39156   0.00000  Uiso   1.00
C99    C     0.60208   0.13377   0.38232   0.00000  Uiso   1.00
C100   C     0.55524   0.01059   0.31969   0.00000  Uiso   1.00
C101   C     0.43408   0.11781   0.03495   0.00000  Uiso   1.00
C102   C     0.61381   0.00280   0.33201   0.00000  Uiso   1.00
C103   C     0.44739   0.31398   0.18237   0.00000  Uiso   1.00
C104   C     0.40098   0.27086   0.16535   0.00000  Uiso   1.00
C105   C     0.57089   0.20131   0.46030   0.00000  Uiso   1.00
C106   C     0.39394   0.10036   0.00693   0.00000  Uiso   1.00
C107   C     0.61476   0.21094   0.48649   0.00000  Uiso   1.00
C108   C     0.51982   0.32193   0.25718   0.00000  Uiso   1.00
C109   C     0.47921   0.01134   0.24430   0.00000  Uiso   1.00
C110   C     0.46190   0.16253   0.33284   0.00000  Uiso   1.00
Cu111  Cu    0.44071   0.16108   0.24516   0.00000  Uiso   1.00
Cu112  Cu    0.55929   0.17225   0.25483   0.00000  Uiso   1.00
F113   F     0.33926   0.06513   0.02097   0.00000  Uiso   1.00
F114   F     0.34061   0.23898   0.47065   0.00000  Uiso   1.00
F115   F     0.45482   0.17579   0.11366   0.00000  Uiso   1.00
F116   F     0.49748   0.23071   0.40078   0.00000  Uiso   1.00
F117   F     0.34355   0.22165   0.28275   0.00000  Uiso   1.00
F118   F     0.65770   0.11421   0.21417   0.00000  Uiso   1.00
H119   H     0.65920   0.19397   0.11730   0.00000  Uiso   1.00
H120   H     0.34082   0.19127   0.40520   0.00000  Uiso   1.00
H121   H     0.65228   0.21016   0.36014   0.00000  Uiso   1.00
H122   H     0.63268   0.11755   0.35391   0.00000  Uiso   1.00
H123   H     0.59380   0.10952   0.41117   0.00000  Uiso   1.00
H124   H     0.55699   0.13149   0.37382   0.00000  Uiso   1.00
H125   H     0.51602   0.31024   0.33223   0.00000  Uiso   1.00
H126   H     0.54164   0.04642   0.33655   0.00000  Uiso   1.00
H127   H     0.65513   0.03294   0.31672   0.00000  Uiso   1.00
H128   H     0.60711   0.00561   0.36803   0.00000  Uiso   1.00
H129   H     0.62283   0.29698   0.32031   0.00000  Uiso   1.00
H130   H     0.37496   0.07949   0.36724   0.00000  Uiso   1.00
H131   H     0.49511   0.30501   0.17000   0.00000  Uiso   1.00
H132   H     0.44696   0.01857   0.16929   0.00000  Uiso   1.00
H133   H     0.41594   0.26784   0.12926   0.00000  Uiso   1.00
H134   H     0.39971   0.23292   0.17887   0.00000  Uiso   1.00
H135   H     0.35304   0.27924   0.17517   0.00000  Uiso   1.00
H136   H     0.33918   0.05649   0.44364   0.00000  Uiso   1.00
H137   H     0.35870   0.21534   0.04007   0.00000  Uiso   1.00
H138   H     0.45615   0.03469   0.08612   0.00000  Uiso   1.00
H139   H     0.42374   0.02401   0.03919   0.00000  Uiso   1.00
H140   H     0.64801   0.02286   0.09142   0.00000  Uiso   1.00
H141   H     0.35119   0.30370   0.09686   0.00000  Uiso   1.00
H142   H     0.35207   0.02493   0.13584   0.00000  Uiso   1.00
N143   N     0.64839   0.18068   0.26212   0.00000  Uiso   1.00
N144   N     0.35161   0.15265   0.23788   0.00000  Uiso   1.00
O145   O     0.46148   0.23809   0.24686   0.00000  Uiso   1.00
O146   O     0.59057   0.21862   0.41798   0.00000  Uiso   1.00
O147   O     0.56894   0.01736   0.27408   0.00000  Uiso   1.00
O148   O     0.42921   0.31576   0.22840   0.00000  Uiso   1.00
O149   O     0.53852   0.09524   0.25314   0.00000  Uiso   1.00
O150   O     0.56163   0.24753   0.25502   0.00000  Uiso   1.00
O151   O     0.43837   0.08580   0.24497   0.00000  Uiso   1.00
O152   O     0.42185   0.15930   0.30854   0.00000  Uiso   1.00
O153   O     0.57815   0.17403   0.19145   0.00000  Uiso   1.00
O154   O     0.52199   0.16874   0.31671   0.00000  Uiso   1.00
O155   O     0.47801   0.16460   0.18329   0.00000  Uiso   1.00
O156   O     0.41871   0.09591   0.07574   0.00000  Uiso   1.00
C157   C     0.84765   0.26638   0.25208   0.00000  Uiso   1.00
C158   C     0.87147   0.17168   0.16695   0.00000  Uiso   1.00
C159   C     0.77250   0.15052   0.37900   0.00000  Uiso   1.00
C160   C     0.89309   0.17756   0.11927   0.00000  Uiso   1.00
C161   C     0.70986   0.09061   0.43450   0.00000  Uiso   1.00
C162   C     0.97576   0.20159   0.05456   0.00000  Uiso   1.00
C163   C     0.72854   0.10443   0.39117   0.00000  Uiso   1.00
C164   C     0.95715   0.19001   0.09876   0.00000  Uiso   1.00
C165   C     0.80161   0.18035   0.40998   0.00000  Uiso   1.00
C166   C     0.84844   0.17298   0.09393   0.00000  Uiso   1.00
C167   C     0.79573   0.15894   0.45085   0.00000  Uiso   1.00
C168   C     0.81875   0.06691   0.24834   0.00000  Uiso   1.00
C169   C     0.86704   0.17368   0.04822   0.00000  Uiso   1.00
C170   C     0.74347   0.11730   0.46449   0.00000  Uiso   1.00
C171   C     0.93070   0.19498   0.02944   0.00000  Uiso   1.00
C172   C     0.84061   0.17450   0.47735   0.00000  Uiso   1.00
C173   C     0.82377   0.15656   0.02111   0.00000  Uiso   1.00
C174   C     0.75059   0.04156   0.07292   0.00000  Uiso   1.00
C175   C     0.68834   0.01318   0.10099   0.00000  Uiso   1.00
C176   C     0.96655   0.19022   0.39156   0.00000  Uiso   1.00
C177   C     0.93541   0.13377   0.38232   0.00000  Uiso   1.00
C178   C     0.88857   0.01059   0.31969   0.00000  Uiso   1.00
C179   C     0.76741   0.11781   0.03495   0.00000  Uiso   1.00
C180   C     0.94714   0.00280   0.33201   0.00000  Uiso   1.00
C181   C     0.78072   0.31398   0.18237   0.00000  Uiso   1.00
C182   C     0.73431   0.27086   0.16535   0.00000  Uiso   1.00
C183   C     0.90422   0.20131   0.46030   0.00000  Uiso   1.00
C184   C     0.72727   0.10036   0.00693   0.00000  Uiso   1.00
C185   C     0.94809   0.21094   0.48649   0.00000  Uiso   1.00
C186   C     0.85315   0.32193   0.25718   0.00000  Uiso   1.00
C187   C     0.81255   0.01134   0.24430   0.00000  Uiso   1.00
C188   C     0.79523   0.16253   0.33284   0.00000  Uiso   1.00
Cu189  Cu    0.77404   0.16108   0.24516   0.00000  Uiso   1.00
Cu190  Cu    0.89263   0.17225   0.25483   0.00000  Uiso   1.00
F191   F     0.67260   0.06513   0.02097   0.00000  Uiso   1.00
F192   F     0.67395   0.23898   0.47065   0.00000  Uiso   1.00
F193   F     0.78816   0.17579   0.11366   0.00000  Uiso   1.00
F194   F     0.83082   0.23071   0.40078   0.00000  Uiso   1.00
F195   F     0.67688   0.22165   0.28275   0.00000  Uiso   1.00
F196   F     0.99104   0.11421   0.21417   0.00000  Uiso   1.00
H197   H     0.99254   0.19397   0.11730   0.00000  Uiso   1.00
H198   H     0.67415   0.19127   0.40520   0.00000  Uiso   1.00
H199   H     0.98561   0.21016   0.36014   0.00000  Uiso   1.00
H200   H     0.96601   0.11755   0.35391   0.00000  Uiso   1.00
H201   H     0.92713   0.10952   0.41117   0.00000  Uiso   1.00
H202   H     0.89032   0.13149   0.37382   0.00000  Uiso   1.00
H203   H     0.84936   0.31024   0.33223   0.00000  Uiso   1.00
H204   H     0.87498   0.04642   0.33655   0.00000  Uiso   1.00
H205   H     0.98846   0.03294   0.31672   0.00000  Uiso   1.00
H206   H     0.94044   0.00561   0.36803   0.00000  Uiso   1.00
H207   H     0.95616   0.29698   0.32031   0.00000  Uiso   1.00
H208   H     0.70830   0.07949   0.36724   0.00000  Uiso   1.00
H209   H     0.82844   0.30501   0.17000   0.00000  Uiso   1.00
H210   H     0.78029   0.01857   0.16929   0.00000  Uiso   1.00
H211   H     0.74927   0.26784   0.12926   0.00000  Uiso   1.00
H212   H     0.73304   0.23292   0.17887   0.00000  Uiso   1.00
H213   H     0.68637   0.27924   0.17517   0.00000  Uiso   1.00
H214   H     0.67251   0.05649   0.44364   0.00000  Uiso   1.00
H215   H     0.69203   0.21534   0.04007   0.00000  Uiso   1.00
H216   H     0.78948   0.03469   0.08612   0.00000  Uiso   1.00
H217   H     0.75708   0.02401   0.03919   0.00000  Uiso   1.00
H218   H     0.98134   0.02286   0.09142   0.00000  Uiso   1.00
H219   H     0.68452   0.30370   0.09686   0.00000  Uiso   1.00
H220   H     0.68541   0.02493   0.13584   0.00000  Uiso   1.00
N221   N     0.98173   0.18068   0.26212   0.00000  Uiso   1.00
N222   N     0.68494   0.15265   0.23788   0.00000  Uiso   1.00
O223   O     0.79482   0.23809   0.24686   0.00000  Uiso   1.00
O224   O     0.92390   0.21862   0.41798   0.00000  Uiso   1.00
O225   O     0.90227   0.01736   0.27408   0.00000  Uiso   1.00
O226   O     0.76254   0.31576   0.22840   0.00000  Uiso   1.00
O227   O     0.87185   0.09524   0.25314   0.00000  Uiso   1.00
O228   O     0.89496   0.24753   0.25502   0.00000  Uiso   1.00
O229   O     0.77171   0.08580   0.24497   0.00000  Uiso   1.00
O230   O     0.75518   0.15930   0.30854   0.00000  Uiso   1.00
O231   O     0.91149   0.17403   0.19145   0.00000  Uiso   1.00
O232   O     0.85532   0.16874   0.31671   0.00000  Uiso   1.00
O233   O     0.81134   0.16460   0.18329   0.00000  Uiso   1.00
O234   O     0.75205   0.09591   0.07574   0.00000  Uiso   1.00
C235   C     0.18099   0.59972   0.25208   0.00000  Uiso   1.00
C236   C     0.20480   0.50501   0.16695   0.00000  Uiso   1.00
C237   C     0.10583   0.48385   0.37900   0.00000  Uiso   1.00
C238   C     0.22642   0.51090   0.11927   0.00000  Uiso   1.00
C239   C     0.04319   0.42394   0.43450   0.00000  Uiso   1.00
C240   C     0.30909   0.53492   0.05456   0.00000  Uiso   1.00
C241   C     0.06187   0.43776   0.39117   0.00000  Uiso   1.00
C242   C     0.29048   0.52335   0.09876   0.00000  Uiso   1.00
C243   C     0.13495   0.51368   0.40998   0.00000  Uiso   1.00
C244   C     0.18177   0.50631   0.09393   0.00000  Uiso   1.00
C245   C     0.12906   0.49227   0.45085   0.00000  Uiso   1.00
C246   C     0.15208   0.40024   0.24834   0.00000  Uiso   1.00
C247   C     0.20038   0.50701   0.04822   0.00000  Uiso   1.00
C248   C     0.07680   0.45063   0.46449   0.00000  Uiso   1.00
C249   C     0.26403   0.52832   0.02944   0.00000  Uiso   1.00
C250   C     0.17395   0.50783   0.47735   0.00000  Uiso   1.00
C251   C     0.15710   0.48989   0.02111   0.00000  Uiso   1.00
C252   C     0.08392   0.37490   0.07292   0.00000  Uiso   1.00
C253   C     0.02168   0.34651   0.10099   0.00000  Uiso   1.00
C254   C     0.29988   0.52355   0.39156   0.00000  Uiso   1.00
C255   C     0.26875   0.46710   0.38232   0.00000  Uiso   1.00
C256   C     0.22191   0.34392   0.31969   0.00000  Uiso   1.00
C257   C     0.10075   0.45114   0.03495   0.00000  Uiso   1.00
C258   C     0.28048   0.33613   0.33201   0.00000  Uiso   1.00
C259   C     0.11406   0.64731   0.18237   0.00000  Uiso   1.00
C260   C     0.06764   0.60419   0.16535   0.00000  Uiso   1.00
C261   C     0.23756   0.53465   0.46030   0.00000  Uiso   1.00
C262   C     0.06061   0.43369   0.00693   0.00000  Uiso   1.00
C263   C     0.28142   0.54427   0.48649   0.00000  Uiso   1.00
C264   C     0.18649   0.65527   0.25718   0.00000  Uiso   1.00
C265   C     0.14588   0.34468   0.24430   0.00000  Uiso   1.00
C266   C     0.12856   0.49587   0.33284   0.00000  Uiso   1.00
Cu267  Cu    0.10737   0.49441   0.24516   0.00000  Uiso   1.00
Cu268  Cu    0.22596   0.50559   0.25483   0.00000  Uiso   1.00
F269   F     0.00593   0.39847   0.02097   0.00000  Uiso   1.00
F270   F     0.00728   0.57232   0.47065   0.00000  Uiso   1.00
F271   F     0.12149   0.50912   0.11366   0.00000  Uiso   1.00
F272   F     0.16415   0.56405   0.40078   0.00000  Uiso   1.00
F273   F     0.01021   0.55498   0.28275   0.00000  Uiso   1.00
F274   F     0.32437   0.44754   0.21417   0.00000  Uiso   1.00
H275   H     0.32587   0.52730   0.11730   0.00000  Uiso   1.00
H276   H     0.00748   0.52461   0.40520   0.00000  Uiso   1.00
H277   H     0.31895   0.54350   0.36014   0.00000  Uiso   1.00
H278   H     0.29935   0.45088   0.35391   0.00000  Uiso   1.00
H279   H     0.26047   0.44286   0.41117   0.00000  Uiso   1.00
H280   H     0.22366   0.46482   0.37382   0.00000  Uiso   1.00
H281   H     0.18269   0.64357   0.33223   0.00000  Uiso   1.00
H282   H     0.20831   0.37975   0.33655   0.00000  Uiso   1.00
H283   H     0.32179   0.36628   0.31672   0.00000  Uiso   1.00
H284   H     0.27378   0.33894   0.36803   0.00000  Uiso   1.00
H285   H     0.28950   0.63032   0.32031   0.00000  Uiso   1.00
H286   H     0.04163   0.41282   0.36724   0.00000  Uiso   1.00
H287   H     0.16177   0.63835   0.17000   0.00000  Uiso   1.00
H288   H     0.11362   0.35190   0.16929   0.00000  Uiso   1.00
H289   H     0.08261   0.60117   0.12926   0.00000  Uiso   1.00
H290   H     0.06637   0.56626   0.17887   0.00000  Uiso   1.00
H291   H     0.01971   0.61257   0.17517   0.00000  Uiso   1.00
H292   H     0.00584   0.38982   0.44364   0.00000  Uiso   1.00
H293   H     0.02536   0.54867   0.04007   0.00000  Uiso   1.00
H294   H     0.12281   0.36803   0.08612   0.00000  Uiso   1.00
H295   H     0.09041   0.35734   0.03919   0.00000  Uiso   1.00
H296   H     0.31467   0.35619   0.09142   0.00000  Uiso   1.00
H297   H     0.01785   0.63703   0.09686   0.00000  Uiso   1.00
H298   H     0.01874   0.35826   0.13584   0.00000  Uiso   1.00
N299   N     0.31506   0.51401   0.26212   0.00000  Uiso   1.00
N300   N     0.01827   0.48599   0.23788   0.00000  Uiso   1.00
O301   O     0.12815   0.57142   0.24686   0.00000  Uiso   1.00
O302   O     0.25724   0.55195   0.41798   0.00000  Uiso   1.00
O303   O     0.23561   0.35070   0.27408   0.00000  Uiso   1.00
O304   O     0.09587   0.64910   0.22840   0.00000  Uiso   1.00
O305   O     0.20518   0.42858   0.25314   0.00000  Uiso   1.00
O306   O     0.22829   0.58086   0.25502   0.00000  Uiso   1.00
O307   O     0.10504   0.41914   0.24497   0.00000  Uiso   1.00
O308   O     0.08851   0.49263   0.30854   0.00000  Uiso   1.00
O309   O     0.24482   0.50737   0.19145   0.00000  Uiso   1.00
O310   O     0.18866   0.50207   0.31671   0.00000  Uiso   1.00
O311   O     0.14468   0.49793   0.18329   0.00000  Uiso   1.00
O312   O     0.08538   0.42925   0.07574   0.00000  Uiso   1.00
C313   C     0.51432   0.59972   0.25208   0.00000  Uiso   1.00
C314   C     0.53814   0.50501   0.16695   0.00000  Uiso   1.00
C315   C     0.43916   0.48385   0.37900   0.00000  Uiso   1.00
C316   C     0.55976   0.51090   0.11927   0.00000  Uiso   1.00
C317   C     0.37652   0.42394   0.43450   0.00000  Uiso   1.00
C318   C     0.64242   0.53492   0.05456   0.00000  Uiso   1.00
C319   C     0.39521   0.43776   0.39117   0.00000  Uiso   1.00
C320   C     0.62382   0.52335   0.09876   0.00000  Uiso   1.00
C321   C     0.46828   0.51368   0.40998   0.00000  Uiso   1.00
C322   C     0.51510   0.50631   0.09393   0.00000  Uiso   1.00
C323   C     0.46239   0.49227   0.45085   0.00000  Uiso   1.00
C324   C     0.48542   0.40024   0.24834   0.00000  Uiso   1.00
C325   C     0.53371   0.50701   0.04822   0.00000  Uiso   1.00
C326   C     0.41013   0.45063   0.46449   0.00000  Uiso   1.00
C327   C     0.59737   0.52832   0.02944   0.00000  Uiso   1.00
C328   C     0.50728   0.50783   0.47735   0.00000  Uiso   1.00
C329   C     0.49044   0.48989   0.02111   0.00000  Uiso   1.00
C330   C     0.41725   0.37490   0.07292   0.00000  Uiso   1.00
C331   C     0.35501   0.34651   0.10099   0.00000  Uiso   1.00
C332   C     0.63322   0.52355   0.39156   0.00000  Uiso   1.00
C333   C     0.60208   0.46710   0.38232   0.00000  Uiso   1.00
C334   C     0.55524   0.34392   0.31969   0.00000  Uiso   1.00
C335   C     0.43408   0.45114   0.03495   0.00000  Uiso   1.00
C336   C     0.61381   0.33613   0.33201   0.00000  Uiso   1.00
C337   C     0.44739   0.64731   0.18237   0.00000  Uiso   1.00
C338   C     0.40098   0.60419   0.16535   0.00000  Uiso   1.00
C339   C     0.57089   0.53465   0.46030   0.00000  Uiso   1.00
C340   C     0.39394   0.43369   0.00693   0.00000  Uiso   1.00
C341   C     0.61476   0.54427   0.48649   0.00000  Uiso   1.00
C342   C     0.51982   0.65527   0.25718   0.00000  Uiso   1.00
C343   C     0.47921   0.34468   0.24430   0.00000  Uiso   1.00
C344   C     0.46190   0.49587   0.33284   0.00000  Uiso   1.00
Cu345  Cu    0.44071   0.49441   0.24516   0.00000  Uiso   1.00
Cu346  Cu    0.55929   0.50559   0.25483   0.00000  Uiso   1.00
F347   F     0.33926   0.39847   0.02097   0.00000  Uiso   1.00
F348   F     0.34061   0.57232   0.47065   0.00000  Uiso   1.00
F349   F     0.45482   0.50912   0.11366   0.00000  Uiso   1.00
F350   F     0.49748   0.56405   0.40078   0.00000  Uiso   1.00
F351   F     0.34355   0.55498   0.28275   0.00000  Uiso   1.00
F352   F     0.65770   0.44754   0.21417   0.00000  Uiso   1.00
H353   H     0.65920   0.52730   0.11730   0.00000  Uiso   1.00
H354   H     0.34082   0.52461   0.40520   0.00000  Uiso   1.00
H355   H     0.65228   0.54350   0.36014   0.00000  Uiso   1.00
H356   H     0.63268   0.45088   0.35391   0.00000  Uiso   1.00
H357   H     0.59380   0.44286   0.41117   0.00000  Uiso   1.00
H358   H     0.55699   0.46482   0.37382   0.00000  Uiso   1.00
H359   H     0.51602   0.64357   0.33223   0.00000  Uiso   1.00
H360   H     0.54164   0.37975   0.33655   0.00000  Uiso   1.00
H361   H     0.65513   0.36628   0.31672   0.00000  Uiso   1.00
H362   H     0.60711   0.33894   0.36803   0.00000  Uiso   1.00
H363   H     0.62283   0.63032   0.32031   0.00000  Uiso   1.00
H364   H     0.37496   0.41282   0.36724   0.00000  Uiso   1.00
H365   H     0.49511   0.63835   0.17000   0.00000  Uiso   1.00
H366   H     0.44696   0.35190   0.16929   0.00000  Uiso   1.00
H367   H     0.41594   0.60117   0.12926   0.00000  Uiso   1.00
H368   H     0.39971   0.56626   0.17887   0.00000  Uiso   1.00
H369   H     0.35304   0.61257   0.17517   0.00000  Uiso   1.00
H370   H     0.33918   0.38982   0.44364   0.00000  Uiso   1.00
H371   H     0.35870   0.54867   0.04007   0.00000  Uiso   1.00
H372   H     0.45615   0.36803   0.08612   0.00000  Uiso   1.00
H373   H     0.42374   0.35734   0.03919   0.00000  Uiso   1.00
H374   H     0.64801   0.35619   0.09142   0.00000  Uiso   1.00
H375   H     0.35119   0.63703   0.09686   0.00000  Uiso   1.00
H376   H     0.35207   0.35826   0.13584   0.00000  Uiso   1.00
N377   N     0.64839   0.51401   0.26212   0.00000  Uiso   1.00
N378   N     0.35161   0.48599   0.23788   0.00000  Uiso   1.00
O379   O     0.46148   0.57142   0.24686   0.00000  Uiso   1.00
O380   O     0.59057   0.55195   0.41798   0.00000  Uiso   1.00
O381   O     0.56894   0.35070   0.27408   0.00000  Uiso   1.00
O382   O     0.42921   0.64910   0.22840   0.00000  Uiso   1.00
O383   O     0.53852   0.42858   0.25314   0.00000  Uiso   1.00
O384   O     0.56163   0.58086   0.25502   0.00000  Uiso   1.00
O385   O     0.43837   0.41914   0.24497   0.00000  Uiso   1.00
O386   O     0.42185   0.49263   0.30854   0.00000  Uiso   1.00
O387   O     0.57815   0.50737   0.19145   0.00000  Uiso   1.00
O388   O     0.52199   0.50207   0.31671   0.00000  Uiso   1.00
O389   O     0.47801   0.49793   0.18329   0.00000  Uiso   1.00
O390   O     0.41871   0.42925   0.07574   0.00000  Uiso   1.00
C391   C     0.84765   0.59972   0.25208   0.00000  Uiso   1.00
C392   C     0.87147   0.50501   0.16695   0.00000  Uiso   1.00
C393   C     0.77250   0.48385   0.37900   0.00000  Uiso   1.00
C394   C     0.89309   0.51090   0.11927   0.00000  Uiso   1.00
C395   C     0.70986   0.42394   0.43450   0.00000  Uiso   1.00
C396   C     0.97576   0.53492   0.05456   0.00000  Uiso   1.00
C397   C     0.72854   0.43776   0.39117   0.00000  Uiso   1.00
C398   C     0.95715   0.52335   0.09876   0.00000  Uiso   1.00
C399   C     0.80161   0.51368   0.40998   0.00000  Uiso   1.00
C400   C     0.84844   0.50631   0.09393   0.00000  Uiso   1.00
C401   C     0.79573   0.49227   0.45085   0.00000  Uiso   1.00
C402   C     0.81875   0.40024   0.24834   0.00000  Uiso   1.00
C403   C     0.86704   0.50701   0.04822   0.00000  Uiso   1.00
C404   C     0.74347   0.45063   0.46449   0.00000  Uiso   1.00
C405   C     0.93070   0.52832   0.02944   0.00000  Uiso   1.00
C406   C     0.84061   0.50783   0.47735   0.00000  Uiso   1.00
C407   C     0.82377   0.48989   0.02111   0.00000  Uiso   1.00
C408   C     0.75059   0.37490   0.07292   0.00000  Uiso   1.00
C409   C     0.68834   0.34651   0.10099   0.00000  Uiso   1.00
C410   C     0.96655   0.52355   0.39156   0.00000  Uiso   1.00
C411   C     0.93541   0.46710   0.38232   0.00000  Uiso   1.00
C412   C     0.88857   0.34392   0.31969   0.00000  Uiso   1.00
C413   C     0.76741   0.45114   0.03495   0.00000  Uiso   1.00
C414   C     0.94714   0.33613   0.33201   0.00000  Uiso   1.00
C415   C     0.78072   0.64731   0.18237   0.00000  Uiso   1.00
C416   C     0.73431   0.60419   0.16535   0.00000  Uiso   1.00
C417   C     0.90422   0.53465   0.46030   0.00000  Uiso   1.00
C418   C     0.72727   0.43369   0.00693   0.00000  Uiso   1.00
C419   C     0.94809   0.54427   0.48649   0.00000  Uiso   1.00
C420   C     0.85315   0.65527   0.25718   0.00000  Uiso   1.00
C421   C     0.81255   0.34468   0.24430   0.00000  Uiso   1.00
C422   C     0.79523   0.49587   0.33284   0.00000  Uiso   1.00
Cu423  Cu    0.77404   0.49441   0.24516   0.00000  Uiso   1.00
Cu424  Cu    0.89263   0.50559   0.25483   0.00000  Uiso   1.00
F425   F     0.67260   0.39847   0.02097   0.00000  Uiso   1.00
F426   F     0.67395   0.57232   0.47065   0.00000  Uiso   1.00
F427   F     0.78816   0.50912   0.11366   0.00000  Uiso   1.00
F428   F     0.83082   0.56405   0.40078   0.00000  Uiso   1.00
F429   F     0.67688   0.55498   0.28275   0.00000  Uiso   1.00
F430   F     0.99104   0.44754   0.21417   0.00000  Uiso   1.00
H431   H     0.99254   0.52730   0.11730   0.00000  Uiso   1.00
H432   H     0.67415   0.52461   0.40520   0.00000  Uiso   1.00
H433   H     0.98561   0.54350   0.36014   0.00000  Uiso   1.00
H434   H     0.96601   0.45088   0.35391   0.00000  Uiso   1.00
H435   H     0.92713   0.44286   0.41117   0.00000  Uiso   1.00
H436   H     0.89032   0.46482   0.37382   0.00000  Uiso   1.00
H437   H     0.84936   0.64357   0.33223   0.00000  Uiso   1.00
H438   H     0.87498   0.37975   0.33655   0.00000  Uiso   1.00
H439   H     0.98846   0.36628   0.31672   0.00000  Uiso   1.00
H440   H     0.94044   0.33894   0.36803   0.00000  Uiso   1.00
H441   H     0.95616   0.63032   0.32031   0.00000  Uiso   1.00
H442   H     0.70830   0.41282   0.36724   0.00000  Uiso   1.00
H443   H     0.82844   0.63835   0.17000   0.00000  Uiso   1.00
H444   H     0.78029   0.35190   0.16929   0.00000  Uiso   1.00
H445   H     0.74927   0.60117   0.12926   0.00000  Uiso   1.00
H446   H     0.73304   0.56626   0.17887   0.00000  Uiso   1.00
H447   H     0.68637   0.61257   0.17517   0.00000  Uiso   1.00
H448   H     0.67251   0.38982   0.44364   0.00000  Uiso   1.00
H449   H     0.69203   0.54867   0.04007   0.00000  Uiso   1.00
H450   H     0.78948   0.36803   0.08612   0.00000  Uiso   1.00
H451   H     0.75708   0.35734   0.03919   0.00000  Uiso   1.00
H452   H     0.98134   0.35619   0.09142   0.00000  Uiso   1.00
H453   H     0.68452   0.63703   0.09686   0.00000  Uiso   1.00
H454   H     0.68541   0.35826   0.13584   0.00000  Uiso   1.00
N455   N     0.98173   0.51401   0.26212   0.00000  Uiso   1.00
N456   N     0.68494   0.48599   0.23788   0.00000  Uiso   1.00
O457   O     0.79482   0.57142   0.24686   0.00000  Uiso   1.00
O458   O     0.92390   0.55195   0.41798   0.00000  Uiso   1.00
O459   O     0.90227   0.35070   0.27408   0.00000  Uiso   1.00
O460   O     0.76254   0.64910   0.22840   0.00000  Uiso   1.00
O461   O     0.87185   0.42858   0.25314   0.00000  Uiso   1.00
O462   O     0.89496   0.58086   0.25502   0.00000  Uiso   1.00
O463   O     0.77171   0.41914   0.24497   0.00000  Uiso   1.00
O464   O     0.75518   0.49263   0.30854   0.00000  Uiso   1.00
O465   O     0.91149   0.50737   0.19145   0.00000  Uiso   1.00
O466   O     0.85532   0.50207   0.31671   0.00000  Uiso   1.00
O467   O     0.81134   0.49793   0.18329   0.00000  Uiso   1.00
O468   O     0.75205   0.42925   0.07574   0.00000  Uiso   1.00
C469   C     0.18099   0.93305   0.25208   0.00000  Uiso   1.00
C470   C     0.20480   0.83834   0.16695   0.00000  Uiso   1.00
C471   C     0.10583   0.81719   0.37900   0.00000  Uiso   1.00
C472   C     0.22642   0.84423   0.11927   0.00000  Uiso   1.00
C473   C     0.04319   0.75727   0.43450   0.00000  Uiso   1.00
C474   C     0.30909   0.86825   0.05456   0.00000  Uiso   1.00
C475   C     0.06187   0.77109   0.39117   0.00000  Uiso   1.00
C476   C     0.29048   0.85668   0.09876   0.00000  Uiso   1.00
C477   C     0.13495   0.84701   0.40998   0.00000  Uiso   1.00
C478   C     0.18177   0.83965   0.09393   0.00000  Uiso   1.00
C479   C     0.12906   0.82560   0.45085   0.00000  Uiso   1.00
C480   C     0.15208   0.73358   0.24834   0.00000  Uiso   1.00
C481   C     0.20038   0.84035   0.04822   0.00000  Uiso   1.00
C482   C     0.07680   0.78397   0.46449   0.00000  Uiso   1.00
C483   C     0.26403   0.86165   0.02944   0.00000  Uiso   1.00
C484   C     0.17395   0.84117   0.47735   0.00000  Uiso   1.00
C485   C     0.15710   0.82323   0.02111   0.00000  Uiso   1.00
C486   C     0.08392   0.70823   0.07292   0.00000  Uiso   1.00
C487   C     0.02168   0.67985   0.10099   0.00000  Uiso   1.00
C488   C     0.29988   0.85689   0.39156   0.00000  Uiso   1.00
C489   C     0.26875   0.80043   0.38232   0.00000  Uiso   1.00
C490   C     0.22191   0.67726   0.31969   0.00000  Uiso   1.00
C491   C     0.10075   0.78448   0.03495   0.00000  Uiso   1.00
C492   C     0.28048   0.66947   0.33201   0.00000  Uiso   1.00
C493   C     0.11406   0.98065   0.18237   0.00000  Uiso   1.00
C494   C     0.06764   0.93753   0.16535   0.00000  Uiso   1.00
C495   C     0.23756   0.86798   0.46030   0.00000  Uiso   1.00
C496   C     0.06061   0.76703   0.00693   0.00000  Uiso   1.00
C497   C     0.28142   0.87761   0.48649   0.00000  Uiso   1.00
C498   C     0.18649   0.98860   0.25718   0.00000  Uiso   1.00
C499   C     0.14588   0.67801   0.24430   0.00000  Uiso   1.00
C500   C     0.12856   0.82920   0.33284   0.00000  Uiso   1.00
Cu501  Cu    0.10737   0.82775   0.24516   0.00000  Uiso   1.00
Cu502  Cu    0.22596   0.83892   0.25483   0.00000  Uiso   1.00
F503   F     0.00593   0.73180   0.02097   0.00000  Uiso   1.00
F504   F     0.00728   0.90565   0.47065   0.00000  Uiso   1.00
F505   F     0.12149   0.84246   0.11366   0.00000  Uiso   1.00
F506   F     0.16415   0.89738   0.40078   0.00000  Uiso   1.00
F507   F     0.01021   0.88832   0.28275   0.00000  Uiso   1.00
F508   F     0.32437   0.78087   0.21417   0.00000  Uiso   1.00
H509   H     0.32587   0.86064   0.11730   0.00000  Uiso   1.00
H510   H     0.00748   0.85794   0.40520   0.00000  Uiso   1.00
H511   H     0.31895   0.87683   0.36014   0.00000  Uiso   1.00
H512   H     0.29935   0.78422   0.35391   0.00000  Uiso   1.00
H513   H     0.26047   0.77619   0.41117   0.00000  Uiso   1.00
H514   H     0.22366   0.79815   0.37382   0.00000  Uiso   1.00
H515   H     0.18269   0.97690   0.33223   0.00000  Uiso   1.00
H516   H     0.20831   0.71308   0.33655   0.00000  Uiso   1.00
H517   H     0.32179   0.69961   0.31672   0.00000  Uiso   1.00
H518   H     0.27378   0.67227   0.36803   0.00000  Uiso   1.00
H519   H     0.28950   0.96365   0.32031   0.00000  Uiso   1.00
H520   H     0.04163   0.74615   0.36724   0.00000  Uiso   1.00
H521   H     0.16177   0.97168   0.17000   0.00000  Uiso   1.00
H522   H     0.11362   0.68523   0.16929   0.00000  Uiso   1.00
H523   H     0.08261   0.93451   0.12926   0.00000  Uiso   1.00
H524   H     0.06637   0.89959   0.17887   0.00000  Uiso   1.00
H525   H     0.01971   0.94591   0.17517   0.00000  Uiso   1.00
H526   H     0.00584   0.72315   0.44364   0.00000  Uiso   1.00
H527   H     0.02536   0.88201   0.04007   0.00000  Uiso   1.00
H528   H     0.12281   0.70136   0.08612   0.00000  Uiso   1.00
H529   H     0.09041   0.69067   0.03919   0.00000  Uiso   1.00
H530   H     0.31467   0.68953   0.09142   0.00000  Uiso   1.00
H531   H     0.01785   0.97037   0.09686   0.00000  Uiso   1.00
H532   H     0.01874   0.69159   0.13584   0.00000  Uiso   1.00
N533   N     0.31506   0.84735   0.26212   0.00000  Uiso   1.00
N534   N     0.01827   0.81932   0.23788   0.00000  Uiso   1.00
O535   O     0.12815   0.90476   0.24686   0.00000  Uiso   1.00
O536   O     0.25724   0.88529   0.41798   0.00000  Uiso   1.00
O537   O     0.23561   0.68403   0.27408   0.00000  Uiso   1.00
O538   O     0.09587   0.98243   0.22840   0.00000  Uiso   1.00
O539   O     0.20518   0.76191   0.25314   0.00000  Uiso   1.00
O540   O     0.22829   0.91420   0.25502   0.00000  Uiso   1.00
O541   O     0.10504   0.75247   0.24497   0.00000  Uiso   1.00
O542   O     0.08851   0.82597   0.30854   0.00000  Uiso   1.00
O543   O     0.24482   0.84070   0.19145   0.00000  Uiso   1.00
O544   O     0.18866   0.83540   0.31671   0.00000  Uiso   1.00
O545   O     0.14468   0.83126   0.18329   0.00000  Uiso   1.00
O546   O     0.08538   0.76258   0.07574   0.00000  Uiso   1.00
C547   C     0.51432   0.93305   0.25208   0.00000  Uiso   1.00
C548   C     0.53814   0.83834   0.16695   0.00000  Uiso   1.00
C549   C     0.43916   0.81719   0.37900   0.00000  Uiso   1.00
C550   C     0.55976   0.84423   0.11927   0.00000  Uiso   1.00
C551   C     0.37652   0.75727   0.43450   0.00000  Uiso   1.00
C552   C     0.64242   0.86825   0.05456   0.00000  Uiso   1.00
C553   C     0.39521   0.77109   0.39117   0.00000  Uiso   1.00
C554   C     0.62382   0.85668   0.09876   0.00000  Uiso   1.00
C555   C     0.46828   0.84701   0.40998   0.00000  Uiso   1.00
C556   C     0.51510   0.83965   0.09393   0.00000  Uiso   1.00
C557   C     0.46239   0.82560   0.45085   0.00000  Uiso   1.00
C558   C     0.48542   0.73358   0.24834   0.00000  Uiso   1.00
C559   C     0.53371   0.84035   0.04822   0.00000  Uiso   1.00
C560   C     0.41013   0.78397   0.46449   0.00000  Uiso   1.00
C561   C     0.59737   0.86165   0.02944   0.00000  Uiso   1.00
C562   C     0.50728   0.84117   0.47735   0.00000  Uiso   1.00
C563   C     0.49044   0.82323   0.02111   0.00000  Uiso   1.00
C564   C     0.41725   0.70823   0.07292   0.00000  Uiso   1.00
C565   C     0.35501   0.67985   0.10099   0.00000  Uiso   1.00
C566   C     0.63322   0.85689   0.39156   0.00000  Uiso   1.00
C567   C     0.60208   0.80043   0.38232   0.00000  Uiso   1.00
C568   C     0.55524   0.67726   0.31969   0.00000  Uiso   1.00
C569   C     0.43408   0.78448   0.03495   0.00000  Uiso   1.00
C570   C     0.61381   0.66947   0.33201   0.00000  Uiso   1.00
C571   C     0.44739   0.98065   0.18237   0.00000  Uiso   1.00
C572   C     0.40098   0.93753   0.16535   0.00000  Uiso   1.00
C573   C     0.57089   0.86798   0.46030   0.00000  Uiso   1.00
C574   C     0.39394   0.76703   0.00693   0.00000  Uiso   1.00
C575   C     0.61476   0.87761   0.48649   0.00000  Uiso   1.00
C576   C     0.51982   0.98860   0.25718   0.00000  Uiso   1.00
C577   C     0.47921   0.67801   0.24430   0.00000  Uiso   1.00
C578   C     0.46190   0.82920   0.33284   0.00000  Uiso   1.00
Cu579  Cu    0.44071   0.82775   0.24516   0.00000  Uiso   1.00
Cu580  Cu    0.55929   0.83892   0.25483   0.00000  Uiso   1.00
F581   F     0.33926   0.73180   0.02097   0.00000  Uiso   1.00
F582   F     0.34061   0.90565   0.47065   0.00000  Uiso   1.00
F583   F     0.45482   0.84246   0.11366   0.00000  Uiso   1.00
F584   F     0.49748   0.89738   0.40078   0.00000  Uiso   1.00
F585   F     0.34355   0.88832   0.28275   0.00000  Uiso   1.00
F586   F     0.65770   0.78087   0.21417   0.00000  Uiso   1.00
H587   H     0.65920   0.86064   0.11730   0.00000  Uiso   1.00
H588   H     0.34082   0.85794   0.40520   0.00000  Uiso   1.00
H589   H     0.65228   0.87683   0.36014   0.00000  Uiso   1.00
H590   H     0.63268   0.78422   0.35391   0.00000  Uiso   1.00
H591   H     0.59380   0.77619   0.41117   0.00000  Uiso   1.00
H592   H     0.55699   0.79815   0.37382   0.00000  Uiso   1.00
H593   H     0.51602   0.97690   0.33223   0.00000  Uiso   1.00
H594   H     0.54164   0.71308   0.33655   0.00000  Uiso   1.00
H595   H     0.65513   0.69961   0.31672   0.00000  Uiso   1.00
H596   H     0.60711   0.67227   0.36803   0.00000  Uiso   1.00
H597   H     0.62283   0.96365   0.32031   0.00000  Uiso   1.00
H598   H     0.37496   0.74615   0.36724   0.00000  Uiso   1.00
H599   H     0.49511   0.97168   0.17000   0.00000  Uiso   1.00
H600   H     0.44696   0.68523   0.16929   0.00000  Uiso   1.00
H601   H     0.41594   0.93451   0.12926   0.00000  Uiso   1.00
H602   H     0.39971   0.89959   0.17887   0.00000  Uiso   1.00
H603   H     0.35304   0.94591   0.17517   0.00000  Uiso   1.00
H604   H     0.33918   0.72315   0.44364   0.00000  Uiso   1.00
H605   H     0.35870   0.88201   0.04007   0.00000  Uiso   1.00
H606   H     0.45615   0.70136   0.08612   0.00000  Uiso   1.00
H607   H     0.42374   0.69067   0.03919   0.00000  Uiso   1.00
H608   H     0.64801   0.68953   0.09142   0.00000  Uiso   1.00
H609   H     0.35119   0.97037   0.09686   0.00000  Uiso   1.00
H610   H     0.35207   0.69159   0.13584   0.00000  Uiso   1.00
N611   N     0.64839   0.84735   0.26212   0.00000  Uiso   1.00
N612   N     0.35161   0.81932   0.23788   0.00000  Uiso   1.00
O613   O     0.46148   0.90476   0.24686   0.00000  Uiso   1.00
O614   O     0.59057   0.88529   0.41798   0.00000  Uiso   1.00
O615   O     0.56894   0.68403   0.27408   0.00000  Uiso   1.00
O616   O     0.42921   0.98243   0.22840   0.00000  Uiso   1.00
O617   O     0.53852   0.76191   0.25314   0.00000  Uiso   1.00
O618   O     0.56163   0.91420   0.25502   0.00000  Uiso   1.00
O619   O     0.43837   0.75247   0.24497   0.00000  Uiso   1.00
O620   O     0.42185   0.82597   0.30854   0.00000  Uiso   1.00
O621   O     0.57815   0.84070   0.19145   0.00000  Uiso   1.00
O622   O     0.52199   0.83540   0.31671   0.00000  Uiso   1.00
O623   O     0.47801   0.83126   0.18329   0.00000  Uiso   1.00
O624   O     0.41871   0.76258   0.07574   0.00000  Uiso   1.00
C625   C     0.84765   0.93305   0.25208   0.00000  Uiso   1.00
C626   C     0.87147   0.83834   0.16695   0.00000  Uiso   1.00
C627   C     0.77250   0.81719   0.37900   0.00000  Uiso   1.00
C628   C     0.89309   0.84423   0.11927   0.00000  Uiso   1.00
C629   C     0.70986   0.75727   0.43450   0.00000  Uiso   1.00
C630   C     0.97576   0.86825   0.05456   0.00000  Uiso   1.00
C631   C     0.72854   0.77109   0.39117   0.00000  Uiso   1.00
C632   C     0.95715   0.85668   0.09876   0.00000  Uiso   1.00
C633   C     0.80161   0.84701   0.40998   0.00000  Uiso   1.00
C634   C     0.84844   0.83965   0.09393   0.00000  Uiso   1.00
C635   C     0.79573   0.82560   0.45085   0.00000  Uiso   1.00
C636   C     0.81875   0.73358   0.24834   0.00000  Uiso   1.00
C637   C     0.86704   0.84035   0.04822   0.00000  Uiso   1.00
C638   C     0.74347   0.78397   0.46449   0.00000  Uiso   1.00
C639   C     0.93070   0.86165   0.02944   0.00000  Uiso   1.00
C640   C     0.84061   0.84117   0.47735   0.00000  Uiso   1.00
C641   C     0.82377   0.82323   0.02111   0.00000  Uiso   1.00
C642   C     0.75059   0.70823   0.07292   0.00000  Uiso   1.00
C643   C     0.68834   0.67985   0.10099   0.00000  Uiso   1.00
C644   C     0.96655   0.85689   0.39156   0.00000  Uiso   1.00
C645   C     0.93541   0.80043   0.38232   0.00000  Uiso   1.00
C646   C     0.88857   0.67726   0.31969   0.00000  Uiso   1.00
C647   C     0.76741   0.78448   0.03495   0.00000  Uiso   1.00
C648   C     0.94714   0.66947   0.33201   0.00000  Uiso   1.00
C649   C     0.78072   0.98065   0.18237   0.00000  Uiso   1.00
C650   C     0.73431   0.93753   0.16535   0.00000  Uiso   1.00
C651   C     0.90422   0.86798   0.46030   0.00000  Uiso   1.00
C652   C     0.72727   0.76703   0.00693   0.00000  Uiso   1.00
C653   C     0.94809   0.87761   0.48649   0.00000  Uiso   1.00
C654   C     0.85315   0.98860   0.25718   0.00000  Uiso   1.00
C655   C     0.81255   0.67801   0.24430   0.00000  Uiso   1.00
C656   C     0.79523   0.82920   0.33284   0.00000  Uiso   1.00
Cu657  Cu    0.77404   0.82775   0.24516   0.00000  Uiso   1.00
Cu658  Cu    0.89263   0.83892   0.25483   0.00000  Uiso   1.00
F659   F     0.67260   0.73180   0.02097   0.00000  Uiso   1.00
F660   F     0.67395   0.90565   0.47065   0.00000  Uiso   1.00
F661   F     0.78816   0.84246   0.11366   0.00000  Uiso   1.00
F662   F     0.83082   0.89738   0.40078   0.00000  Uiso   1.00
F663   F     0.67688   0.88832   0.28275   0.00000  Uiso   1.00
F664   F     0.99104   0.78087   0.21417   0.00000  Uiso   1.00
H665   H     0.99254   0.86064   0.11730   0.00000  Uiso   1.00
H666   H     0.67415   0.85794   0.40520   0.00000  Uiso   1.00
H667   H     0.98561   0.87683   0.36014   0.00000  Uiso   1.00
H668   H     0.96601   0.78422   0.35391   0.00000  Uiso   1.00
H669   H     0.92713   0.77619   0.41117   0.00000  Uiso   1.00
H670   H     0.89032   0.79815   0.37382   0.00000  Uiso   1.00
H671   H     0.84936   0.97690   0.33223   0.00000  Uiso   1.00
H672   H     0.87498   0.71308   0.33655   0.00000  Uiso   1.00
H673   H     0.98846   0.69961   0.31672   0.00000  Uiso   1.00
H674   H     0.94044   0.67227   0.36803   0.00000  Uiso   1.00
H675   H     0.95616   0.96365   0.32031   0.00000  Uiso   1.00
H676   H     0.70830   0.74615   0.36724   0.00000  Uiso   1.00
H677   H     0.82844   0.97168   0.17000   0.00000  Uiso   1.00
H678   H     0.78029   0.68523   0.16929   0.00000  Uiso   1.00
H679   H     0.74927   0.93451   0.12926   0.00000  Uiso   1.00
H680   H     0.73304   0.89959   0.17887   0.00000  Uiso   1.00
H681   H     0.68637   0.94591   0.17517   0.00000  Uiso   1.00
H682   H     0.67251   0.72315   0.44364   0.00000  Uiso   1.00
H683   H     0.69203   0.88201   0.04007   0.00000  Uiso   1.00
H684   H     0.78948   0.70136   0.08612   0.00000  Uiso   1.00
H685   H     0.75708   0.69067   0.03919   0.00000  Uiso   1.00
H686   H     0.98134   0.68953   0.09142   0.00000  Uiso   1.00
H687   H     0.68452   0.97037   0.09686   0.00000  Uiso   1.00
H688   H     0.68541   0.69159   0.13584   0.00000  Uiso   1.00
N689   N     0.98173   0.84735   0.26212   0.00000  Uiso   1.00
N690   N     0.68494   0.81932   0.23788   0.00000  Uiso   1.00
O691   O     0.79482   0.90476   0.24686   0.00000  Uiso   1.00
O692   O     0.92390   0.88529   0.41798   0.00000  Uiso   1.00
O693   O     0.90227   0.68403   0.27408   0.00000  Uiso   1.00
O694   O     0.76254   0.98243   0.22840   0.00000  Uiso   1.00
O695   O     0.87185   0.76191   0.25314   0.00000  Uiso   1.00
O696   O     0.89496   0.91420   0.25502   0.00000  Uiso   1.00
O697   O     0.77171   0.75247   0.24497   0.00000  Uiso   1.00
O698   O     0.75518   0.82597   0.30854   0.00000  Uiso   1.00
O699   O     0.91149   0.84070   0.19145   0.00000  Uiso   1.00
O700   O     0.85532   0.83540   0.31671   0.00000  Uiso   1.00
O701   O     0.81134   0.83126   0.18329   0.00000  Uiso   1.00
O702   O     0.75205   0.76258   0.07574   0.00000  Uiso   1.00
C703   C     0.18099   0.26638   0.75208   0.00000  Uiso   1.00
C704   C     0.20480   0.17168   0.66695   0.00000  Uiso   1.00
C705   C     0.10583   0.15052   0.87900   0.00000  Uiso   1.00
C706   C     0.22642   0.17756   0.61927   0.00000  Uiso   1.00
C707   C     0.04319   0.09061   0.93450   0.00000  Uiso   1.00
C708   C     0.30909   0.20159   0.55456   0.00000  Uiso   1.00
C709   C     0.06187   0.10443   0.89117   0.00000  Uiso   1.00
C710   C     0.29048   0.19001   0.59876   0.00000  Uiso   1.00
C711   C     0.13495   0.18035   0.90998   0.00000  Uiso   1.00
C712   C     0.18177   0.17298   0.59393   0.00000  Uiso   1.00
C713   C     0.12906   0.15894   0.95085   0.00000  Uiso   1.00
C714   C     0.15208   0.06691   0.74834   0.00000  Uiso   1.00
C715   C     0.20038   0.17368   0.54822   0.00000  Uiso   1.00
C716   C     0.07680   0.11730   0.96449   0.00000  Uiso   1.00
C717   C     0.26403   0.19498   0.52944   0.00000  Uiso   1.00
C718   C     0.17395   0.17450   0.97735   0.00000  Uiso   1.00
C719   C     0.15710   0.15656   0.52111   0.00000  Uiso   1.00
C720   C     0.08392   0.04156   0.57292   0.00000  Uiso   1.00
C721   C     0.02168   0.01318   0.60099   0.00000  Uiso   1.00
C722   C     0.29988   0.19022   0.89156   0.00000  Uiso   1.00
C723   C     0.26875   0.13377   0.88232   0.00000  Uiso   1.00
C724   C     0.22191   0.01059   0.81969   0.00000  Uiso   1.00
C725   C     0.10075   0.11781   0.53495   0.00000  Uiso   1.00
C726   C     0.28048   0.00280   0.83201   0.00000  Uiso   1.00
C727   C     0.11406   0.31398   0.68237   0.00000  Uiso   1.00
C728   C     0.06764   0.27086   0.66535   0.00000  Uiso   1.00
C729   C     0.23756   0.20131   0.96030   0.00000  Uiso   1.00
C730   C     0.06061   0.10036   0.50693   0.00000  Uiso   1.00
C731   C     0.28142   0.21094   0.98649   0.00000  Uiso   1.00
C732   C     0.18649   0.32193   0.75718   0.00000  Uiso   1.00
C733   C     0.14588   0.01134   0.74430   0.00000  Uiso   1.00
C734   C     0.12856   0.16253   0.83284   0.00000  Uiso   1.00
Cu735  Cu    0.10737   0.16108   0.74516   0.00000  Uiso   1.00
Cu736  Cu    0.22596   0.17225   0.75483   0.00000  Uiso   1.00
F737   F     0.00593   0.06513   0.52097   0.00000  Uiso   1.00
F738   F     0.00728   0.23898   0.97065   0.00000  Uiso   1.00
F739   F     0.12149   0.17579   0.61366   0.00000  Uiso   1.00
F740   F     0.16415   0.23071   0.90078   0.00000  Uiso   1.00
F741   F     0.01021   0.22165   0.78275   0.00000  Uiso   1.00
F742   F     0.32437   0.11421   0.71417   0.00000  Uiso   1.00
H743   H     0.32587   0.19397   0.61730   0.00000  Uiso   1.00
H744   H     0.00748   0.19127   0.90520   0.00000  Uiso   1.00
H745   H     0.31895   0.21016   0.86014   0.00000  Uiso   1.00
H746   H     0.29935   0.11755   0.85391   0.00000  Uiso   1.00
H747   H     0.26047   0.10952   0.91117   0.00000  Uiso   1.00
H748   H     0.22366   0.13149   0.87382   0.00000  Uiso   1.00
H749   H     0.18269   0.31024   0.83223   0.00000  Uiso   1.00
H750   H     0.20831   0.04642   0.83655   0.00000  Uiso   1.00
H751   H     0.32179   0.03294   0.81672   0.00000  Uiso   1.00
H752   H     0.27378   0.00561   0.86803   0.00000  Uiso   1.00
H753   H     0.28950   0.29698   0.82031   0.00000  Uiso   1.00
H754   H     0.04163   0.07949   0.86724   0.00000  Uiso   1.00
H755   H     0.16177   0.30501   0.67000   0.00000  Uiso   1.00
H756   H     0.11362   0.01857   0.66929   0.00000  Uiso   1.00
H757   H     0.08261   0.26784   0.62926   0.00000  Uiso   1.00
H758   H     0.06637   0.23292   0.67887   0.00000  Uiso   1.00
H759   H     0.01971   0.27924   0.67517   0.00000  Uiso   1.00
H760   H     0.00584   0.05649   0.94364   0.00000  Uiso   1.00
H761   H     0.02536   0.21534   0.54007   0.00000  Uiso   1.00
H762   H     0.12281   0.03469   0.58612   0.00000  Uiso   1.00
H763   H     0.09041   0.02401   0.53919   0.00000  Uiso   1.00
H764   H     0.31467   0.02286   0.59142   0.00000  Uiso   1.00
H765   H     0.01785   0.30370   0.59686   0.00000  Uiso   1.00
H766   H     0.01874   0.02493   0.63584   0.00000  Uiso   1.00
N767   N     0.31506   0.18068   0.76212   0.00000  Uiso   1.00
N768   N     0.01827   0.15265   0.73788   0.00000  Uiso   1.00
O769   O     0.12815   0.23809   0.74686   0.00000  Uiso   1.00
O770   O     0.25724   0.21862   0.91798   0.00000  Uiso   1.00
O771   O     0.23561   0.01736   0.77408   0.00000  Uiso   1.00
O772   O     0.09587   0.31576   0.72840   0.00000  Uiso   1.00
O773   O     0.20518   0.09524   0.75314   0.00000  Uiso   1.00
O774   O     0.22829   0.24753   0.75502   0.00000  Uiso   1.00
O775   O     0.10504   0.08580   0.74497   0.00000  Uiso   1.00
O776   O     0.08851   0.15930   0.80854   0.00000  Uiso   1.00
O777   O     0.24482   0.17403   0.69145   0.00000  Uiso   1.00
O778   O     0.18866   0.16874   0.81671   0.00000  Uiso   1.00
O779   O     0.14468   0.16460   0.68329   0.00000  Uiso   1.00
O780   O     0.08538   0.09591   0.57574   0.00000  Uiso   1.00
C781   C     0.51432   0.26638   0.75208   0.00000  Uiso   1.00
C782   C     0.53814   0.17168   0.66695   0.00000  Uiso   1.00
C783   C     0.43916   0.15052   0.87900   0.00000  Uiso   1.00
C784   C     0.55976   0.17756   0.61927   0.00000  Uiso   1.00
C785   C     0.37652   0.09061   0.93450   0.00000  Uiso   1.00
C786   C     0.64242   0.20159   0.55456   0.00000  Uiso   1.00
C787   C     0.39521   0.10443   0.89117   0.00000  Uiso   1.00
C788   C     0.62382   0.19001   0.59876   0.00000  Uiso   1.00
C789   C     0.46828   0.18035   0.90998   0.00000  Uiso   1.00
C790   C     0.51510   0.17298   0.59393   0.00000  Uiso   1.00
C791   C     0.46239   0.15894   0.95085   0.00000  Uiso   1.00
C792   C     0.48542   0.06691   0.74834   0.00000  Uiso   1.00
C793   C     0.53371   0.17368   0.54822   0.00000  Uiso   1.00
C794   C     0.41013   0.11730   0.96449   0.00000  Uiso   1.00
C795   C     0.59737   0.19498   0.52944   0.00000  Uiso   1.00
C796   C     0.50728   0.17450   0.97735   0.00000  Uiso   1.00
C797   C     0.49044   0.15656   0.52111   0.00000  Uiso   1.00
C798   C     0.41725   0.04156   0.57292   0.00000  Uiso   1.00
C799   C     0.35501   0.01318   0.60099   0.00000  Uiso   1.00
C800   C     0.63322   0.19022   0.89156   0.00000  Uiso   1.00
C801   C     0.60208   0.13377   0.88232   0.00000  Uiso   1.00
C802   C     0.55524   0.01059   0.81969   0.00000  Uiso   1.00
C803   C     0.43408   0.11781   0.53495   0.00000  Uiso   1.00
C804   C     0.61381   0.00280   0.83201   0.00000  Uiso   1.00
C805   C     0.44739   0.31398   0.68237   0.00000  Uiso   1.00
C806   C     0.40098   0.27086   0.66535   0.00000  Uiso   1.00
C807   C     0.57089   0.20131   0.96030   0.00000  Uiso   1.00
C808   C     0.39394   0.10036   0.50693   0.00000  Uiso   1.00
C809   C     0.61476   0.21094   0.98649   0.00000  Uiso   1.00
C810   C     0.51982   0.32193   0.75718   0.00000  Uiso   1.00
C811   C     0.47921   0.01134   0.74430   0.00000  Uiso   1.00
C812   C     0.46190   0.16253   0.83284   0.00000  Uiso   1.00
Cu813  Cu    0.44071   0.16108   0.74516   0.00000  Uiso   1.00
Cu814  Cu    0.55929   0.17225   0.75483   0.00000  Uiso   1.00
F815   F     0.33926   0.06513   0.52097   0.00000  Uiso   1.00
F816   F     0.34061   0.23898   0.97065   0.00000  Uiso   1.00
F817   F     0.45482   0.17579   0.61366   0.00000  Uiso   1.00
F818   F     0.49748   0.23071   0.90078   0.00000  Uiso   1.00
F819   F     0.34355   0.22165   0.78275   0.00000  Uiso   1.00
F820   F     0.65770   0.11421   0.71417   0.00000  Uiso   1.00
H821   H     0.65920   0.19397   0.61730   0.00000  Uiso   1.00
H822   H     0.34082   0.19127   0.90520   0.00000  Uiso   1.00
H823   H     0.65228   0.21016   0.86014   0.00000  Uiso   1.00
H824   H     0.63268   0.11755   0.85391   0.00000  Uiso   1.00
H825   H     0.59380   0.10952   0.91117   0.00000  Uiso   1.00
H826   H     0.55699   0.13149   0.87382   0.00000  Uiso   1.00
H827   H     0.51602   0.31024   0.83223   0.00000  Uiso   1.00
H828   H     0.54164   0.04642   0.83655   0.00000  Uiso   1.00
H829   H     0.65513   0.03294   0.81672   0.00000  Uiso   1.00
H830   H     0.60711   0.00561   0.86803   0.00000  Uiso   1.00
H831   H     0.62283   0.29698   0.82031   0.00000  Uiso   1.00
H832   H     0.37496   0.07949   0.86724   0.00000  Uiso   1.00
H833   H     0.49511   0.30501   0.67000   0.00000  Uiso   1.00
H834   H     0.44696   0.01857   0.66929   0.00000  Uiso   1.00
H835   H     0.41594   0.26784   0.62926   0.00000  Uiso   1.00
H836   H     0.39971   0.23292   0.67887   0.00000  Uiso   1.00
H837   H     0.35304   0.27924   0.67517   0.00000  Uiso   1.00
H838   H     0.33918   0.05649   0.94364   0.00000  Uiso   1.00
H839   H     0.35870   0.21534   0.54007   0.00000  Uiso   1.00
H840   H     0.45615   0.03469   0.58612   0.00000  Uiso   1.00
H841   H     0.42374   0.02401   0.53919   0.00000  Uiso   1.00
H842   H     0.64801   0.02286   0.59142   0.00000  Uiso   1.00
H843   H     0.35119   0.30370   0.59686   0.00000  Uiso   1.00
H844   H     0.35207   0.02493   0.63584   0.00000  Uiso   1.00
N845   N     0.64839   0.18068   0.76212   0.00000  Uiso   1.00
N846   N     0.35161   0.15265   0.73788   0.00000  Uiso   1.00
O847   O     0.46148   0.23809   0.74686   0.00000  Uiso   1.00
O848   O     0.59057   0.21862   0.91798   0.00000  Uiso   1.00
O849   O     0.56894   0.01736   0.77408   0.00000  Uiso   1.00
O850   O     0.42921   0.31576   0.72840   0.00000  Uiso   1.00
O851   O     0.53852   0.09524   0.75314   0.00000  Uiso   1.00
O852   O     0.56163   0.24753   0.75502   0.00000  Uiso   1.00
O853   O     0.43837   0.08580   0.74497   0.00000  Uiso   1.00
O854   O     0.42185   0.15930   0.80854   0.00000  Uiso   1.00
O855   O     0.57815   0.17403   0.69145   0.00000  Uiso   1.00
O856   O     0.52199   0.16874   0.81671   0.00000  Uiso   1.00
O857   O     0.47801   0.16460   0.68329   0.00000  Uiso   1.00
O858   O     0.41871   0.09591   0.57574   0.00000  Uiso   1.00
C859   C     0.84765   0.26638   0.75208   0.00000  Uiso   1.00
C860   C     0.87147   0.17168   0.66695   0.00000  Uiso   1.00
C861   C     0.77250   0.15052   0.87900   0.00000  Uiso   1.00
C862   C     0.89309   0.17756   0.61927   0.00000  Uiso   1.00
C863   C     0.70986   0.09061   0.93450   0.00000  Uiso   1.00
C864   C     0.97576   0.20159   0.55456   0.00000  Uiso   1.00
C865   C     0.72854   0.10443   0.89117   0.00000  Uiso   1.00
C866   C     0.95715   0.19001   0.59876   0.00000  Uiso   1.00
C867   C     0.80161   0.18035   0.90998   0.00000  Uiso   1.00
C868   C     0.84844   0.17298   0.59393   0.00000  Uiso   1.00
C869   C     0.79573   0.15894   0.95085   0.00000  Uiso   1.00
C870   C     0.81875   0.06691   0.74834   0.00000  Uiso   1.00
C871   C     0.86704   0.17368   0.54822   0.00000  Uiso   1.00
C872   C     0.74347   0.11730   0.96449   0.00000  Uiso   1.00
C873   C     0.93070   0.19498   0.52944   0.00000  Uiso   1.00
C874   C     0.84061   0.17450   0.97735   0.00000  Uiso   1.00
C875   C     0.82377   0.15656   0.52111   0.00000  Uiso   1.00
C876   C     0.75059   0.04156   0.57292   0.00000  Uiso   1.00
C877   C     0.68834   0.01318   0.60099   0.00000  Uiso   1.00
C878   C     0.96655   0.19022   0.89156   0.00000  Uiso   1.00
C879   C     0.93541   0.13377   0.88232   0.00000  Uiso   1.00
C880   C     0.88857   0.01059   0.81969   0.00000  Uiso   1.00
C881   C     0.76741   0.11781   0.53495   0.00000  Uiso   1.00
C882   C     0.94714   0.00280   0.83201   0.00000  Uiso   1.00
C883   C     0.78072   0.31398   0.68237   0.00000  Uiso   1.00
C884   C     0.73431   0.27086   0.66535   0.00000  Uiso   1.00
C885   C     0.90422   0.20131   0.96030   0.00000  Uiso   1.00
C886   C     0.72727   0.10036   0.50693   0.00000  Uiso   1.00
C887   C     0.94809   0.21094   0.98649   0.00000  Uiso   1.00
C888   C     0.85315   0.32193   0.75718   0.00000  Uiso   1.00
C889   C     0.81255   0.01134   0.74430   0.00000  Uiso   1.00
C890   C     0.79523   0.16253   0.83284   0.00000  Uiso   1.00
Cu891  Cu    0.77404   0.16108   0.74516   0.00000  Uiso   1.00
Cu892  Cu    0.89263   0.17225   0.75483   0.00000  Uiso   1.00
F893   F     0.67260   0.06513   0.52097   0.00000  Uiso   1.00
F894   F     0.67395   0.23898   0.97065   0.00000  Uiso   1.00
F895   F     0.78816   0.17579   0.61366   0.00000  Uiso   1.00
F896   F     0.83082   0.23071   0.90078   0.00000  Uiso   1.00
F897   F     0.67688   0.22165   0.78275   0.00000  Uiso   1.00
F898   F     0.99104   0.11421   0.71417   0.00000  Uiso   1.00
H899   H     0.99254   0.19397   0.61730   0.00000  Uiso   1.00
H900   H     0.67415   0.19127   0.90520   0.00000  Uiso   1.00
H901   H     0.98561   0.21016   0.86014   0.00000  Uiso   1.00
H902   H     0.96601   0.11755   0.85391   0.00000  Uiso   1.00
H903   H     0.92713   0.10952   0.91117   0.00000  Uiso   1.00
H904   H     0.89032   0.13149   0.87382   0.00000  Uiso   1.00
H905   H     0.84936   0.31024   0.83223   0.00000  Uiso   1.00
H906   H     0.87498   0.04642   0.83655   0.00000  Uiso   1.00
H907   H     0.98846   0.03294   0.81672   0.00000  Uiso   1.00
H908   H     0.94044   0.00561   0.86803   0.00000  Uiso   1.00
H909   H     0.95616   0.29698   0.82031   0.00000  Uiso   1.00
H910   H     0.70830   0.07949   0.86724   0.00000  Uiso   1.00
H911   H     0.82844   0.30501   0.67000   0.00000  Uiso   1.00
H912   H     0.78029   0.01857   0.66929   0.00000  Uiso   1.00
H913   H     0.74927   0.26784   0.62926   0.00000  Uiso   1.00
H914   H     0.73304   0.23292   0.67887   0.00000  Uiso   1.00
H915   H     0.68637   0.27924   0.67517   0.00000  Uiso   1.00
H916   H     0.67251   0.05649   0.94364   0.00000  Uiso   1.00
H917   H     0.69203   0.21534   0.54007   0.00000  Uiso   1.00
H918   H     0.78948   0.03469   0.58612   0.00000  Uiso   1.00
H919   H     0.75708   0.02401   0.53919   0.00000  Uiso   1.00
H920   H     0.98134   0.02286   0.59142   0.00000  Uiso   1.00
H921   H     0.68452   0.30370   0.59686   0.00000  Uiso   1.00
H922   H     0.68541   0.02493   0.63584   0.00000  Uiso   1.00
N923   N     0.98173   0.18068   0.76212   0.00000  Uiso   1.00
N924   N     0.68494   0.15265   0.73788   0.00000  Uiso   1.00
O925   O     0.79482   0.23809   0.74686   0.00000  Uiso   1.00
O926   O     0.92390   0.21862   0.91798   0.00000  Uiso   1.00
O927   O     0.90227   0.01736   0.77408   0.00000  Uiso   1.00
O928   O     0.76254   0.31576   0.72840   0.00000  Uiso   1.00
O929   O     0.87185   0.09524   0.75314   0.00000  Uiso   1.00
O930   O     0.89496   0.24753   0.75502   0.00000  Uiso   1.00
O931   O     0.77171   0.08580   0.74497   0.00000  Uiso   1.00
O932   O     0.75518   0.15930   0.80854   0.00000  Uiso   1.00
O933   O     0.91149   0.17403   0.69145   0.00000  Uiso   1.00
O934   O     0.85532   0.16874   0.81671   0.00000  Uiso   1.00
O935   O     0.81134   0.16460   0.68329   0.00000  Uiso   1.00
O936   O     0.75205   0.09591   0.57574   0.00000  Uiso   1.00
C937   C     0.18099   0.59972   0.75208   0.00000  Uiso   1.00
C938   C     0.20480   0.50501   0.66695   0.00000  Uiso   1.00
C939   C     0.10583   0.48385   0.87900   0.00000  Uiso   1.00
C940   C     0.22642   0.51090   0.61927   0.00000  Uiso   1.00
C941   C     0.04319   0.42394   0.93450   0.00000  Uiso   1.00
C942   C     0.30909   0.53492   0.55456   0.00000  Uiso   1.00
C943   C     0.06187   0.43776   0.89117   0.00000  Uiso   1.00
C944   C     0.29048   0.52335   0.59876   0.00000  Uiso   1.00
C945   C     0.13495   0.51368   0.90998   0.00000  Uiso   1.00
C946   C     0.18177   0.50631   0.59393   0.00000  Uiso   1.00
C947   C     0.12906   0.49227   0.95085   0.00000  Uiso   1.00
C948   C     0.15208   0.40024   0.74834   0.00000  Uiso   1.00
C949   C     0.20038   0.50701   0.54822   0.00000  Uiso   1.00
C950   C     0.07680   0.45063   0.96449   0.00000  Uiso   1.00
C951   C     0.26403   0.52832   0.52944   0.00000  Uiso   1.00
C952   C     0.17395   0.50783   0.97735   0.00000  Uiso   1.00
C953   C     0.15710   0.48989   0.52111   0.00000  Uiso   1.00
C954   C     0.08392   0.37490   0.57292   0.00000  Uiso   1.00
C955   C     0.02168   0.34651   0.60099   0.00000  Uiso   1.00
C956   C     0.29988   0.52355   0.89156   0.00000  Uiso   1.00
C957   C     0.26875   0.46710   0.88232   0.00000  Uiso   1.00
C958   C     0.22191   0.34392   0.81969   0.00000  Uiso   1.00
C959   C     0.10075   0.45114   0.53495   0.00000  Uiso   1.00
C960   C     0.28048   0.33613   0.83201   0.00000  Uiso   1.00
C961   C     0.11406   0.64731   0.68237   0.00000  Uiso   1.00
C962   C     0.06764   0.60419   0.66535   0.00000  Uiso   1.00
C963   C     0.23756   0.53465   0.96030   0.00000  Uiso   1.00
C964   C     0.06061   0.43369   0.50693   0.00000  Uiso   1.00
C965   C     0.28142   0.54427   0.98649   0.00000  Uiso   1.00
C966   C     0.18649   0.65527   0.75718   0.00000  Uiso   1.00
C967   C     0.14588   0.34468   0.74430   0.00000  Uiso   1.00
C968   C     0.12856   0.49587   0.83284   0.00000  Uiso   1.00
Cu969  Cu    0.10737   0.49441   0.74516   0.00000  Uiso   1.00
Cu970  Cu    0.22596   0.50559   0.75483   0.00000  Uiso   1.00
F971   F     0.00593   0.39847   0.52097   0.00000  Uiso   1.00
F972   F     0.00728   0.57232   0.97065   0.00000  Uiso   1.00
F973   F     0.12149   0.50912   0.61366   0.00000  Uiso   1.00
F974   F     0.16415   0.56405   0.90078   0.00000  Uiso   1.00
F975   F     0.01021   0.55498   0.78275   0.00000  Uiso   1.00
F976   F     0.32437   0.44754   0.71417   0.00000  Uiso   1.00
H977   H     0.32587   0.52730   0.61730   0.00000  Uiso   1.00
H978   H     0.00748   0.52461   0.90520   0.00000  Uiso   1.00
H979   H     0.31895   0.54350   0.86014   0.00000  Uiso   1.00
H980   H     0.29935   0.45088   0.85391   0.00000  Uiso   1.00
H981   H     0.26047   0.44286   0.91117   0.00000  Uiso   1.00
H982   H     0.22366   0.46482   0.87382   0.00000  Uiso   1.00
H983   H     0.18269   0.64357   0.83223   0.00000  Uiso   1.00
H984   H     0.20831   0.37975   0.83655   0.00000  Uiso   1.00
H985   H     0.32179   0.36628   0.81672   0.00000  Uiso   1.00
H986   H     0.27378   0.33894   0.86803   0.00000  Uiso   1.00
H987   H     0.28950   0.63032   0.82031   0.00000  Uiso   1.00
H988   H     0.04163   0.41282   0.86724   0.00000  Uiso   1.00
H989   H     0.16177   0.63835   0.67000   0.00000  Uiso   1.00
H990   H     0.11362   0.35190   0.66929   0.00000  Uiso   1.00
H991   H     0.08261   0.60117   0.62926   0.00000  Uiso   1.00
H992   H     0.06637   0.56626   0.67887   0.00000  Uiso   1.00
H993   H     0.01971   0.61257   0.67517   0.00000  Uiso   1.00
H994   H     0.00584   0.38982   0.94364   0.00000  Uiso   1.00
H995   H     0.02536   0.54867   0.54007   0.00000  Uiso   1.00
H996   H     0.12281   0.36803   0.58612   0.00000  Uiso   1.00
H997   H     0.09041   0.35734   0.53919   0.00000  Uiso   1.00
H998   H     0.31467   0.35619   0.59142   0.00000  Uiso   1.00
H999   H     0.01785   0.63703   0.59686   0.00000  Uiso   1.00
H1000  H     0.01874   0.35826   0.63584   0.00000  Uiso   1.00
N1001  N     0.31506   0.51401   0.76212   0.00000  Uiso   1.00
N1002  N     0.01827   0.48599   0.73788   0.00000  Uiso   1.00
O1003  O     0.12815   0.57142   0.74686   0.00000  Uiso   1.00
O1004  O     0.25724   0.55195   0.91798   0.00000  Uiso   1.00
O1005  O     0.23561   0.35070   0.77408   0.00000  Uiso   1.00
O1006  O     0.09587   0.64910   0.72840   0.00000  Uiso   1.00
O1007  O     0.20518   0.42858   0.75314   0.00000  Uiso   1.00
O1008  O     0.22829   0.58086   0.75502   0.00000  Uiso   1.00
O1009  O     0.10504   0.41914   0.74497   0.00000  Uiso   1.00
O1010  O     0.08851   0.49263   0.80854   0.00000  Uiso   1.00
O1011  O     0.24482   0.50737   0.69145   0.00000  Uiso   1.00
O1012  O     0.18866   0.50207   0.81671   0.00000  Uiso   1.00
O1013  O     0.14468   0.49793   0.68329   0.00000  Uiso   1.00
O1014  O     0.08538   0.42925   0.57574   0.00000  Uiso   1.00
C1015  C     0.51432   0.59972   0.75208   0.00000  Uiso   1.00
C1016  C     0.53814   0.50501   0.66695   0.00000  Uiso   1.00
C1017  C     0.43916   0.48385   0.87900   0.00000  Uiso   1.00
C1018  C     0.55976   0.51090   0.61927   0.00000  Uiso   1.00
C1019  C     0.37652   0.42394   0.93450   0.00000  Uiso   1.00
C1020  C     0.64242   0.53492   0.55456   0.00000  Uiso   1.00
C1021  C     0.39521   0.43776   0.89117   0.00000  Uiso   1.00
C1022  C     0.62382   0.52335   0.59876   0.00000  Uiso   1.00
C1023  C     0.46828   0.51368   0.90998   0.00000  Uiso   1.00
C1024  C     0.51510   0.50631   0.59393   0.00000  Uiso   1.00
C1025  C     0.46239   0.49227   0.95085   0.00000  Uiso   1.00
C1026  C     0.48542   0.40024   0.74834   0.00000  Uiso   1.00
C1027  C     0.53371   0.50701   0.54822   0.00000  Uiso   1.00
C1028  C     0.41013   0.45063   0.96449   0.00000  Uiso   1.00
C1029  C     0.59737   0.52832   0.52944   0.00000  Uiso   1.00
C1030  C     0.50728   0.50783   0.97735   0.00000  Uiso   1.00
C1031  C     0.49044   0.48989   0.52111   0.00000  Uiso   1.00
C1032  C     0.41725   0.37490   0.57292   0.00000  Uiso   1.00
C1033  C     0.35501   0.34651   0.60099   0.00000  Uiso   1.00
C1034  C     0.63322   0.52355   0.89156   0.00000  Uiso   1.00
C1035  C     0.60208   0.46710   0.88232   0.00000  Uiso   1.00
C1036  C     0.55524   0.34392   0.81969   0.00000  Uiso   1.00
C1037  C     0.43408   0.45114   0.53495   0.00000  Uiso   1.00
C1038  C     0.61381   0.33613   0.83201   0.00000  Uiso   1.00
C1039  C     0.44739   0.64731   0.68237   0.00000  Uiso   1.00
C1040  C     0.40098   0.60419   0.66535   0.00000  Uiso   1.00
C1041  C     0.57089   0.53465   0.96030   0.00000  Uiso   1.00
C1042  C     0.39394   0.43369   0.50693   0.00000  Uiso   1.00
C1043  C     0.61476   0.54427   0.98649   0.00000  Uiso   1.00
C1044  C     0.51982   0.65527   0.75718   0.00000  Uiso   1.00
C1045  C     0.47921   0.34468   0.74430   0.00000  Uiso   1.00
C1046  C     0.46190   0.49587   0.83284   0.00000  Uiso   1.00
Cu1047 Cu    0.44071   0.49441   0.74516   0.00000  Uiso   1.00
Cu1048 Cu    0.55929   0.50559   0.75483   0.00000  Uiso   1.00
F1049  F     0.33926   0.39847   0.52097   0.00000  Uiso   1.00
F1050  F     0.34061   0.57232   0.97065   0.00000  Uiso   1.00
F1051  F     0.45482   0.50912   0.61366   0.00000  Uiso   1.00
F1052  F     0.49748   0.56405   0.90078   0.00000  Uiso   1.00
F1053  F     0.34355   0.55498   0.78275   0.00000  Uiso   1.00
F1054  F     0.65770   0.44754   0.71417   0.00000  Uiso   1.00
H1055  H     0.65920   0.52730   0.61730   0.00000  Uiso   1.00
H1056  H     0.34082   0.52461   0.90520   0.00000  Uiso   1.00
H1057  H     0.65228   0.54350   0.86014   0.00000  Uiso   1.00
H1058  H     0.63268   0.45088   0.85391   0.00000  Uiso   1.00
H1059  H     0.59380   0.44286   0.91117   0.00000  Uiso   1.00
H1060  H     0.55699   0.46482   0.87382   0.00000  Uiso   1.00
H1061  H     0.51602   0.64357   0.83223   0.00000  Uiso   1.00
H1062  H     0.54164   0.37975   0.83655   0.00000  Uiso   1.00
H1063  H     0.65513   0.36628   0.81672   0.00000  Uiso   1.00
H1064  H     0.60711   0.33894   0.86803   0.00000  Uiso   1.00
H1065  H     0.62283   0.63032   0.82031   0.00000  Uiso   1.00
H1066  H     0.37496   0.41282   0.86724   0.00000  Uiso   1.00
H1067  H     0.49511   0.63835   0.67000   0.00000  Uiso   1.00
H1068  H     0.44696   0.35190   0.66929   0.00000  Uiso   1.00
H1069  H     0.41594   0.60117   0.62926   0.00000  Uiso   1.00
H1070  H     0.39971   0.56626   0.67887   0.00000  Uiso   1.00
H1071  H     0.35304   0.61257   0.67517   0.00000  Uiso   1.00
H1072  H     0.33918   0.38982   0.94364   0.00000  Uiso   1.00
H1073  H     0.35870   0.54867   0.54007   0.00000  Uiso   1.00
H1074  H     0.45615   0.36803   0.58612   0.00000  Uiso   1.00
H1075  H     0.42374   0.35734   0.53919   0.00000  Uiso   1.00
H1076  H     0.64801   0.35619   0.59142   0.00000  Uiso   1.00
H1077  H     0.35119   0.63703   0.59686   0.00000  Uiso   1.00
H1078  H     0.35207   0.35826   0.63584   0.00000  Uiso   1.00
N1079  N     0.64839   0.51401   0.76212   0.00000  Uiso   1.00
N1080  N     0.35161   0.48599   0.73788   0.00000  Uiso   1.00
O1081  O     0.46148   0.57142   0.74686   0.00000  Uiso   1.00
O1082  O     0.59057   0.55195   0.91798   0.00000  Uiso   1.00
O1083  O     0.56894   0.35070   0.77408   0.00000  Uiso   1.00
O1084  O     0.42921   0.64910   0.72840   0.00000  Uiso   1.00
O1085  O     0.53852   0.42858   0.75314   0.00000  Uiso   1.00
O1086  O     0.56163   0.58086   0.75502   0.00000  Uiso   1.00
O1087  O     0.43837   0.41914   0.74497   0.00000  Uiso   1.00
O1088  O     0.42185   0.49263   0.80854   0.00000  Uiso   1.00
O1089  O     0.57815   0.50737   0.69145   0.00000  Uiso   1.00
O1090  O     0.52199   0.50207   0.81671   0.00000  Uiso   1.00
O1091  O     0.47801   0.49793   0.68329   0.00000  Uiso   1.00
O1092  O     0.41871   0.42925   0.57574   0.00000  Uiso   1.00
C1093  C     0.84765   0.59972   0.75208   0.00000  Uiso   1.00
C1094  C     0.87147   0.50501   0.66695   0.00000  Uiso   1.00
C1095  C     0.77250   0.48385   0.87900   0.00000  Uiso   1.00
C1096  C     0.89309   0.51090   0.61927   0.00000  Uiso   1.00
C1097  C     0.70986   0.42394   0.93450   0.00000  Uiso   1.00
C1098  C     0.97576   0.53492   0.55456   0.00000  Uiso   1.00
C1099  C     0.72854   0.43776   0.89117   0.00000  Uiso   1.00
C1100  C     0.95715   0.52335   0.59876   0.00000  Uiso   1.00
C1101  C     0.80161   0.51368   0.90998   0.00000  Uiso   1.00
C1102  C     0.84844   0.50631   0.59393   0.00000  Uiso   1.00
C1103  C     0.79573   0.49227   0.95085   0.00000  Uiso   1.00
C1104  C     0.81875   0.40024   0.74834   0.00000  Uiso   1.00
C1105  C     0.86704   0.50701   0.54822   0.00000  Uiso   1.00
C1106  C     0.74347   0.45063   0.96449   0.00000  Uiso   1.00
C1107  C     0.93070   0.52832   0.52944   0.00000  Uiso   1.00
C1108  C     0.84061   0.50783   0.97735   0.00000  Uiso   1.00
C1109  C     0.82377   0.48989   0.52111   0.00000  Uiso   1.00
C1110  C     0.75059   0.37490   0.57292   0.00000  Uiso   1.00
C1111  C     0.68834   0.34651   0.60099   0.00000  Uiso   1.00
C1112  C     0.96655   0.52355   0.89156   0.00000  Uiso   1.00
C1113  C     0.93541   0.46710   0.88232   0.00000  Uiso   1.00
C1114  C     0.88857   0.34392   0.81969   0.00000  Uiso   1.00
C1115  C     0.76741   0.45114   0.53495   0.00000  Uiso   1.00
C1116  C     0.94714   0.33613   0.83201   0.00000  Uiso   1.00
C1117  C     0.78072   0.64731   0.68237   0.00000  Uiso   1.00
C1118  C     0.73431   0.60419   0.66535   0.00000  Uiso   1.00
C1119  C     0.90422   0.53465   0.96030   0.00000  Uiso   1.00
C1120  C     0.72727   0.43369   0.50693   0.00000  Uiso   1.00
C1121  C     0.94809   0.54427   0.98649   0.00000  Uiso   1.00
C1122  C     0.85315   0.65527   0.75718   0.00000  Uiso   1.00
C1123  C     0.81255   0.34468   0.74430   0.00000  Uiso   1.00
C1124  C     0.79523   0.49587   0.83284   0.00000  Uiso   1.00
Cu1125 Cu    0.77404   0.49441   0.74516   0.00000  Uiso   1.00
Cu1126 Cu    0.89263   0.50559   0.75483   0.00000  Uiso   1.00
F1127  F     0.67260   0.39847   0.52097   0.00000  Uiso   1.00
F1128  F     0.67395   0.57232   0.97065   0.00000  Uiso   1.00
F1129  F     0.78816   0.50912   0.61366   0.00000  Uiso   1.00
F1130  F     0.83082   0.56405   0.90078   0.00000  Uiso   1.00
F1131  F     0.67688   0.55498   0.78275   0.00000  Uiso   1.00
F1132  F     0.99104   0.44754   0.71417   0.00000  Uiso   1.00
H1133  H     0.99254   0.52730   0.61730   0.00000  Uiso   1.00
H1134  H     0.67415   0.52461   0.90520   0.00000  Uiso   1.00
H1135  H     0.98561   0.54350   0.86014   0.00000  Uiso   1.00
H1136  H     0.96601   0.45088   0.85391   0.00000  Uiso   1.00
H1137  H     0.92713   0.44286   0.91117   0.00000  Uiso   1.00
H1138  H     0.89032   0.46482   0.87382   0.00000  Uiso   1.00
H1139  H     0.84936   0.64357   0.83223   0.00000  Uiso   1.00
H1140  H     0.87498   0.37975   0.83655   0.00000  Uiso   1.00
H1141  H     0.98846   0.36628   0.81672   0.00000  Uiso   1.00
H1142  H     0.94044   0.33894   0.86803   0.00000  Uiso   1.00
H1143  H     0.95616   0.63032   0.82031   0.00000  Uiso   1.00
H1144  H     0.70830   0.41282   0.86724   0.00000  Uiso   1.00
H1145  H     0.82844   0.63835   0.67000   0.00000  Uiso   1.00
H1146  H     0.78029   0.35190   0.66929   0.00000  Uiso   1.00
H1147  H     0.74927   0.60117   0.62926   0.00000  Uiso   1.00
H1148  H     0.73304   0.56626   0.67887   0.00000  Uiso   1.00
H1149  H     0.68637   0.61257   0.67517   0.00000  Uiso   1.00
H1150  H     0.67251   0.38982   0.94364   0.00000  Uiso   1.00
H1151  H     0.69203   0.54867   0.54007   0.00000  Uiso   1.00
H1152  H     0.78948   0.36803   0.58612   0.00000  Uiso   1.00
H1153  H     0.75708   0.35734   0.53919   0.00000  Uiso   1.00
H1154  H     0.98134   0.35619   0.59142   0.00000  Uiso   1.00
H1155  H     0.68452   0.63703   0.59686   0.00000  Uiso   1.00
H1156  H     0.68541   0.35826   0.63584   0.00000  Uiso   1.00
N1157  N     0.98173   0.51401   0.76212   0.00000  Uiso   1.00
N1158  N     0.68494   0.48599   0.73788   0.00000  Uiso   1.00
O1159  O     0.79482   0.57142   0.74686   0.00000  Uiso   1.00
O1160  O     0.92390   0.55195   0.91798   0.00000  Uiso   1.00
O1161  O     0.90227   0.35070   0.77408   0.00000  Uiso   1.00
O1162  O     0.76254   0.64910   0.72840   0.00000  Uiso   1.00
O1163  O     0.87185   0.42858   0.75314   0.00000  Uiso   1.00
O1164  O     0.89496   0.58086   0.75502   0.00000  Uiso   1.00
O1165  O     0.77171   0.41914   0.74497   0.00000  Uiso   1.00
O1166  O     0.75518   0.49263   0.80854   0.00000  Uiso   1.00
O1167  O     0.91149   0.50737   0.69145   0.00000  Uiso   1.00
O1168  O     0.85532   0.50207   0.81671   0.00000  Uiso   1.00
O1169  O     0.81134   0.49793   0.68329   0.00000  Uiso   1.00
O1170  O     0.75205   0.42925   0.57574   0.00000  Uiso   1.00
C1171  C     0.18099   0.93305   0.75208   0.00000  Uiso   1.00
C1172  C     0.20480   0.83834   0.66695   0.00000  Uiso   1.00
C1173  C     0.10583   0.81719   0.87900   0.00000  Uiso   1.00
C1174  C     0.22642   0.84423   0.61927   0.00000  Uiso   1.00
C1175  C     0.04319   0.75727   0.93450   0.00000  Uiso   1.00
C1176  C     0.30909   0.86825   0.55456   0.00000  Uiso   1.00
C1177  C     0.06187   0.77109   0.89117   0.00000  Uiso   1.00
C1178  C     0.29048   0.85668   0.59876   0.00000  Uiso   1.00
C1179  C     0.13495   0.84701   0.90998   0.00000  Uiso   1.00
C1180  C     0.18177   0.83965   0.59393   0.00000  Uiso   1.00
C1181  C     0.12906   0.82560   0.95085   0.00000  Uiso   1.00
C1182  C     0.15208   0.73358   0.74834   0.00000  Uiso   1.00
C1183  C     0.20038   0.84035   0.54822   0.00000  Uiso   1.00
C1184  C     0.07680   0.78397   0.96449   0.00000  Uiso   1.00
C1185  C     0.26403   0.86165   0.52944   0.00000  Uiso   1.00
C1186  C     0.17395   0.84117   0.97735   0.00000  Uiso   1.00
C1187  C     0.15710   0.82323   0.52111   0.00000  Uiso   1.00
C1188  C     0.08392   0.70823   0.57292   0.00000  Uiso   1.00
C1189  C     0.02168   0.67985   0.60099   0.00000  Uiso   1.00
C1190  C     0.29988   0.85689   0.89156   0.00000  Uiso   1.00
C1191  C     0.26875   0.80043   0.88232   0.00000  Uiso   1.00
C1192  C     0.22191   0.67726   0.81969   0.00000  Uiso   1.00
C1193  C     0.10075   0.78448   0.53495   0.00000  Uiso   1.00
C1194  C     0.28048   0.66947   0.83201   0.00000  Uiso   1.00
C1195  C     0.11406   0.98065   0.68237   0.00000  Uiso   1.00
C1196  C     0.06764   0.93753   0.66535   0.00000  Uiso   1.00
C1197  C     0.23756   0.86798   0.96030   0.00000  Uiso   1.00
C1198  C     0.06061   0.76703   0.50693   0.00000  Uiso   1.00
C1199  C     0.28142   0.87761   0.98649   0.00000  Uiso   1.00
C1200  C     0.18649   0.98860   0.75718   0.00000  Uiso   1.00
C1201  C     0.14588   0.67801   0.74430   0.00000  Uiso   1.00
C1202  C     0.12856   0.82920   0.83284   0.00000  Uiso   1.00
Cu1203 Cu    0.10737   0.82775   0.74516   0.00000  Uiso   1.00
Cu1204 Cu    0.22596   0.83892   0.75483   0.00000  Uiso   1.00
F1205  F     0.00593   0.73180   0.52097   0.00000  Uiso   1.00
F1206  F     0.00728   0.90565   0.97065   0.00000  Uiso   1.00
F1207  F     0.12149   0.84246   0.61366   0.00000  Uiso   1.00
F1208  F     0.16415   0.89738   0.90078   0.00000  Uiso   1.00
F1209  F     0.01021   0.88832   0.78275   0.00000  Uiso   1.00
F1210  F     0.32437   0.78087   0.71417   0.00000  Uiso   1.00
H1211  H     0.32587   0.86064   0.61730   0.00000  Uiso   1.00
H1212  H     0.00748   0.85794   0.90520   0.00000  Uiso   1.00
H1213  H     0.31895   0.87683   0.86014   0.00000  Uiso   1.00
H1214  H     0.29935   0.78422   0.85391   0.00000  Uiso   1.00
H1215  H     0.26047   0.77619   0.91117   0.00000  Uiso   1.00
H1216  H     0.22366   0.79815   0.87382   0.00000  Uiso   1.00
H1217  H     0.18269   0.97690   0.83223   0.00000  Uiso   1.00
H1218  H     0.20831   0.71308   0.83655   0.00000  Uiso   1.00
H1219  H     0.32179   0.69961   0.81672   0.00000  Uiso   1.00
H1220  H     0.27378   0.67227   0.86803   0.00000  Uiso   1.00
H1221  H     0.28950   0.96365   0.82031   0.00000  Uiso   1.00
H1222  H     0.04163   0.74615   0.86724   0.00000  Uiso   1.00
H1223  H     0.16177   0.97168   0.67000   0.00000  Uiso   1.00
H1224  H     0.11362   0.68523   0.66929   0.00000  Uiso   1.00
H1225  H     0.08261   0.93451   0.62926   0.00000  Uiso   1.00
H1226  H     0.06637   0.89959   0.67887   0.00000  Uiso   1.00
H1227  H     0.01971   0.94591   0.67517   0.00000  Uiso   1.00
H1228  H     0.00584   0.72315   0.94364   0.00000  Uiso   1.00
H1229  H     0.02536   0.88201   0.54007   0.00000  Uiso   1.00
H1230  H     0.12281   0.70136   0.58612   0.00000  Uiso   1.00
H1231  H     0.09041   0.69067   0.53919   0.00000  Uiso   1.00
H1232  H     0.31467   0.68953   0.59142   0.00000  Uiso   1.00
H1233  H     0.01785   0.97037   0.59686   0.00000  Uiso   1.00
H1234  H     0.01874   0.69159   0.63584   0.00000  Uiso   1.00
N1235  N     0.31506   0.84735   0.76212   0.00000  Uiso   1.00
N1236  N     0.01827   0.81932   0.73788   0.00000  Uiso   1.00
O1237  O     0.12815   0.90476   0.74686   0.00000  Uiso   1.00
O1238  O     0.25724   0.88529   0.91798   0.00000  Uiso   1.00
O1239  O     0.23561   0.68403   0.77408   0.00000  Uiso   1.00
O1240  O     0.09587   0.98243   0.72840   0.00000  Uiso   1.00
O1241  O     0.20518   0.76191   0.75314   0.00000  Uiso   1.00
O1242  O     0.22829   0.91420   0.75502   0.00000  Uiso   1.00
O1243  O     0.10504   0.75247   0.74497   0.00000  Uiso   1.00
O1244  O     0.08851   0.82597   0.80854   0.00000  Uiso   1.00
O1245  O     0.24482   0.84070   0.69145   0.00000  Uiso   1.00
O1246  O     0.18866   0.83540   0.81671   0.00000  Uiso   1.00
O1247  O     0.14468   0.83126   0.68329   0.00000  Uiso   1.00
O1248  O     0.08538   0.76258   0.57574   0.00000  Uiso   1.00
C1249  C     0.51432   0.93305   0.75208   0.00000  Uiso   1.00
C1250  C     0.53814   0.83834   0.66695   0.00000  Uiso   1.00
C1251  C     0.43916   0.81719   0.87900   0.00000  Uiso   1.00
C1252  C     0.55976   0.84423   0.61927   0.00000  Uiso   1.00
C1253  C     0.37652   0.75727   0.93450   0.00000  Uiso   1.00
C1254  C     0.64242   0.86825   0.55456   0.00000  Uiso   1.00
C1255  C     0.39521   0.77109   0.89117   0.00000  Uiso   1.00
C1256  C     0.62382   0.85668   0.59876   0.00000  Uiso   1.00
C1257  C     0.46828   0.84701   0.90998   0.00000  Uiso   1.00
C1258  C     0.51510   0.83965   0.59393   0.00000  Uiso   1.00
C1259  C     0.46239   0.82560   0.95085   0.00000  Uiso   1.00
C1260  C     0.48542   0.73358   0.74834   0.00000  Uiso   1.00
C1261  C     0.53371   0.84035   0.54822   0.00000  Uiso   1.00
C1262  C     0.41013   0.78397   0.96449   0.00000  Uiso   1.00
C1263  C     0.59737   0.86165   0.52944   0.00000  Uiso   1.00
C1264  C     0.50728   0.84117   0.97735   0.00000  Uiso   1.00
C1265  C     0.49044   0.82323   0.52111   0.00000  Uiso   1.00
C1266  C     0.41725   0.70823   0.57292   0.00000  Uiso   1.00
C1267  C     0.35501   0.67985   0.60099   0.00000  Uiso   1.00
C1268  C     0.63322   0.85689   0.89156   0.00000  Uiso   1.00
C1269  C     0.60208   0.80043   0.88232   0.00000  Uiso   1.00
C1270  C     0.55524   0.67726   0.81969   0.00000  Uiso   1.00
C1271  C     0.43408   0.78448   0.53495   0.00000  Uiso   1.00
C1272  C     0.61381   0.66947   0.83201   0.00000  Uiso   1.00
C1273  C     0.44739   0.98065   0.68237   0.00000  Uiso   1.00
C1274  C     0.40098   0.93753   0.66535   0.00000  Uiso   1.00
C1275  C     0.57089   0.86798   0.96030   0.00000  Uiso   1.00
C1276  C     0.39394   0.76703   0.50693   0.00000  Uiso   1.00
C1277  C     0.61476   0.87761   0.98649   0.00000  Uiso   1.00
C1278  C     0.51982   0.98860   0.75718   0.00000  Uiso   1.00
C1279  C     0.47921   0.67801   0.74430   0.00000  Uiso   1.00
C1280  C     0.46190   0.82920   0.83284   0.00000  Uiso   1.00
Cu1281 Cu    0.44071   0.82775   0.74516   0.00000  Uiso   1.00
Cu1282 Cu    0.55929   0.83892   0.75483   0.00000  Uiso   1.00
F1283  F     0.33926   0.73180   0.52097   0.00000  Uiso   1.00
F1284  F     0.34061   0.90565   0.97065   0.00000  Uiso   1.00
F1285  F     0.45482   0.84246   0.61366   0.00000  Uiso   1.00
F1286  F     0.49748   0.89738   0.90078   0.00000  Uiso   1.00
F1287  F     0.34355   0.88832   0.78275   0.00000  Uiso   1.00
F1288  F     0.65770   0.78087   0.71417   0.00000  Uiso   1.00
H1289  H     0.65920   0.86064   0.61730   0.00000  Uiso   1.00
H1290  H     0.34082   0.85794   0.90520   0.00000  Uiso   1.00
H1291  H     0.65228   0.87683   0.86014   0.00000  Uiso   1.00
H1292  H     0.63268   0.78422   0.85391   0.00000  Uiso   1.00
H1293  H     0.59380   0.77619   0.91117   0.00000  Uiso   1.00
H1294  H     0.55699   0.79815   0.87382   0.00000  Uiso   1.00
H1295  H     0.51602   0.97690   0.83223   0.00000  Uiso   1.00
H1296  H     0.54164   0.71308   0.83655   0.00000  Uiso   1.00
H1297  H     0.65513   0.69961   0.81672   0.00000  Uiso   1.00
H1298  H     0.60711   0.67227   0.86803   0.00000  Uiso   1.00
H1299  H     0.62283   0.96365   0.82031   0.00000  Uiso   1.00
H1300  H     0.37496   0.74615   0.86724   0.00000  Uiso   1.00
H1301  H     0.49511   0.97168   0.67000   0.00000  Uiso   1.00
H1302  H     0.44696   0.68523   0.66929   0.00000  Uiso   1.00
H1303  H     0.41594   0.93451   0.62926   0.00000  Uiso   1.00
H1304  H     0.39971   0.89959   0.67887   0.00000  Uiso   1.00
H1305  H     0.35304   0.94591   0.67517   0.00000  Uiso   1.00
H1306  H     0.33918   0.72315   0.94364   0.00000  Uiso   1.00
H1307  H     0.35870   0.88201   0.54007   0.00000  Uiso   1.00
H1308  H     0.45615   0.70136   0.58612   0.00000  Uiso   1.00
H1309  H     0.42374   0.69067   0.53919   0.00000  Uiso   1.00
H1310  H     0.64801   0.68953   0.59142   0.00000  Uiso   1.00
H1311  H     0.35119   0.97037   0.59686   0.00000  Uiso   1.00
H1312  H     0.35207   0.69159   0.63584   0.00000  Uiso   1.00
N1313  N     0.64839   0.84735   0.76212   0.00000  Uiso   1.00
N1314  N     0.35161   0.81932   0.73788   0.00000  Uiso   1.00
O1315  O     0.46148   0.90476   0.74686   0.00000  Uiso   1.00
O1316  O     0.59057   0.88529   0.91798   0.00000  Uiso   1.00
O1317  O     0.56894   0.68403   0.77408   0.00000  Uiso   1.00
O1318  O     0.42921   0.98243   0.72840   0.00000  Uiso   1.00
O1319  O     0.53852   0.76191   0.75314   0.00000  Uiso   1.00
O1320  O     0.56163   0.91420   0.75502   0.00000  Uiso   1.00
O1321  O     0.43837   0.75247   0.74497   0.00000  Uiso   1.00
O1322  O     0.42185   0.82597   0.80854   0.00000  Uiso   1.00
O1323  O     0.57815   0.84070   0.69145   0.00000  Uiso   1.00
O1324  O     0.52199   0.83540   0.81671   0.00000  Uiso   1.00
O1325  O     0.47801   0.83126   0.68329   0.00000  Uiso   1.00
O1326  O     0.41871   0.76258   0.57574   0.00000  Uiso   1.00
C1327  C     0.84765   0.93305   0.75208   0.00000  Uiso   1.00
C1328  C     0.87147   0.83834   0.66695   0.00000  Uiso   1.00
C1329  C     0.77250   0.81719   0.87900   0.00000  Uiso   1.00
C1330  C     0.89309   0.84423   0.61927   0.00000  Uiso   1.00
C1331  C     0.70986   0.75727   0.93450   0.00000  Uiso   1.00
C1332  C     0.97576   0.86825   0.55456   0.00000  Uiso   1.00
C1333  C     0.72854   0.77109   0.89117   0.00000  Uiso   1.00
C1334  C     0.95715   0.85668   0.59876   0.00000  Uiso   1.00
C1335  C     0.80161   0.84701   0.90998   0.00000  Uiso   1.00
C1336  C     0.84844   0.83965   0.59393   0.00000  Uiso   1.00
C1337  C     0.79573   0.82560   0.95085   0.00000  Uiso   1.00
C1338  C     0.81875   0.73358   0.74834   0.00000  Uiso   1.00
C1339  C     0.86704   0.84035   0.54822   0.00000  Uiso   1.00
C1340  C     0.74347   0.78397   0.96449   0.00000  Uiso   1.00
C1341  C     0.93070   0.86165   0.52944   0.00000  Uiso   1.00
C1342  C     0.84061   0.84117   0.97735   0.00000  Uiso   1.00
C1343  C     0.82377   0.82323   0.52111   0.00000  Uiso   1.00
C1344  C     0.75059   0.70823   0.57292   0.00000  Uiso   1.00
C1345  C     0.68834   0.67985   0.60099   0.00000  Uiso   1.00
C1346  C     0.96655   0.85689   0.89156   0.00000  Uiso   1.00
C1347  C     0.93541   0.80043   0.88232   0.00000  Uiso   1.00
C1348  C     0.88857   0.67726   0.81969   0.00000  Uiso   1.00
C1349  C     0.76741   0.78448   0.53495   0.00000  Uiso   1.00
C1350  C     0.94714   0.66947   0.83201   0.00000  Uiso   1.00
C1351  C     0.78072   0.98065   0.68237   0.00000  Uiso   1.00
C1352  C     0.73431   0.93753   0.66535   0.00000  Uiso   1.00
C1353  C     0.90422   0.86798   0.96030   0.00000  Uiso   1.00
C1354  C     0.72727   0.76703   0.50693   0.00000  Uiso   1.00
C1355  C     0.94809   0.87761   0.98649   0.00000  Uiso   1.00
C1356  C     0.85315   0.98860   0.75718   0.00000  Uiso   1.00
C1357  C     0.81255   0.67801   0.74430   0.00000  Uiso   1.00
C1358  C     0.79523   0.82920   0.83284   0.00000  Uiso   1.00
Cu1359 Cu    0.77404   0.82775   0.74516   0.00000  Uiso   1.00
Cu1360 Cu    0.89263   0.83892   0.75483   0.00000  Uiso   1.00
F1361  F     0.67260   0.73180   0.52097   0.00000  Uiso   1.00
F1362  F     0.67395   0.90565   0.97065   0.00000  Uiso   1.00
F1363  F     0.78816   0.84246   0.61366   0.00000  Uiso   1.00
F1364  F     0.83082   0.89738   0.90078   0.00000  Uiso   1.00
F1365  F     0.67688   0.88832   0.78275   0.00000  Uiso   1.00
F1366  F     0.99104   0.78087   0.71417   0.00000  Uiso   1.00
H1367  H     0.99254   0.86064   0.61730   0.00000  Uiso   1.00
H1368  H     0.67415   0.85794   0.90520   0.00000  Uiso   1.00
H1369  H     0.98561   0.87683   0.86014   0.00000  Uiso   1.00
H1370  H     0.96601   0.78422   0.85391   0.00000  Uiso   1.00
H1371  H     0.92713   0.77619   0.91117   0.00000  Uiso   1.00
H1372  H     0.89032   0.79815   0.87382   0.00000  Uiso   1.00
H1373  H     0.84936   0.97690   0.83223   0.00000  Uiso   1.00
H1374  H     0.87498   0.71308   0.83655   0.00000  Uiso   1.00
H1375  H     0.98846   0.69961   0.81672   0.00000  Uiso   1.00
H1376  H     0.94044   0.67227   0.86803   0.00000  Uiso   1.00
H1377  H     0.95616   0.96365   0.82031   0.00000  Uiso   1.00
H1378  H     0.70830   0.74615   0.86724   0.00000  Uiso   1.00
H1379  H     0.82844   0.97168   0.67000   0.00000  Uiso   1.00
H1380  H     0.78029   0.68523   0.66929   0.00000  Uiso   1.00
H1381  H     0.74927   0.93451   0.62926   0.00000  Uiso   1.00
H1382  H     0.73304   0.89959   0.67887   0.00000  Uiso   1.00
H1383  H     0.68637   0.94591   0.67517   0.00000  Uiso   1.00
H1384  H     0.67251   0.72315   0.94364   0.00000  Uiso   1.00
H1385  H     0.69203   0.88201   0.54007   0.00000  Uiso   1.00
H1386  H     0.78948   0.70136   0.58612   0.00000  Uiso   1.00
H1387  H     0.75708   0.69067   0.53919   0.00000  Uiso   1.00
H1388  H     0.98134   0.68953   0.59142   0.00000  Uiso   1.00
H1389  H     0.68452   0.97037   0.59686   0.00000  Uiso   1.00
H1390  H     0.68541   0.69159   0.63584   0.00000  Uiso   1.00
N1391  N     0.98173   0.84735   0.76212   0.00000  Uiso   1.00
N1392  N     0.68494   0.81932   0.73788   0.00000  Uiso   1.00
O1393  O     0.79482   0.90476   0.74686   0.00000  Uiso   1.00
O1394  O     0.92390   0.88529   0.91798   0.00000  Uiso   1.00
O1395  O     0.90227   0.68403   0.77408   0.00000  Uiso   1.00
O1396  O     0.76254   0.98243   0.72840   0.00000  Uiso   1.00
O1397  O     0.87185   0.76191   0.75314   0.00000  Uiso   1.00
O1398  O     0.89496   0.91420   0.75502   0.00000  Uiso   1.00
O1399  O     0.77171   0.75247   0.74497   0.00000  Uiso   1.00
O1400  O     0.75518   0.82597   0.80854   0.00000  Uiso   1.00
O1401  O     0.91149   0.84070   0.69145   0.00000  Uiso   1.00
O1402  O     0.85532   0.83540   0.81671   0.00000  Uiso   1.00
O1403  O     0.81134   0.83126   0.68329   0.00000  Uiso   1.00
O1404  O     0.75205   0.76258   0.57574   0.00000  Uiso   1.00
loop_
_geom_bond_atom_site_label_1
_geom_bond_atom_site_label_2
_geom_bond_distance
_geom_bond_site_symmetry_2
_ccdc_geom_bond_type
C1     O72     1.294   .     A
C1     C30     1.435   .     S
C1     O67     1.291   .     A
C2     C4      1.476   .     S
C2     O77     1.297   .     A
C2     O75     1.313   .     A
C3     C7      1.392   .     A
C3     C9      1.401   .     A
C3     C32     1.459   .     S
C4     C8      1.399   .     A
C4     C10     1.411   .     A
C5     H58     1.084   .     S
C5     C7      1.385   .     A
C5     C14     1.403   .     A
C6     C15     1.408   .     A
C6     C8      1.395   .     A
C6     H137    1.084   .     S
C7     H52     1.079   .     S
C8     H41     1.082   .     S
C9     F38     1.358   .     S
C9     C11     1.417   .     A
C10    F37     1.359   .     S
C10    C13     1.403   .     A
C11    C14     1.417   .     A
C11    C16     1.436   .     A
C12    O73     1.294   .     A
C12    O71     1.292   .     A
C12    C31     1.433   .     S
C13    C15     1.408   .     A
C13    C17     1.427   .     A
C14    C730    1.385   .     S
C15    C731    1.390   1_554 S
C16    C27     1.433   .     A
C16    C719    1.432   .     S
C17    C23     1.431   .     A
C17    C718    1.432   1_554 S
C18    C19     1.524   .     S
C18    O78     1.417   .     S
C18    H60     1.111   .     S
C18    H61     1.116   .     S
C19    H64     1.110   .     S
C19    H218    1.109   1_455 S
C19    H531    1.108   1_545 S
C20    H43     1.105   .     S
C20    O68     1.412   .     S
C20    C21     1.528   .     S
C20    H120    1.102   .     S
C21    H45     1.110   .     S
C21    H44     1.107   .     S
C21    H46     1.098   .     S
C22    H48     1.109   .     S
C22    O69     1.417   .     S
C22    C24     1.520   .     S
C22    H515    1.118   1_545 S
C23    C28     1.397   .     A
C23    O78     1.388   .     S
C24    H50     1.111   .     S
C24    H49     1.110   .     S
C24    H519    1.109   1_545 S
C25    H53     1.117   .     S
C25    C26     1.518   .     S
C25    O70     1.412   .     S
C25    H288    1.113   .     S
C26    H55     1.109   .     S
C26    H56     1.108   .     S
C26    H57     1.110   .     S
C27    C29     1.407   .     A
C27    O68     1.383   .     S
C28    F35     1.359   .     S
C28    C716    1.385   1_554 S
C29    C717    1.390   .     S
C29    F114    1.360   .     S
C30    C265    1.350   .     S
C30    O303    1.387   .     S
C31    C498    1.350   1_545 S
C31    O538    1.387   1_545 S
C32    O74     1.306   .     A
C32    O76     1.297   .     A
Cu33   N66     2.031   .     S
Cu33   Cu34    2.703   .     S
Cu33   O67     1.970   .     S
Cu33   O73     1.966   .     S
Cu33   O77     1.930   .     S
Cu33   O74     1.947   .     S
Cu34   O75     1.947   .     S
Cu34   N65     2.031   .     S
Cu34   O72     1.966   .     S
Cu34   O71     1.970   .     S
Cu34   O76     1.930   .     S
F36    C185    1.360   1_455 S
F39    N221    1.332   1_455 S
F40    N144    1.335   .     S
H42    C176    1.102   1_455 S
H47    C256    1.118   .     S
H51    C258    1.109   .     S
H54    C493    1.113   1_545 S
H59    C162    1.084   1_455 S
H62    C97     1.109   .     S
H63    C253    1.108   .     S
N65    F117    1.332   .     S
N65    N144    1.293   .     S
N66    F196    1.335   1_455 S
N66    N221    1.293   1_455 S
O69    C498    1.387   1_545 S
O70    C265    1.387   .     S
C79    O150    1.294   .     A
C79    C108    1.435   .     S
C79    O145    1.291   .     A
C80    C82     1.476   .     S
C80    O155    1.297   .     A
C80    O153    1.313   .     A
C81    C85     1.392   .     A
C81    C87     1.401   .     A
C81    C110    1.459   .     S
C82    C86     1.399   .     A
C82    C88     1.411   .     A
C83    H136    1.084   .     S
C83    C85     1.385   .     A
C83    C92     1.403   .     A
C84    C93     1.408   .     A
C84    C86     1.395   .     A
C84    H215    1.084   .     S
C85    H130    1.079   .     S
C86    H119    1.082   .     S
C87    F116    1.358   .     S
C87    C89     1.417   .     A
C88    F115    1.359   .     S
C88    C91     1.403   .     A
C89    C92     1.417   .     A
C89    C94     1.436   .     A
C90    O151    1.294   .     A
C90    O149    1.292   .     A
C90    C109    1.433   .     S
C91    C93     1.408   .     A
C91    C95     1.427   .     A
C92    C808    1.385   .     S
C93    C809    1.390   1_554 S
C94    C105    1.433   .     A
C94    C797    1.432   .     S
C95    C101    1.431   .     A
C95    C796    1.432   1_554 S
C96    C97     1.524   .     S
C96    O156    1.417   .     S
C96    H138    1.111   .     S
C96    H139    1.116   .     S
C97    H142    1.110   .     S
C97    H609    1.108   1_545 S
C98    H121    1.105   .     S
C98    O146    1.412   .     S
C98    C99     1.528   .     S
C98    H198    1.102   .     S
C99    H123    1.110   .     S
C99    H122    1.107   .     S
C99    H124    1.098   .     S
C100   H126    1.109   .     S
C100   O147    1.417   .     S
C100   C102    1.520   .     S
C100   H593    1.118   1_545 S
C101   C106    1.397   .     A
C101   O156    1.388   .     S
C102   H128    1.111   .     S
C102   H127    1.110   .     S
C102   H597    1.109   1_545 S
C103   H131    1.117   .     S
C103   C104    1.518   .     S
C103   O148    1.412   .     S
C103   H366    1.113   .     S
C104   H133    1.109   .     S
C104   H134    1.108   .     S
C104   H135    1.110   .     S
C105   C107    1.407   .     A
C105   O146    1.383   .     S
C106   F113    1.359   .     S
C106   C794    1.385   1_554 S
C107   C795    1.390   .     S
C107   F192    1.360   .     S
C108   C343    1.350   .     S
C108   O381    1.387   .     S
C109   C576    1.350   1_545 S
C109   O616    1.387   1_545 S
C110   O152    1.306   .     A
C110   O154    1.297   .     A
Cu111  N144    2.031   .     S
Cu111  Cu112   2.703   .     S
Cu111  O145    1.970   .     S
Cu111  O151    1.966   .     S
Cu111  O155    1.930   .     S
Cu111  O152    1.947   .     S
Cu112  O153    1.947   .     S
Cu112  N143    2.031   .     S
Cu112  O150    1.966   .     S
Cu112  O149    1.970   .     S
Cu112  O154    1.930   .     S
F118   N222    1.335   .     S
H125   C334    1.118   .     S
H129   C336    1.109   .     S
H132   C571    1.113   1_545 S
H140   C175    1.109   .     S
H141   C331    1.108   .     S
N143   F195    1.332   .     S
N143   N222    1.293   .     S
O147   C576    1.387   1_545 S
O148   C343    1.387   .     S
C157   O228    1.294   .     A
C157   C186    1.435   .     S
C157   O223    1.291   .     A
C158   C160    1.476   .     S
C158   O233    1.297   .     A
C158   O231    1.313   .     A
C159   C163    1.392   .     A
C159   C165    1.401   .     A
C159   C188    1.459   .     S
C160   C164    1.399   .     A
C160   C166    1.411   .     A
C161   H214    1.084   .     S
C161   C163    1.385   .     A
C161   C170    1.403   .     A
C162   C171    1.408   .     A
C162   C164    1.395   .     A
C162   H59     1.084   1_655 S
C163   H208    1.079   .     S
C164   H197    1.082   .     S
C165   F194    1.358   .     S
C165   C167    1.417   .     A
C166   F193    1.359   .     S
C166   C169    1.403   .     A
C167   C170    1.417   .     A
C167   C172    1.436   .     A
C168   O229    1.294   .     A
C168   O227    1.292   .     A
C168   C187    1.433   .     S
C169   C171    1.408   .     A
C169   C173    1.427   .     A
C170   C886    1.385   .     S
C171   C887    1.390   1_554 S
C172   C183    1.433   .     A
C172   C875    1.432   .     S
C173   C179    1.431   .     A
C173   C874    1.432   1_554 S
C174   C175    1.524   .     S
C174   O234    1.417   .     S
C174   H216    1.111   .     S
C174   H217    1.116   .     S
C175   H220    1.110   .     S
C175   H687    1.108   1_545 S
C176   H199    1.105   .     S
C176   O224    1.412   .     S
C176   C177    1.528   .     S
C176   H42     1.102   1_655 S
C177   H201    1.110   .     S
C177   H200    1.107   .     S
C177   H202    1.098   .     S
C178   H204    1.109   .     S
C178   O225    1.417   .     S
C178   C180    1.520   .     S
C178   H671    1.118   1_545 S
C179   C184    1.397   .     A
C179   O234    1.388   .     S
C180   H206    1.111   .     S
C180   H205    1.110   .     S
C180   H675    1.109   1_545 S
C181   H209    1.117   .     S
C181   C182    1.518   .     S
C181   O226    1.412   .     S
C181   H444    1.113   .     S
C182   H211    1.109   .     S
C182   H212    1.108   .     S
C182   H213    1.110   .     S
C183   C185    1.407   .     A
C183   O224    1.383   .     S
C184   F191    1.359   .     S
C184   C872    1.385   1_554 S
C185   C873    1.390   .     S
C185   F36     1.360   1_655 S
C186   C421    1.350   .     S
C186   O459    1.387   .     S
C187   C654    1.350   1_545 S
C187   O694    1.387   1_545 S
C188   O230    1.306   .     A
C188   O232    1.297   .     A
Cu189  N222    2.031   .     S
Cu189  Cu190   2.703   .     S
Cu189  O223    1.970   .     S
Cu189  O229    1.966   .     S
Cu189  O233    1.930   .     S
Cu189  O230    1.947   .     S
Cu190  O231    1.947   .     S
Cu190  N221    2.031   .     S
Cu190  O228    1.966   .     S
Cu190  O227    1.970   .     S
Cu190  O232    1.930   .     S
F196   N66     1.335   1_655 S
H203   C412    1.118   .     S
H207   C414    1.109   .     S
H210   C649    1.113   1_545 S
H218   C19     1.109   1_655 S
H219   C409    1.108   .     S
N221   F39     1.332   1_655 S
N221   N66     1.293   1_655 S
O225   C654    1.387   1_545 S
O226   C421    1.387   .     S
C235   O306    1.294   .     A
C235   C264    1.435   .     S
C235   O301    1.291   .     A
C236   C238    1.476   .     S
C236   O311    1.297   .     A
C236   O309    1.313   .     A
C237   C241    1.392   .     A
C237   C243    1.401   .     A
C237   C266    1.459   .     S
C238   C242    1.399   .     A
C238   C244    1.411   .     A
C239   H292    1.084   .     S
C239   C241    1.385   .     A
C239   C248    1.403   .     A
C240   C249    1.408   .     A
C240   C242    1.395   .     A
C240   H371    1.084   .     S
C241   H286    1.079   .     S
C242   H275    1.082   .     S
C243   F272    1.358   .     S
C243   C245    1.417   .     A
C244   F271    1.359   .     S
C244   C247    1.403   .     A
C245   C248    1.417   .     A
C245   C250    1.436   .     A
C246   O307    1.294   .     A
C246   O305    1.292   .     A
C246   C265    1.433   .     S
C247   C249    1.408   .     A
C247   C251    1.427   .     A
C248   C964    1.385   .     S
C249   C965    1.390   1_554 S
C250   C261    1.433   .     A
C250   C953    1.432   .     S
C251   C257    1.431   .     A
C251   C952    1.432   1_554 S
C252   C253    1.524   .     S
C252   O312    1.417   .     S
C252   H294    1.111   .     S
C252   H295    1.116   .     S
C253   H298    1.110   .     S
C253   H452    1.109   1_455 S
C254   H277    1.105   .     S
C254   O302    1.412   .     S
C254   C255    1.528   .     S
C254   H354    1.102   .     S
C255   H279    1.110   .     S
C255   H278    1.107   .     S
C255   H280    1.098   .     S
C256   H282    1.109   .     S
C256   O303    1.417   .     S
C256   C258    1.520   .     S
C257   C262    1.397   .     A
C257   O312    1.388   .     S
C258   H284    1.111   .     S
C258   H283    1.110   .     S
C259   H287    1.117   .     S
C259   C260    1.518   .     S
C259   O304    1.412   .     S
C259   H522    1.113   .     S
C260   H289    1.109   .     S
C260   H290    1.108   .     S
C260   H291    1.110   .     S
C261   C263    1.407   .     A
C261   O302    1.383   .     S
C262   F269    1.359   .     S
C262   C950    1.385   1_554 S
C263   C951    1.390   .     S
C263   F348    1.360   .     S
C264   C499    1.350   .     S
C264   O537    1.387   .     S
C266   O308    1.306   .     A
C266   O310    1.297   .     A
Cu267  N300    2.031   .     S
Cu267  Cu268   2.703   .     S
Cu267  O301    1.970   .     S
Cu267  O307    1.966   .     S
Cu267  O311    1.930   .     S
Cu267  O308    1.947   .     S
Cu268  O309    1.947   .     S
Cu268  N299    2.031   .     S
Cu268  O306    1.966   .     S
Cu268  O305    1.970   .     S
Cu268  O310    1.930   .     S
F270   C419    1.360   1_455 S
F273   N455    1.332   1_455 S
F274   N378    1.335   .     S
H276   C410    1.102   1_455 S
H281   C490    1.118   .     S
H285   C492    1.109   .     S
H293   C396    1.084   1_455 S
H296   C331    1.109   .     S
H297   C487    1.108   .     S
N299   F351    1.332   .     S
N299   N378    1.293   .     S
N300   F430    1.335   1_455 S
N300   N455    1.293   1_455 S
O304   C499    1.387   .     S
C313   O384    1.294   .     A
C313   C342    1.435   .     S
C313   O379    1.291   .     A
C314   C316    1.476   .     S
C314   O389    1.297   .     A
C314   O387    1.313   .     A
C315   C319    1.392   .     A
C315   C321    1.401   .     A
C315   C344    1.459   .     S
C316   C320    1.399   .     A
C316   C322    1.411   .     A
C317   H370    1.084   .     S
C317   C319    1.385   .     A
C317   C326    1.403   .     A
C318   C327    1.408   .     A
C318   C320    1.395   .     A
C318   H449    1.084   .     S
C319   H364    1.079   .     S
C320   H353    1.082   .     S
C321   F350    1.358   .     S
C321   C323    1.417   .     A
C322   F349    1.359   .     S
C322   C325    1.403   .     A
C323   C326    1.417   .     A
C323   C328    1.436   .     A
C324   O385    1.294   .     A
C324   O383    1.292   .     A
C324   C343    1.433   .     S
C325   C327    1.408   .     A
C325   C329    1.427   .     A
C326   C1042   1.385   .     S
C327   C1043   1.390   1_554 S
C328   C339    1.433   .     A
C328   C1031   1.432   .     S
C329   C335    1.431   .     A
C329   C1030   1.432   1_554 S
C330   C331    1.524   .     S
C330   O390    1.417   .     S
C330   H372    1.111   .     S
C330   H373    1.116   .     S
C331   H376    1.110   .     S
C332   H355    1.105   .     S
C332   O380    1.412   .     S
C332   C333    1.528   .     S
C332   H432    1.102   .     S
C333   H357    1.110   .     S
C333   H356    1.107   .     S
C333   H358    1.098   .     S
C334   H360    1.109   .     S
C334   O381    1.417   .     S
C334   C336    1.520   .     S
C335   C340    1.397   .     A
C335   O390    1.388   .     S
C336   H362    1.111   .     S
C336   H361    1.110   .     S
C337   H365    1.117   .     S
C337   C338    1.518   .     S
C337   O382    1.412   .     S
C337   H600    1.113   .     S
C338   H367    1.109   .     S
C338   H368    1.108   .     S
C338   H369    1.110   .     S
C339   C341    1.407   .     A
C339   O380    1.383   .     S
C340   F347    1.359   .     S
C340   C1028   1.385   1_554 S
C341   C1029   1.390   .     S
C341   F426    1.360   .     S
C342   C577    1.350   .     S
C342   O615    1.387   .     S
C344   O386    1.306   .     A
C344   O388    1.297   .     A
Cu345  N378    2.031   .     S
Cu345  Cu346   2.703   .     S
Cu345  O379    1.970   .     S
Cu345  O385    1.966   .     S
Cu345  O389    1.930   .     S
Cu345  O386    1.947   .     S
Cu346  O387    1.947   .     S
Cu346  N377    2.031   .     S
Cu346  O384    1.966   .     S
Cu346  O383    1.970   .     S
Cu346  O388    1.930   .     S
F352   N456    1.335   .     S
H359   C568    1.118   .     S
H363   C570    1.109   .     S
H374   C409    1.109   .     S
H375   C565    1.108   .     S
N377   F429    1.332   .     S
N377   N456    1.293   .     S
O382   C577    1.387   .     S
C391   O462    1.294   .     A
C391   C420    1.435   .     S
C391   O457    1.291   .     A
C392   C394    1.476   .     S
C392   O467    1.297   .     A
C392   O465    1.313   .     A
C393   C397    1.392   .     A
C393   C399    1.401   .     A
C393   C422    1.459   .     S
C394   C398    1.399   .     A
C394   C400    1.411   .     A
C395   H448    1.084   .     S
C395   C397    1.385   .     A
C395   C404    1.403   .     A
C396   C405    1.408   .     A
C396   C398    1.395   .     A
C396   H293    1.084   1_655 S
C397   H442    1.079   .     S
C398   H431    1.082   .     S
C399   F428    1.358   .     S
C399   C401    1.417   .     A
C400   F427    1.359   .     S
C400   C403    1.403   .     A
C401   C404    1.417   .     A
C401   C406    1.436   .     A
C402   O463    1.294   .     A
C402   O461    1.292   .     A
C402   C421    1.433   .     S
C403   C405    1.408   .     A
C403   C407    1.427   .     A
C404   C1120   1.385   .     S
C405   C1121   1.390   1_554 S
C406   C417    1.433   .     A
C406   C1109   1.432   .     S
C407   C413    1.431   .     A
C407   C1108   1.432   1_554 S
C408   C409    1.524   .     S
C408   O468    1.417   .     S
C408   H450    1.111   .     S
C408   H451    1.116   .     S
C409   H454    1.110   .     S
C410   H433    1.105   .     S
C410   O458    1.412   .     S
C410   C411    1.528   .     S
C410   H276    1.102   1_655 S
C411   H435    1.110   .     S
C411   H434    1.107   .     S
C411   H436    1.098   .     S
C412   H438    1.109   .     S
C412   O459    1.417   .     S
C412   C414    1.520   .     S
C413   C418    1.397   .     A
C413   O468    1.388   .     S
C414   H440    1.111   .     S
C414   H439    1.110   .     S
C415   H443    1.117   .     S
C415   C416    1.518   .     S
C415   O460    1.412   .     S
C415   H678    1.113   .     S
C416   H445    1.109   .     S
C416   H446    1.108   .     S
C416   H447    1.110   .     S
C417   C419    1.407   .     A
C417   O458    1.383   .     S
C418   F425    1.359   .     S
C418   C1106   1.385   1_554 S
C419   C1107   1.390   .     S
C419   F270    1.360   1_655 S
C420   C655    1.350   .     S
C420   O693    1.387   .     S
C422   O464    1.306   .     A
C422   O466    1.297   .     A
Cu423  N456    2.031   .     S
Cu423  Cu424   2.703   .     S
Cu423  O457    1.970   .     S
Cu423  O463    1.966   .     S
Cu423  O467    1.930   .     S
Cu423  O464    1.947   .     S
Cu424  O465    1.947   .     S
Cu424  N455    2.031   .     S
Cu424  O462    1.966   .     S
Cu424  O461    1.970   .     S
Cu424  O466    1.930   .     S
F430   N300    1.335   1_655 S
H437   C646    1.118   .     S
H441   C648    1.109   .     S
H452   C253    1.109   1_655 S
H453   C643    1.108   .     S
N455   F273    1.332   1_655 S
N455   N300    1.293   1_655 S
O460   C655    1.387   .     S
C469   O540    1.294   .     A
C469   C498    1.435   .     S
C469   O535    1.291   .     A
C470   C472    1.476   .     S
C470   O545    1.297   .     A
C470   O543    1.313   .     A
C471   C475    1.392   .     A
C471   C477    1.401   .     A
C471   C500    1.459   .     S
C472   C476    1.399   .     A
C472   C478    1.411   .     A
C473   H526    1.084   .     S
C473   C475    1.385   .     A
C473   C482    1.403   .     A
C474   C483    1.408   .     A
C474   C476    1.395   .     A
C474   H605    1.084   .     S
C475   H520    1.079   .     S
C476   H509    1.082   .     S
C477   F506    1.358   .     S
C477   C479    1.417   .     A
C478   F505    1.359   .     S
C478   C481    1.403   .     A
C479   C482    1.417   .     A
C479   C484    1.436   .     A
C480   O541    1.294   .     A
C480   O539    1.292   .     A
C480   C499    1.433   .     S
C481   C483    1.408   .     A
C481   C485    1.427   .     A
C482   C1198   1.385   .     S
C483   C1199   1.390   1_554 S
C484   C495    1.433   .     A
C484   C1187   1.432   .     S
C485   C491    1.431   .     A
C485   C1186   1.432   1_554 S
C486   C487    1.524   .     S
C486   O546    1.417   .     S
C486   H528    1.111   .     S
C486   H529    1.116   .     S
C487   H532    1.110   .     S
C487   H686    1.109   1_455 S
C488   H511    1.105   .     S
C488   O536    1.412   .     S
C488   C489    1.528   .     S
C488   H588    1.102   .     S
C489   H513    1.110   .     S
C489   H512    1.107   .     S
C489   H514    1.098   .     S
C490   H516    1.109   .     S
C490   O537    1.417   .     S
C490   C492    1.520   .     S
C491   C496    1.397   .     A
C491   O546    1.388   .     S
C492   H518    1.111   .     S
C492   H517    1.110   .     S
C493   H521    1.117   .     S
C493   C494    1.518   .     S
C493   O538    1.412   .     S
C493   H54     1.113   1_565 S
C494   H523    1.109   .     S
C494   H524    1.108   .     S
C494   H525    1.110   .     S
C495   C497    1.407   .     A
C495   O536    1.383   .     S
C496   F503    1.359   .     S
C496   C1184   1.385   1_554 S
C497   C1185   1.390   .     S
C497   F582    1.360   .     S
C498   C31     1.350   1_565 S
C498   O69     1.387   1_565 S
C500   O542    1.306   .     A
C500   O544    1.297   .     A
Cu501  N534    2.031   .     S
Cu501  Cu502   2.703   .     S
Cu501  O535    1.970   .     S
Cu501  O541    1.966   .     S
Cu501  O545    1.930   .     S
Cu501  O542    1.947   .     S
Cu502  O543    1.947   .     S
Cu502  N533    2.031   .     S
Cu502  O540    1.966   .     S
Cu502  O539    1.970   .     S
Cu502  O544    1.930   .     S
F504   C653    1.360   1_455 S
F507   N689    1.332   1_455 S
F508   N612    1.335   .     S
H510   C644    1.102   1_455 S
H515   C22     1.118   1_565 S
H519   C24     1.109   1_565 S
H527   C630    1.084   1_455 S
H530   C565    1.109   .     S
H531   C19     1.108   1_565 S
N533   F585    1.332   .     S
N533   N612    1.293   .     S
N534   F664    1.335   1_455 S
N534   N689    1.293   1_455 S
O538   C31     1.387   1_565 S
C547   O618    1.294   .     A
C547   C576    1.435   .     S
C547   O613    1.291   .     A
C548   C550    1.476   .     S
C548   O623    1.297   .     A
C548   O621    1.313   .     A
C549   C553    1.392   .     A
C549   C555    1.401   .     A
C549   C578    1.459   .     S
C550   C554    1.399   .     A
C550   C556    1.411   .     A
C551   H604    1.084   .     S
C551   C553    1.385   .     A
C551   C560    1.403   .     A
C552   C561    1.408   .     A
C552   C554    1.395   .     A
C552   H683    1.084   .     S
C553   H598    1.079   .     S
C554   H587    1.082   .     S
C555   F584    1.358   .     S
C555   C557    1.417   .     A
C556   F583    1.359   .     S
C556   C559    1.403   .     A
C557   C560    1.417   .     A
C557   C562    1.436   .     A
C558   O619    1.294   .     A
C558   O617    1.292   .     A
C558   C577    1.433   .     S
C559   C561    1.408   .     A
C559   C563    1.427   .     A
C560   C1276   1.385   .     S
C561   C1277   1.390   1_554 S
C562   C573    1.433   .     A
C562   C1265   1.432   .     S
C563   C569    1.431   .     A
C563   C1264   1.432   1_554 S
C564   C565    1.524   .     S
C564   O624    1.417   .     S
C564   H606    1.111   .     S
C564   H607    1.116   .     S
C565   H610    1.110   .     S
C566   H589    1.105   .     S
C566   O614    1.412   .     S
C566   C567    1.528   .     S
C566   H666    1.102   .     S
C567   H591    1.110   .     S
C567   H590    1.107   .     S
C567   H592    1.098   .     S
C568   H594    1.109   .     S
C568   O615    1.417   .     S
C568   C570    1.520   .     S
C569   C574    1.397   .     A
C569   O624    1.388   .     S
C570   H596    1.111   .     S
C570   H595    1.110   .     S
C571   H599    1.117   .     S
C571   C572    1.518   .     S
C571   O616    1.412   .     S
C571   H132    1.113   1_565 S
C572   H601    1.109   .     S
C572   H602    1.108   .     S
C572   H603    1.110   .     S
C573   C575    1.407   .     A
C573   O614    1.383   .     S
C574   F581    1.359   .     S
C574   C1262   1.385   1_554 S
C575   C1263   1.390   .     S
C575   F660    1.360   .     S
C576   C109    1.350   1_565 S
C576   O147    1.387   1_565 S
C578   O620    1.306   .     A
C578   O622    1.297   .     A
Cu579  N612    2.031   .     S
Cu579  Cu580   2.703   .     S
Cu579  O613    1.970   .     S
Cu579  O619    1.966   .     S
Cu579  O623    1.930   .     S
Cu579  O620    1.947   .     S
Cu580  O621    1.947   .     S
Cu580  N611    2.031   .     S
Cu580  O618    1.966   .     S
Cu580  O617    1.970   .     S
Cu580  O622    1.930   .     S
F586   N690    1.335   .     S
H593   C100    1.118   1_565 S
H597   C102    1.109   1_565 S
H608   C643    1.109   .     S
H609   C97     1.108   1_565 S
N611   F663    1.332   .     S
N611   N690    1.293   .     S
O616   C109    1.387   1_565 S
C625   O696    1.294   .     A
C625   C654    1.435   .     S
C625   O691    1.291   .     A
C626   C628    1.476   .     S
C626   O701    1.297   .     A
C626   O699    1.313   .     A
C627   C631    1.392   .     A
C627   C633    1.401   .     A
C627   C656    1.459   .     S
C628   C632    1.399   .     A
C628   C634    1.411   .     A
C629   H682    1.084   .     S
C629   C631    1.385   .     A
C629   C638    1.403   .     A
C630   C639    1.408   .     A
C630   C632    1.395   .     A
C630   H527    1.084   1_655 S
C631   H676    1.079   .     S
C632   H665    1.082   .     S
C633   F662    1.358   .     S
C633   C635    1.417   .     A
C634   F661    1.359   .     S
C634   C637    1.403   .     A
C635   C638    1.417   .     A
C635   C640    1.436   .     A
C636   O697    1.294   .     A
C636   O695    1.292   .     A
C636   C655    1.433   .     S
C637   C639    1.408   .     A
C637   C641    1.427   .     A
C638   C1354   1.385   .     S
C639   C1355   1.390   1_554 S
C640   C651    1.433   .     A
C640   C1343   1.432   .     S
C641   C647    1.431   .     A
C641   C1342   1.432   1_554 S
C642   C643    1.524   .     S
C642   O702    1.417   .     S
C642   H684    1.111   .     S
C642   H685    1.116   .     S
C643   H688    1.110   .     S
C644   H667    1.105   .     S
C644   O692    1.412   .     S
C644   C645    1.528   .     S
C644   H510    1.102   1_655 S
C645   H669    1.110   .     S
C645   H668    1.107   .     S
C645   H670    1.098   .     S
C646   H672    1.109   .     S
C646   O693    1.417   .     S
C646   C648    1.520   .     S
C647   C652    1.397   .     A
C647   O702    1.388   .     S
C648   H674    1.111   .     S
C648   H673    1.110   .     S
C649   H677    1.117   .     S
C649   C650    1.518   .     S
C649   O694    1.412   .     S
C649   H210    1.113   1_565 S
C650   H679    1.109   .     S
C650   H680    1.108   .     S
C650   H681    1.110   .     S
C651   C653    1.407   .     A
C651   O692    1.383   .     S
C652   F659    1.359   .     S
C652   C1340   1.385   1_554 S
C653   C1341   1.390   .     S
C653   F504    1.360   1_655 S
C654   C187    1.350   1_565 S
C654   O225    1.387   1_565 S
C656   O698    1.306   .     A
C656   O700    1.297   .     A
Cu657  N690    2.031   .     S
Cu657  Cu658   2.703   .     S
Cu657  O691    1.970   .     S
Cu657  O697    1.966   .     S
Cu657  O701    1.930   .     S
Cu657  O698    1.947   .     S
Cu658  O699    1.947   .     S
Cu658  N689    2.031   .     S
Cu658  O696    1.966   .     S
Cu658  O695    1.970   .     S
Cu658  O700    1.930   .     S
F664   N534    1.335   1_655 S
H671   C178    1.118   1_565 S
H675   C180    1.109   1_565 S
H686   C487    1.109   1_655 S
H687   C175    1.108   1_565 S
N689   F507    1.332   1_655 S
N689   N534    1.293   1_655 S
O694   C187    1.387   1_565 S
C703   O774    1.294   .     A
C703   C732    1.435   .     S
C703   O769    1.291   .     A
C704   C706    1.476   .     S
C704   O779    1.297   .     A
C704   O777    1.313   .     A
C705   C709    1.392   .     A
C705   C711    1.401   .     A
C705   C734    1.459   .     S
C706   C710    1.399   .     A
C706   C712    1.411   .     A
C707   H760    1.084   .     S
C707   C709    1.385   .     A
C707   C716    1.403   .     A
C708   C717    1.408   .     A
C708   C710    1.395   .     A
C708   H839    1.084   .     S
C709   H754    1.079   .     S
C710   H743    1.082   .     S
C711   F740    1.358   .     S
C711   C713    1.417   .     A
C712   F739    1.359   .     S
C712   C715    1.403   .     A
C713   C716    1.417   .     A
C713   C718    1.436   .     A
C714   O775    1.294   .     A
C714   O773    1.292   .     A
C714   C733    1.433   .     S
C715   C717    1.408   .     A
C715   C719    1.427   .     A
C716   C28     1.385   1_556 S
C718   C729    1.433   .     A
C718   C17     1.432   1_556 S
C719   C725    1.431   .     A
C720   C721    1.524   .     S
C720   O780    1.417   .     S
C720   H762    1.111   .     S
C720   H763    1.116   .     S
C721   H766    1.110   .     S
C721   H920    1.109   1_455 S
C721   H1233   1.108   1_545 S
C722   H745    1.105   .     S
C722   O770    1.412   .     S
C722   C723    1.528   .     S
C722   H822    1.102   .     S
C723   H747    1.110   .     S
C723   H746    1.107   .     S
C723   H748    1.098   .     S
C724   H750    1.109   .     S
C724   O771    1.417   .     S
C724   C726    1.520   .     S
C724   H1217   1.118   1_545 S
C725   C730    1.397   .     A
C725   O780    1.388   .     S
C726   H752    1.111   .     S
C726   H751    1.110   .     S
C726   H1221   1.109   1_545 S
C727   H755    1.117   .     S
C727   C728    1.518   .     S
C727   O772    1.412   .     S
C727   H990    1.113   .     S
C728   H757    1.109   .     S
C728   H758    1.108   .     S
C728   H759    1.110   .     S
C729   C731    1.407   .     A
C729   O770    1.383   .     S
C730   F737    1.359   .     S
C731   C15     1.390   1_556 S
C731   F816    1.360   .     S
C732   C967    1.350   .     S
C732   O1005   1.387   .     S
C733   C1200   1.350   1_545 S
C733   O1240   1.387   1_545 S
C734   O776    1.306   .     A
C734   O778    1.297   .     A
Cu735  N768    2.031   .     S
Cu735  Cu736   2.703   .     S
Cu735  O769    1.970   .     S
Cu735  O775    1.966   .     S
Cu735  O779    1.930   .     S
Cu735  O776    1.947   .     S
Cu736  O777    1.947   .     S
Cu736  N767    2.031   .     S
Cu736  O774    1.966   .     S
Cu736  O773    1.970   .     S
Cu736  O778    1.930   .     S
F738   C887    1.360   1_455 S
F741   N923    1.332   1_455 S
F742   N846    1.335   .     S
H744   C878    1.102   1_455 S
H749   C958    1.118   .     S
H753   C960    1.109   .     S
H756   C1195   1.113   1_545 S
H761   C864    1.084   1_455 S
H764   C799    1.109   .     S
H765   C955    1.108   .     S
N767   F819    1.332   .     S
N767   N846    1.293   .     S
N768   F898    1.335   1_455 S
N768   N923    1.293   1_455 S
O771   C1200   1.387   1_545 S
O772   C967    1.387   .     S
C781   O852    1.294   .     A
C781   C810    1.435   .     S
C781   O847    1.291   .     A
C782   C784    1.476   .     S
C782   O857    1.297   .     A
C782   O855    1.313   .     A
C783   C787    1.392   .     A
C783   C789    1.401   .     A
C783   C812    1.459   .     S
C784   C788    1.399   .     A
C784   C790    1.411   .     A
C785   H838    1.084   .     S
C785   C787    1.385   .     A
C785   C794    1.403   .     A
C786   C795    1.408   .     A
C786   C788    1.395   .     A
C786   H917    1.084   .     S
C787   H832    1.079   .     S
C788   H821    1.082   .     S
C789   F818    1.358   .     S
C789   C791    1.417   .     A
C790   F817    1.359   .     S
C790   C793    1.403   .     A
C791   C794    1.417   .     A
C791   C796    1.436   .     A
C792   O853    1.294   .     A
C792   O851    1.292   .     A
C792   C811    1.433   .     S
C793   C795    1.408   .     A
C793   C797    1.427   .     A
C794   C106    1.385   1_556 S
C796   C807    1.433   .     A
C796   C95     1.432   1_556 S
C797   C803    1.431   .     A
C798   C799    1.524   .     S
C798   O858    1.417   .     S
C798   H840    1.111   .     S
C798   H841    1.116   .     S
C799   H844    1.110   .     S
C799   H1311   1.108   1_545 S
C800   H823    1.105   .     S
C800   O848    1.412   .     S
C800   C801    1.528   .     S
C800   H900    1.102   .     S
C801   H825    1.110   .     S
C801   H824    1.107   .     S
C801   H826    1.098   .     S
C802   H828    1.109   .     S
C802   O849    1.417   .     S
C802   C804    1.520   .     S
C802   H1295   1.118   1_545 S
C803   C808    1.397   .     A
C803   O858    1.388   .     S
C804   H830    1.111   .     S
C804   H829    1.110   .     S
C804   H1299   1.109   1_545 S
C805   H833    1.117   .     S
C805   C806    1.518   .     S
C805   O850    1.412   .     S
C805   H1068   1.113   .     S
C806   H835    1.109   .     S
C806   H836    1.108   .     S
C806   H837    1.110   .     S
C807   C809    1.407   .     A
C807   O848    1.383   .     S
C808   F815    1.359   .     S
C809   C93     1.390   1_556 S
C809   F894    1.360   .     S
C810   C1045   1.350   .     S
C810   O1083   1.387   .     S
C811   C1278   1.350   1_545 S
C811   O1318   1.387   1_545 S
C812   O854    1.306   .     A
C812   O856    1.297   .     A
Cu813  N846    2.031   .     S
Cu813  Cu814   2.703   .     S
Cu813  O847    1.970   .     S
Cu813  O853    1.966   .     S
Cu813  O857    1.930   .     S
Cu813  O854    1.947   .     S
Cu814  O855    1.947   .     S
Cu814  N845    2.031   .     S
Cu814  O852    1.966   .     S
Cu814  O851    1.970   .     S
Cu814  O856    1.930   .     S
F820   N924    1.335   .     S
H827   C1036   1.118   .     S
H831   C1038   1.109   .     S
H834   C1273   1.113   1_545 S
H842   C877    1.109   .     S
H843   C1033   1.108   .     S
N845   F897    1.332   .     S
N845   N924    1.293   .     S
O849   C1278   1.387   1_545 S
O850   C1045   1.387   .     S
C859   O930    1.294   .     A
C859   C888    1.435   .     S
C859   O925    1.291   .     A
C860   C862    1.476   .     S
C860   O935    1.297   .     A
C860   O933    1.313   .     A
C861   C865    1.392   .     A
C861   C867    1.401   .     A
C861   C890    1.459   .     S
C862   C866    1.399   .     A
C862   C868    1.411   .     A
C863   H916    1.084   .     S
C863   C865    1.385   .     A
C863   C872    1.403   .     A
C864   C873    1.408   .     A
C864   C866    1.395   .     A
C864   H761    1.084   1_655 S
C865   H910    1.079   .     S
C866   H899    1.082   .     S
C867   F896    1.358   .     S
C867   C869    1.417   .     A
C868   F895    1.359   .     S
C868   C871    1.403   .     A
C869   C872    1.417   .     A
C869   C874    1.436   .     A
C870   O931    1.294   .     A
C870   O929    1.292   .     A
C870   C889    1.433   .     S
C871   C873    1.408   .     A
C871   C875    1.427   .     A
C872   C184    1.385   1_556 S
C874   C885    1.433   .     A
C874   C173    1.432   1_556 S
C875   C881    1.431   .     A
C876   C877    1.524   .     S
C876   O936    1.417   .     S
C876   H918    1.111   .     S
C876   H919    1.116   .     S
C877   H922    1.110   .     S
C877   H1389   1.108   1_545 S
C878   H901    1.105   .     S
C878   O926    1.412   .     S
C878   C879    1.528   .     S
C878   H744    1.102   1_655 S
C879   H903    1.110   .     S
C879   H902    1.107   .     S
C879   H904    1.098   .     S
C880   H906    1.109   .     S
C880   O927    1.417   .     S
C880   C882    1.520   .     S
C880   H1373   1.118   1_545 S
C881   C886    1.397   .     A
C881   O936    1.388   .     S
C882   H908    1.111   .     S
C882   H907    1.110   .     S
C882   H1377   1.109   1_545 S
C883   H911    1.117   .     S
C883   C884    1.518   .     S
C883   O928    1.412   .     S
C883   H1146   1.113   .     S
C884   H913    1.109   .     S
C884   H914    1.108   .     S
C884   H915    1.110   .     S
C885   C887    1.407   .     A
C885   O926    1.383   .     S
C886   F893    1.359   .     S
C887   C171    1.390   1_556 S
C887   F738    1.360   1_655 S
C888   C1123   1.350   .     S
C888   O1161   1.387   .     S
C889   C1356   1.350   1_545 S
C889   O1396   1.387   1_545 S
C890   O932    1.306   .     A
C890   O934    1.297   .     A
Cu891  N924    2.031   .     S
Cu891  Cu892   2.703   .     S
Cu891  O925    1.970   .     S
Cu891  O931    1.966   .     S
Cu891  O935    1.930   .     S
Cu891  O932    1.947   .     S
Cu892  O933    1.947   .     S
Cu892  N923    2.031   .     S
Cu892  O930    1.966   .     S
Cu892  O929    1.970   .     S
Cu892  O934    1.930   .     S
F898   N768    1.335   1_655 S
H905   C1114   1.118   .     S
H909   C1116   1.109   .     S
H912   C1351   1.113   1_545 S
H920   C721    1.109   1_655 S
H921   C1111   1.108   .     S
N923   F741    1.332   1_655 S
N923   N768    1.293   1_655 S
O927   C1356   1.387   1_545 S
O928   C1123   1.387   .     S
C937   O1008   1.294   .     A
C937   C966    1.435   .     S
C937   O1003   1.291   .     A
C938   C940    1.476   .     S
C938   O1013   1.297   .     A
C938   O1011   1.313   .     A
C939   C943    1.392   .     A
C939   C945    1.401   .     A
C939   C968    1.459   .     S
C940   C944    1.399   .     A
C940   C946    1.411   .     A
C941   H994    1.084   .     S
C941   C943    1.385   .     A
C941   C950    1.403   .     A
C942   C951    1.408   .     A
C942   C944    1.395   .     A
C942   H1073   1.084   .     S
C943   H988    1.079   .     S
C944   H977    1.082   .     S
C945   F974    1.358   .     S
C945   C947    1.417   .     A
C946   F973    1.359   .     S
C946   C949    1.403   .     A
C947   C950    1.417   .     A
C947   C952    1.436   .     A
C948   O1009   1.294   .     A
C948   O1007   1.292   .     A
C948   C967    1.433   .     S
C949   C951    1.408   .     A
C949   C953    1.427   .     A
C950   C262    1.385   1_556 S
C952   C963    1.433   .     A
C952   C251    1.432   1_556 S
C953   C959    1.431   .     A
C954   C955    1.524   .     S
C954   O1014   1.417   .     S
C954   H996    1.111   .     S
C954   H997    1.116   .     S
C955   H1000   1.110   .     S
C955   H1154   1.109   1_455 S
C956   H979    1.105   .     S
C956   O1004   1.412   .     S
C956   C957    1.528   .     S
C956   H1056   1.102   .     S
C957   H981    1.110   .     S
C957   H980    1.107   .     S
C957   H982    1.098   .     S
C958   H984    1.109   .     S
C958   O1005   1.417   .     S
C958   C960    1.520   .     S
C959   C964    1.397   .     A
C959   O1014   1.388   .     S
C960   H986    1.111   .     S
C960   H985    1.110   .     S
C961   H989    1.117   .     S
C961   C962    1.518   .     S
C961   O1006   1.412   .     S
C961   H1224   1.113   .     S
C962   H991    1.109   .     S
C962   H992    1.108   .     S
C962   H993    1.110   .     S
C963   C965    1.407   .     A
C963   O1004   1.383   .     S
C964   F971    1.359   .     S
C965   C249    1.390   1_556 S
C965   F1050   1.360   .     S
C966   C1201   1.350   .     S
C966   O1239   1.387   .     S
C968   O1010   1.306   .     A
C968   O1012   1.297   .     A
Cu969  N1002   2.031   .     S
Cu969  Cu970   2.703   .     S
Cu969  O1003   1.970   .     S
Cu969  O1009   1.966   .     S
Cu969  O1013   1.930   .     S
Cu969  O1010   1.947   .     S
Cu970  O1011   1.947   .     S
Cu970  N1001   2.031   .     S
Cu970  O1008   1.966   .     S
Cu970  O1007   1.970   .     S
Cu970  O1012   1.930   .     S
F972   C1121   1.360   1_455 S
F975   N1157   1.332   1_455 S
F976   N1080   1.335   .     S
H978   C1112   1.102   1_455 S
H983   C1192   1.118   .     S
H987   C1194   1.109   .     S
H995   C1098   1.084   1_455 S
H998   C1033   1.109   .     S
H999   C1189   1.108   .     S
N1001  F1053   1.332   .     S
N1001  N1080   1.293   .     S
N1002  F1132   1.335   1_455 S
N1002  N1157   1.293   1_455 S
O1006  C1201   1.387   .     S
C1015  O1086   1.294   .     A
C1015  C1044   1.435   .     S
C1015  O1081   1.291   .     A
C1016  C1018   1.476   .     S
C1016  O1091   1.297   .     A
C1016  O1089   1.313   .     A
C1017  C1021   1.392   .     A
C1017  C1023   1.401   .     A
C1017  C1046   1.459   .     S
C1018  C1022   1.399   .     A
C1018  C1024   1.411   .     A
C1019  H1072   1.084   .     S
C1019  C1021   1.385   .     A
C1019  C1028   1.403   .     A
C1020  C1029   1.408   .     A
C1020  C1022   1.395   .     A
C1020  H1151   1.084   .     S
C1021  H1066   1.079   .     S
C1022  H1055   1.082   .     S
C1023  F1052   1.358   .     S
C1023  C1025   1.417   .     A
C1024  F1051   1.359   .     S
C1024  C1027   1.403   .     A
C1025  C1028   1.417   .     A
C1025  C1030   1.436   .     A
C1026  O1087   1.294   .     A
C1026  O1085   1.292   .     A
C1026  C1045   1.433   .     S
C1027  C1029   1.408   .     A
C1027  C1031   1.427   .     A
C1028  C340    1.385   1_556 S
C1030  C1041   1.433   .     A
C1030  C329    1.432   1_556 S
C1031  C1037   1.431   .     A
C1032  C1033   1.524   .     S
C1032  O1092   1.417   .     S
C1032  H1074   1.111   .     S
C1032  H1075   1.116   .     S
C1033  H1078   1.110   .     S
C1034  H1057   1.105   .     S
C1034  O1082   1.412   .     S
C1034  C1035   1.528   .     S
C1034  H1134   1.102   .     S
C1035  H1059   1.110   .     S
C1035  H1058   1.107   .     S
C1035  H1060   1.098   .     S
C1036  H1062   1.109   .     S
C1036  O1083   1.417   .     S
C1036  C1038   1.520   .     S
C1037  C1042   1.397   .     A
C1037  O1092   1.388   .     S
C1038  H1064   1.111   .     S
C1038  H1063   1.110   .     S
C1039  H1067   1.117   .     S
C1039  C1040   1.518   .     S
C1039  O1084   1.412   .     S
C1039  H1302   1.113   .     S
C1040  H1069   1.109   .     S
C1040  H1070   1.108   .     S
C1040  H1071   1.110   .     S
C1041  C1043   1.407   .     A
C1041  O1082   1.383   .     S
C1042  F1049   1.359   .     S
C1043  C327    1.390   1_556 S
C1043  F1128   1.360   .     S
C1044  C1279   1.350   .     S
C1044  O1317   1.387   .     S
C1046  O1088   1.306   .     A
C1046  O1090   1.297   .     A
Cu1047 N1080   2.031   .     S
Cu1047 Cu1048  2.703   .     S
Cu1047 O1081   1.970   .     S
Cu1047 O1087   1.966   .     S
Cu1047 O1091   1.930   .     S
Cu1047 O1088   1.947   .     S
Cu1048 O1089   1.947   .     S
Cu1048 N1079   2.031   .     S
Cu1048 O1086   1.966   .     S
Cu1048 O1085   1.970   .     S
Cu1048 O1090   1.930   .     S
F1054  N1158   1.335   .     S
H1061  C1270   1.118   .     S
H1065  C1272   1.109   .     S
H1076  C1111   1.109   .     S
H1077  C1267   1.108   .     S
N1079  F1131   1.332   .     S
N1079  N1158   1.293   .     S
O1084  C1279   1.387   .     S
C1093  O1164   1.294   .     A
C1093  C1122   1.435   .     S
C1093  O1159   1.291   .     A
C1094  C1096   1.476   .     S
C1094  O1169   1.297   .     A
C1094  O1167   1.313   .     A
C1095  C1099   1.392   .     A
C1095  C1101   1.401   .     A
C1095  C1124   1.459   .     S
C1096  C1100   1.399   .     A
C1096  C1102   1.411   .     A
C1097  H1150   1.084   .     S
C1097  C1099   1.385   .     A
C1097  C1106   1.403   .     A
C1098  C1107   1.408   .     A
C1098  C1100   1.395   .     A
C1098  H995    1.084   1_655 S
C1099  H1144   1.079   .     S
C1100  H1133   1.082   .     S
C1101  F1130   1.358   .     S
C1101  C1103   1.417   .     A
C1102  F1129   1.359   .     S
C1102  C1105   1.403   .     A
C1103  C1106   1.417   .     A
C1103  C1108   1.436   .     A
C1104  O1165   1.294   .     A
C1104  O1163   1.292   .     A
C1104  C1123   1.433   .     S
C1105  C1107   1.408   .     A
C1105  C1109   1.427   .     A
C1106  C418    1.385   1_556 S
C1108  C1119   1.433   .     A
C1108  C407    1.432   1_556 S
C1109  C1115   1.431   .     A
C1110  C1111   1.524   .     S
C1110  O1170   1.417   .     S
C1110  H1152   1.111   .     S
C1110  H1153   1.116   .     S
C1111  H1156   1.110   .     S
C1112  H1135   1.105   .     S
C1112  O1160   1.412   .     S
C1112  C1113   1.528   .     S
C1112  H978    1.102   1_655 S
C1113  H1137   1.110   .     S
C1113  H1136   1.107   .     S
C1113  H1138   1.098   .     S
C1114  H1140   1.109   .     S
C1114  O1161   1.417   .     S
C1114  C1116   1.520   .     S
C1115  C1120   1.397   .     A
C1115  O1170   1.388   .     S
C1116  H1142   1.111   .     S
C1116  H1141   1.110   .     S
C1117  H1145   1.117   .     S
C1117  C1118   1.518   .     S
C1117  O1162   1.412   .     S
C1117  H1380   1.113   .     S
C1118  H1147   1.109   .     S
C1118  H1148   1.108   .     S
C1118  H1149   1.110   .     S
C1119  C1121   1.407   .     A
C1119  O1160   1.383   .     S
C1120  F1127   1.359   .     S
C1121  C405    1.390   1_556 S
C1121  F972    1.360   1_655 S
C1122  C1357   1.350   .     S
C1122  O1395   1.387   .     S
C1124  O1166   1.306   .     A
C1124  O1168   1.297   .     A
Cu1125 N1158   2.031   .     S
Cu1125 Cu1126  2.703   .     S
Cu1125 O1159   1.970   .     S
Cu1125 O1165   1.966   .     S
Cu1125 O1169   1.930   .     S
Cu1125 O1166   1.947   .     S
Cu1126 O1167   1.947   .     S
Cu1126 N1157   2.031   .     S
Cu1126 O1164   1.966   .     S
Cu1126 O1163   1.970   .     S
Cu1126 O1168   1.930   .     S
F1132  N1002   1.335   1_655 S
H1139  C1348   1.118   .     S
H1143  C1350   1.109   .     S
H1154  C955    1.109   1_655 S
H1155  C1345   1.108   .     S
N1157  F975    1.332   1_655 S
N1157  N1002   1.293   1_655 S
O1162  C1357   1.387   .     S
C1171  O1242   1.294   .     A
C1171  C1200   1.435   .     S
C1171  O1237   1.291   .     A
C1172  C1174   1.476   .     S
C1172  O1247   1.297   .     A
C1172  O1245   1.313   .     A
C1173  C1177   1.392   .     A
C1173  C1179   1.401   .     A
C1173  C1202   1.459   .     S
C1174  C1178   1.399   .     A
C1174  C1180   1.411   .     A
C1175  H1228   1.084   .     S
C1175  C1177   1.385   .     A
C1175  C1184   1.403   .     A
C1176  C1185   1.408   .     A
C1176  C1178   1.395   .     A
C1176  H1307   1.084   .     S
C1177  H1222   1.079   .     S
C1178  H1211   1.082   .     S
C1179  F1208   1.358   .     S
C1179  C1181   1.417   .     A
C1180  F1207   1.359   .     S
C1180  C1183   1.403   .     A
C1181  C1184   1.417   .     A
C1181  C1186   1.436   .     A
C1182  O1243   1.294   .     A
C1182  O1241   1.292   .     A
C1182  C1201   1.433   .     S
C1183  C1185   1.408   .     A
C1183  C1187   1.427   .     A
C1184  C496    1.385   1_556 S
C1186  C1197   1.433   .     A
C1186  C485    1.432   1_556 S
C1187  C1193   1.431   .     A
C1188  C1189   1.524   .     S
C1188  O1248   1.417   .     S
C1188  H1230   1.111   .     S
C1188  H1231   1.116   .     S
C1189  H1234   1.110   .     S
C1189  H1388   1.109   1_455 S
C1190  H1213   1.105   .     S
C1190  O1238   1.412   .     S
C1190  C1191   1.528   .     S
C1190  H1290   1.102   .     S
C1191  H1215   1.110   .     S
C1191  H1214   1.107   .     S
C1191  H1216   1.098   .     S
C1192  H1218   1.109   .     S
C1192  O1239   1.417   .     S
C1192  C1194   1.520   .     S
C1193  C1198   1.397   .     A
C1193  O1248   1.388   .     S
C1194  H1220   1.111   .     S
C1194  H1219   1.110   .     S
C1195  H1223   1.117   .     S
C1195  C1196   1.518   .     S
C1195  O1240   1.412   .     S
C1195  H756    1.113   1_565 S
C1196  H1225   1.109   .     S
C1196  H1226   1.108   .     S
C1196  H1227   1.110   .     S
C1197  C1199   1.407   .     A
C1197  O1238   1.383   .     S
C1198  F1205   1.359   .     S
C1199  C483    1.390   1_556 S
C1199  F1284   1.360   .     S
C1200  C733    1.350   1_565 S
C1200  O771    1.387   1_565 S
C1202  O1244   1.306   .     A
C1202  O1246   1.297   .     A
Cu1203 N1236   2.031   .     S
Cu1203 Cu1204  2.703   .     S
Cu1203 O1237   1.970   .     S
Cu1203 O1243   1.966   .     S
Cu1203 O1247   1.930   .     S
Cu1203 O1244   1.947   .     S
Cu1204 O1245   1.947   .     S
Cu1204 N1235   2.031   .     S
Cu1204 O1242   1.966   .     S
Cu1204 O1241   1.970   .     S
Cu1204 O1246   1.930   .     S
F1206  C1355   1.360   1_455 S
F1209  N1391   1.332   1_455 S
F1210  N1314   1.335   .     S
H1212  C1346   1.102   1_455 S
H1217  C724    1.118   1_565 S
H1221  C726    1.109   1_565 S
H1229  C1332   1.084   1_455 S
H1232  C1267   1.109   .     S
H1233  C721    1.108   1_565 S
N1235  F1287   1.332   .     S
N1235  N1314   1.293   .     S
N1236  F1366   1.335   1_455 S
N1236  N1391   1.293   1_455 S
O1240  C733    1.387   1_565 S
C1249  O1320   1.294   .     A
C1249  C1278   1.435   .     S
C1249  O1315   1.291   .     A
C1250  C1252   1.476   .     S
C1250  O1325   1.297   .     A
C1250  O1323   1.313   .     A
C1251  C1255   1.392   .     A
C1251  C1257   1.401   .     A
C1251  C1280   1.459   .     S
C1252  C1256   1.399   .     A
C1252  C1258   1.411   .     A
C1253  H1306   1.084   .     S
C1253  C1255   1.385   .     A
C1253  C1262   1.403   .     A
C1254  C1263   1.408   .     A
C1254  C1256   1.395   .     A
C1254  H1385   1.084   .     S
C1255  H1300   1.079   .     S
C1256  H1289   1.082   .     S
C1257  F1286   1.358   .     S
C1257  C1259   1.417   .     A
C1258  F1285   1.359   .     S
C1258  C1261   1.403   .     A
C1259  C1262   1.417   .     A
C1259  C1264   1.436   .     A
C1260  O1321   1.294   .     A
C1260  O1319   1.292   .     A
C1260  C1279   1.433   .     S
C1261  C1263   1.408   .     A
C1261  C1265   1.427   .     A
C1262  C574    1.385   1_556 S
C1264  C1275   1.433   .     A
C1264  C563    1.432   1_556 S
C1265  C1271   1.431   .     A
C1266  C1267   1.524   .     S
C1266  O1326   1.417   .     S
C1266  H1308   1.111   .     S
C1266  H1309   1.116   .     S
C1267  H1312   1.110   .     S
C1268  H1291   1.105   .     S
C1268  O1316   1.412   .     S
C1268  C1269   1.528   .     S
C1268  H1368   1.102   .     S
C1269  H1293   1.110   .     S
C1269  H1292   1.107   .     S
C1269  H1294   1.098   .     S
C1270  H1296   1.109   .     S
C1270  O1317   1.417   .     S
C1270  C1272   1.520   .     S
C1271  C1276   1.397   .     A
C1271  O1326   1.388   .     S
C1272  H1298   1.111   .     S
C1272  H1297   1.110   .     S
C1273  H1301   1.117   .     S
C1273  C1274   1.518   .     S
C1273  O1318   1.412   .     S
C1273  H834    1.113   1_565 S
C1274  H1303   1.109   .     S
C1274  H1304   1.108   .     S
C1274  H1305   1.110   .     S
C1275  C1277   1.407   .     A
C1275  O1316   1.383   .     S
C1276  F1283   1.359   .     S
C1277  C561    1.390   1_556 S
C1277  F1362   1.360   .     S
C1278  C811    1.350   1_565 S
C1278  O849    1.387   1_565 S
C1280  O1322   1.306   .     A
C1280  O1324   1.297   .     A
Cu1281 N1314   2.031   .     S
Cu1281 Cu1282  2.703   .     S
Cu1281 O1315   1.970   .     S
Cu1281 O1321   1.966   .     S
Cu1281 O1325   1.930   .     S
Cu1281 O1322   1.947   .     S
Cu1282 O1323   1.947   .     S
Cu1282 N1313   2.031   .     S
Cu1282 O1320   1.966   .     S
Cu1282 O1319   1.970   .     S
Cu1282 O1324   1.930   .     S
F1288  N1392   1.335   .     S
H1295  C802    1.118   1_565 S
H1299  C804    1.109   1_565 S
H1310  C1345   1.109   .     S
H1311  C799    1.108   1_565 S
N1313  F1365   1.332   .     S
N1313  N1392   1.293   .     S
O1318  C811    1.387   1_565 S
C1327  O1398   1.294   .     A
C1327  C1356   1.435   .     S
C1327  O1393   1.291   .     A
C1328  C1330   1.476   .     S
C1328  O1403   1.297   .     A
C1328  O1401   1.313   .     A
C1329  C1333   1.392   .     A
C1329  C1335   1.401   .     A
C1329  C1358   1.459   .     S
C1330  C1334   1.399   .     A
C1330  C1336   1.411   .     A
C1331  H1384   1.084   .     S
C1331  C1333   1.385   .     A
C1331  C1340   1.403   .     A
C1332  C1341   1.408   .     A
C1332  C1334   1.395   .     A
C1332  H1229   1.084   1_655 S
C1333  H1378   1.079   .     S
C1334  H1367   1.082   .     S
C1335  F1364   1.358   .     S
C1335  C1337   1.417   .     A
C1336  F1363   1.359   .     S
C1336  C1339   1.403   .     A
C1337  C1340   1.417   .     A
C1337  C1342   1.436   .     A
C1338  O1399   1.294   .     A
C1338  O1397   1.292   .     A
C1338  C1357   1.433   .     S
C1339  C1341   1.408   .     A
C1339  C1343   1.427   .     A
C1340  C652    1.385   1_556 S
C1342  C1353   1.433   .     A
C1342  C641    1.432   1_556 S
C1343  C1349   1.431   .     A
C1344  C1345   1.524   .     S
C1344  O1404   1.417   .     S
C1344  H1386   1.111   .     S
C1344  H1387   1.116   .     S
C1345  H1390   1.110   .     S
C1346  H1369   1.105   .     S
C1346  O1394   1.412   .     S
C1346  C1347   1.528   .     S
C1346  H1212   1.102   1_655 S
C1347  H1371   1.110   .     S
C1347  H1370   1.107   .     S
C1347  H1372   1.098   .     S
C1348  H1374   1.109   .     S
C1348  O1395   1.417   .     S
C1348  C1350   1.520   .     S
C1349  C1354   1.397   .     A
C1349  O1404   1.388   .     S
C1350  H1376   1.111   .     S
C1350  H1375   1.110   .     S
C1351  H1379   1.117   .     S
C1351  C1352   1.518   .     S
C1351  O1396   1.412   .     S
C1351  H912    1.113   1_565 S
C1352  H1381   1.109   .     S
C1352  H1382   1.108   .     S
C1352  H1383   1.110   .     S
C1353  C1355   1.407   .     A
C1353  O1394   1.383   .     S
C1354  F1361   1.359   .     S
C1355  C639    1.390   1_556 S
C1355  F1206   1.360   1_655 S
C1356  C889    1.350   1_565 S
C1356  O927    1.387   1_565 S
C1358  O1400   1.306   .     A
C1358  O1402   1.297   .     A
Cu1359 N1392   2.031   .     S
Cu1359 Cu1360  2.703   .     S
Cu1359 O1393   1.970   .     S
Cu1359 O1399   1.966   .     S
Cu1359 O1403   1.930   .     S
Cu1359 O1400   1.947   .     S
Cu1360 O1401   1.947   .     S
Cu1360 N1391   2.031   .     S
Cu1360 O1398   1.966   .     S
Cu1360 O1397   1.970   .     S
Cu1360 O1402   1.930   .     S
F1366  N1236   1.335   1_655 S
H1373  C880    1.118   1_565 S
H1377  C882    1.109   1_565 S
H1388  C1189   1.109   1_655 S
H1389  C877    1.108   1_565 S
N1391  F1209   1.332   1_655 S
N1391  N1236   1.293   1_655 S
O1396  C889    1.387   1_565 S
