data_str_m2_o10_o18_pcu_sym.21
_audit_creation_date              2020-01-03
_audit_creation_method            'Materials Studio'
_symmetry_space_group_name_H-M    'P1'
_symmetry_Int_Tables_number       1
_symmetry_cell_setting            triclinic
loop_
_symmetry_equiv_pos_as_xyz
  x,y,z
_cell_length_a                    22.3631
_cell_length_b                    26.0326
_cell_length_c                    31.5157
_cell_angle_alpha                 94.3111
_cell_angle_beta                  75.4177
_cell_angle_gamma                 103.1702
loop_
_atom_site_label
_atom_site_type_symbol
_atom_site_fract_x
_atom_site_fract_y
_atom_site_fract_z
_atom_site_U_iso_or_equiv
_atom_site_adp_type
_atom_site_occupancy
C1     C     0.18170   0.26671   0.25131   0.00000  Uiso   1.00
C2     C     0.20476   0.16865   0.16695   0.00000  Uiso   1.00
C3     C     0.10823   0.17326   0.38035   0.00000  Uiso   1.00
C4     C     0.22510   0.16007   0.11965   0.00000  Uiso   1.00
C5     C     0.06739   0.23052   0.43932   0.00000  Uiso   1.00
C6     C     0.26592   0.10279   0.06068   0.00000  Uiso   1.00
C7     C     0.07159   0.21043   0.39655   0.00000  Uiso   1.00
C8     C     0.26173   0.12289   0.10345   0.00000  Uiso   1.00
C9     C     0.13810   0.15378   0.40753   0.00000  Uiso   1.00
C10    C     0.19523   0.17955   0.09247   0.00000  Uiso   1.00
C11    C     0.13476   0.17267   0.45097   0.00000  Uiso   1.00
C12    C     0.15164   0.06663   0.24869   0.00000  Uiso   1.00
C13    C     0.19855   0.16065   0.04903   0.00000  Uiso   1.00
C14    C     0.09989   0.21252   0.46634   0.00000  Uiso   1.00
C15    C     0.23342   0.12080   0.03366   0.00000  Uiso   1.00
C16    C     0.16735   0.15490   0.47875   0.00000  Uiso   1.00
C17    C     0.16596   0.17841   0.02126   0.00000  Uiso   1.00
C18    C     0.30737   0.25453   0.46780   0.00000  Uiso   1.00
C19    C     0.02593   0.07877   0.03220   0.00000  Uiso   1.00
C20    C     0.13225   0.21906   0.03453   0.00000  Uiso   1.00
C21    C     0.20104   0.11425   0.46548   0.00000  Uiso   1.00
C22    C     0.09941   0.23508   0.00793   0.00000  Uiso   1.00
C23    C     0.23388   0.09823   0.49208   0.00000  Uiso   1.00
C24    C     0.19014   0.32271   0.25194   0.00000  Uiso   1.00
C25    C     0.14319   0.01063   0.24806   0.00000  Uiso   1.00
C26    C     0.12857   0.16468   0.33305   0.00000  Uiso   1.00
Cu27   Cu    0.10737   0.16108   0.24517   0.00000  Uiso   1.00
Cu28   Cu    0.22596   0.17225   0.25484   0.00000  Uiso   1.00
H29    H     0.07412   0.26616   0.02009   0.00000  Uiso   1.00
H30    H     0.09797   0.32012   0.24439   0.00000  Uiso   1.00
H31    H     0.00134   0.20528   0.28449   0.00000  Uiso   1.00
H32    H     0.33199   0.12805   0.21551   0.00000  Uiso   1.00
H33    H     0.28576   0.23225   0.44184   0.00000  Uiso   1.00
H34    H     0.28488   0.28877   0.47807   0.00000  Uiso   1.00
H35    H     0.29733   0.22982   0.49706   0.00000  Uiso   1.00
H36    H     0.04841   0.04453   0.02193   0.00000  Uiso   1.00
H37    H     0.04756   0.10108   0.05814   0.00000  Uiso   1.00
H38    H     0.03596   0.10346   0.00293   0.00000  Uiso   1.00
H39    H     0.25916   0.06714   0.47992   0.00000  Uiso   1.00
H40    H     0.16632   0.20699   0.10748   0.00000  Uiso   1.00
H41    H     0.16703   0.12635   0.39252   0.00000  Uiso   1.00
H42    H     0.28249   0.10592   0.12511   0.00000  Uiso   1.00
H43    H     0.05083   0.22740   0.37489   0.00000  Uiso   1.00
H44    H     0.13055   0.24018   0.06532   0.00000  Uiso   1.00
H45    H     0.20272   0.09311   0.43470   0.00000  Uiso   1.00
H46    H     0.23536   0.01322   0.25561   0.00000  Uiso   1.00
N47    N     0.31506   0.18068   0.26212   0.00000  Uiso   1.00
N48    N     0.01827   0.15265   0.23788   0.00000  Uiso   1.00
O49    O     0.12815   0.23809   0.24686   0.00000  Uiso   1.00
O50    O     0.29369   0.05998   0.04789   0.00000  Uiso   1.00
O51    O     0.20518   0.09524   0.25314   0.00000  Uiso   1.00
O52    O     0.22829   0.24753   0.25503   0.00000  Uiso   1.00
O53    O     0.10504   0.08580   0.24498   0.00000  Uiso   1.00
O54    O     0.08851   0.15930   0.30855   0.00000  Uiso   1.00
O55    O     0.24482   0.17403   0.19146   0.00000  Uiso   1.00
O56    O     0.18866   0.16874   0.31671   0.00000  Uiso   1.00
O57    O     0.14468   0.16460   0.18329   0.00000  Uiso   1.00
O58    O     0.03961   0.27333   0.45212   0.00000  Uiso   1.00
C59    C     0.51503   0.26671   0.25131   0.00000  Uiso   1.00
C60    C     0.53809   0.16865   0.16695   0.00000  Uiso   1.00
C61    C     0.44157   0.17326   0.38035   0.00000  Uiso   1.00
C62    C     0.55843   0.16007   0.11965   0.00000  Uiso   1.00
C63    C     0.40073   0.23052   0.43932   0.00000  Uiso   1.00
C64    C     0.59925   0.10279   0.06068   0.00000  Uiso   1.00
C65    C     0.40492   0.21043   0.39655   0.00000  Uiso   1.00
C66    C     0.59507   0.12289   0.10345   0.00000  Uiso   1.00
C67    C     0.47143   0.15378   0.40753   0.00000  Uiso   1.00
C68    C     0.52856   0.17955   0.09247   0.00000  Uiso   1.00
C69    C     0.46810   0.17267   0.45097   0.00000  Uiso   1.00
C70    C     0.48497   0.06663   0.24869   0.00000  Uiso   1.00
C71    C     0.53188   0.16065   0.04903   0.00000  Uiso   1.00
C72    C     0.43322   0.21252   0.46634   0.00000  Uiso   1.00
C73    C     0.56675   0.12080   0.03366   0.00000  Uiso   1.00
C74    C     0.50068   0.15490   0.47875   0.00000  Uiso   1.00
C75    C     0.49929   0.17841   0.02126   0.00000  Uiso   1.00
C76    C     0.64070   0.25453   0.46780   0.00000  Uiso   1.00
C77    C     0.35926   0.07877   0.03220   0.00000  Uiso   1.00
C78    C     0.46558   0.21906   0.03453   0.00000  Uiso   1.00
C79    C     0.53438   0.11425   0.46548   0.00000  Uiso   1.00
C80    C     0.43275   0.23508   0.00793   0.00000  Uiso   1.00
C81    C     0.56721   0.09823   0.49208   0.00000  Uiso   1.00
C82    C     0.52347   0.32271   0.25194   0.00000  Uiso   1.00
C83    C     0.47653   0.01063   0.24806   0.00000  Uiso   1.00
C84    C     0.46191   0.16468   0.33305   0.00000  Uiso   1.00
Cu85   Cu    0.44071   0.16108   0.24517   0.00000  Uiso   1.00
Cu86   Cu    0.55929   0.17225   0.25484   0.00000  Uiso   1.00
H87    H     0.40746   0.26616   0.02009   0.00000  Uiso   1.00
H88    H     0.43131   0.32012   0.24439   0.00000  Uiso   1.00
H89    H     0.33467   0.20528   0.28449   0.00000  Uiso   1.00
H90    H     0.66533   0.12805   0.21551   0.00000  Uiso   1.00
H91    H     0.61909   0.23225   0.44184   0.00000  Uiso   1.00
H92    H     0.61821   0.28877   0.47807   0.00000  Uiso   1.00
H93    H     0.63067   0.22982   0.49706   0.00000  Uiso   1.00
H94    H     0.38175   0.04453   0.02193   0.00000  Uiso   1.00
H95    H     0.38089   0.10108   0.05814   0.00000  Uiso   1.00
H96    H     0.36929   0.10346   0.00293   0.00000  Uiso   1.00
H97    H     0.59249   0.06714   0.47992   0.00000  Uiso   1.00
H98    H     0.49965   0.20699   0.10748   0.00000  Uiso   1.00
H99    H     0.50036   0.12635   0.39252   0.00000  Uiso   1.00
H100   H     0.61583   0.10592   0.12511   0.00000  Uiso   1.00
H101   H     0.38416   0.22740   0.37489   0.00000  Uiso   1.00
H102   H     0.46389   0.24018   0.06532   0.00000  Uiso   1.00
H103   H     0.53606   0.09311   0.43470   0.00000  Uiso   1.00
H104   H     0.56869   0.01322   0.25561   0.00000  Uiso   1.00
N105   N     0.64839   0.18068   0.26212   0.00000  Uiso   1.00
N106   N     0.35161   0.15265   0.23788   0.00000  Uiso   1.00
O107   O     0.46148   0.23809   0.24686   0.00000  Uiso   1.00
O108   O     0.62703   0.05998   0.04789   0.00000  Uiso   1.00
O109   O     0.53852   0.09524   0.25314   0.00000  Uiso   1.00
O110   O     0.56163   0.24753   0.25503   0.00000  Uiso   1.00
O111   O     0.43837   0.08580   0.24498   0.00000  Uiso   1.00
O112   O     0.42185   0.15930   0.30855   0.00000  Uiso   1.00
O113   O     0.57815   0.17403   0.19146   0.00000  Uiso   1.00
O114   O     0.52199   0.16874   0.31671   0.00000  Uiso   1.00
O115   O     0.47801   0.16460   0.18329   0.00000  Uiso   1.00
O116   O     0.37294   0.27333   0.45212   0.00000  Uiso   1.00
C117   C     0.84836   0.26671   0.25131   0.00000  Uiso   1.00
C118   C     0.87143   0.16865   0.16695   0.00000  Uiso   1.00
C119   C     0.77490   0.17326   0.38035   0.00000  Uiso   1.00
C120   C     0.89176   0.16007   0.11965   0.00000  Uiso   1.00
C121   C     0.73406   0.23052   0.43932   0.00000  Uiso   1.00
C122   C     0.93258   0.10279   0.06068   0.00000  Uiso   1.00
C123   C     0.73825   0.21043   0.39655   0.00000  Uiso   1.00
C124   C     0.92840   0.12289   0.10345   0.00000  Uiso   1.00
C125   C     0.80477   0.15378   0.40753   0.00000  Uiso   1.00
C126   C     0.86189   0.17955   0.09247   0.00000  Uiso   1.00
C127   C     0.80143   0.17267   0.45097   0.00000  Uiso   1.00
C128   C     0.81830   0.06663   0.24869   0.00000  Uiso   1.00
C129   C     0.86521   0.16065   0.04903   0.00000  Uiso   1.00
C130   C     0.76655   0.21252   0.46634   0.00000  Uiso   1.00
C131   C     0.90008   0.12080   0.03366   0.00000  Uiso   1.00
C132   C     0.83401   0.15490   0.47875   0.00000  Uiso   1.00
C133   C     0.83262   0.17841   0.02126   0.00000  Uiso   1.00
C134   C     0.97404   0.25453   0.46780   0.00000  Uiso   1.00
C135   C     0.69260   0.07877   0.03220   0.00000  Uiso   1.00
C136   C     0.79891   0.21906   0.03453   0.00000  Uiso   1.00
C137   C     0.86771   0.11425   0.46548   0.00000  Uiso   1.00
C138   C     0.76608   0.23508   0.00793   0.00000  Uiso   1.00
C139   C     0.90054   0.09823   0.49208   0.00000  Uiso   1.00
C140   C     0.85681   0.32271   0.25194   0.00000  Uiso   1.00
C141   C     0.80986   0.01063   0.24806   0.00000  Uiso   1.00
C142   C     0.79524   0.16468   0.33305   0.00000  Uiso   1.00
Cu143  Cu    0.77404   0.16108   0.24517   0.00000  Uiso   1.00
Cu144  Cu    0.89263   0.17225   0.25484   0.00000  Uiso   1.00
H145   H     0.74079   0.26616   0.02009   0.00000  Uiso   1.00
H146   H     0.76464   0.32012   0.24439   0.00000  Uiso   1.00
H147   H     0.66801   0.20528   0.28449   0.00000  Uiso   1.00
H148   H     0.99866   0.12805   0.21551   0.00000  Uiso   1.00
H149   H     0.95242   0.23225   0.44184   0.00000  Uiso   1.00
H150   H     0.95155   0.28877   0.47807   0.00000  Uiso   1.00
H151   H     0.96400   0.22982   0.49706   0.00000  Uiso   1.00
H152   H     0.71508   0.04453   0.02193   0.00000  Uiso   1.00
H153   H     0.71422   0.10108   0.05814   0.00000  Uiso   1.00
H154   H     0.70262   0.10346   0.00293   0.00000  Uiso   1.00
H155   H     0.92582   0.06714   0.47992   0.00000  Uiso   1.00
H156   H     0.83298   0.20699   0.10748   0.00000  Uiso   1.00
H157   H     0.83369   0.12635   0.39252   0.00000  Uiso   1.00
H158   H     0.94916   0.10592   0.12511   0.00000  Uiso   1.00
H159   H     0.71749   0.22740   0.37489   0.00000  Uiso   1.00
H160   H     0.79722   0.24018   0.06532   0.00000  Uiso   1.00
H161   H     0.86939   0.09311   0.43470   0.00000  Uiso   1.00
H162   H     0.90203   0.01322   0.25561   0.00000  Uiso   1.00
N163   N     0.98173   0.18068   0.26212   0.00000  Uiso   1.00
N164   N     0.68494   0.15265   0.23788   0.00000  Uiso   1.00
O165   O     0.79482   0.23809   0.24686   0.00000  Uiso   1.00
O166   O     0.96036   0.05998   0.04789   0.00000  Uiso   1.00
O167   O     0.87185   0.09524   0.25314   0.00000  Uiso   1.00
O168   O     0.89496   0.24753   0.25503   0.00000  Uiso   1.00
O169   O     0.77171   0.08580   0.24498   0.00000  Uiso   1.00
O170   O     0.75518   0.15930   0.30855   0.00000  Uiso   1.00
O171   O     0.91149   0.17403   0.19146   0.00000  Uiso   1.00
O172   O     0.85532   0.16874   0.31671   0.00000  Uiso   1.00
O173   O     0.81134   0.16460   0.18329   0.00000  Uiso   1.00
O174   O     0.70627   0.27333   0.45212   0.00000  Uiso   1.00
C175   C     0.18170   0.60004   0.25131   0.00000  Uiso   1.00
C176   C     0.20476   0.50198   0.16695   0.00000  Uiso   1.00
C177   C     0.10823   0.50659   0.38035   0.00000  Uiso   1.00
C178   C     0.22510   0.49340   0.11965   0.00000  Uiso   1.00
C179   C     0.06739   0.56385   0.43932   0.00000  Uiso   1.00
C180   C     0.26592   0.43613   0.06068   0.00000  Uiso   1.00
C181   C     0.07159   0.54376   0.39655   0.00000  Uiso   1.00
C182   C     0.26173   0.45623   0.10345   0.00000  Uiso   1.00
C183   C     0.13810   0.48711   0.40753   0.00000  Uiso   1.00
C184   C     0.19523   0.51288   0.09247   0.00000  Uiso   1.00
C185   C     0.13476   0.50600   0.45097   0.00000  Uiso   1.00
C186   C     0.15164   0.39996   0.24869   0.00000  Uiso   1.00
C187   C     0.19855   0.49398   0.04903   0.00000  Uiso   1.00
C188   C     0.09989   0.54585   0.46634   0.00000  Uiso   1.00
C189   C     0.23342   0.45413   0.03366   0.00000  Uiso   1.00
C190   C     0.16735   0.48823   0.47875   0.00000  Uiso   1.00
C191   C     0.16596   0.51175   0.02126   0.00000  Uiso   1.00
C192   C     0.30737   0.58787   0.46780   0.00000  Uiso   1.00
C193   C     0.02593   0.41210   0.03220   0.00000  Uiso   1.00
C194   C     0.13225   0.55239   0.03453   0.00000  Uiso   1.00
C195   C     0.20104   0.44758   0.46548   0.00000  Uiso   1.00
C196   C     0.09941   0.56841   0.00793   0.00000  Uiso   1.00
C197   C     0.23388   0.43156   0.49208   0.00000  Uiso   1.00
C198   C     0.19014   0.65604   0.25194   0.00000  Uiso   1.00
C199   C     0.14319   0.34396   0.24806   0.00000  Uiso   1.00
C200   C     0.12857   0.49802   0.33305   0.00000  Uiso   1.00
Cu201  Cu    0.10737   0.49441   0.24517   0.00000  Uiso   1.00
Cu202  Cu    0.22596   0.50559   0.25484   0.00000  Uiso   1.00
H203   H     0.07412   0.59949   0.02009   0.00000  Uiso   1.00
H204   H     0.09797   0.65345   0.24439   0.00000  Uiso   1.00
H205   H     0.00134   0.53861   0.28449   0.00000  Uiso   1.00
H206   H     0.33199   0.46138   0.21551   0.00000  Uiso   1.00
H207   H     0.28576   0.56558   0.44184   0.00000  Uiso   1.00
H208   H     0.28488   0.62210   0.47807   0.00000  Uiso   1.00
H209   H     0.29733   0.56316   0.49706   0.00000  Uiso   1.00
H210   H     0.04841   0.37786   0.02193   0.00000  Uiso   1.00
H211   H     0.04756   0.43441   0.05814   0.00000  Uiso   1.00
H212   H     0.03596   0.43679   0.00293   0.00000  Uiso   1.00
H213   H     0.25916   0.40047   0.47992   0.00000  Uiso   1.00
H214   H     0.16632   0.54032   0.10748   0.00000  Uiso   1.00
H215   H     0.16703   0.45969   0.39252   0.00000  Uiso   1.00
H216   H     0.28249   0.43925   0.12511   0.00000  Uiso   1.00
H217   H     0.05083   0.56074   0.37489   0.00000  Uiso   1.00
H218   H     0.13055   0.57352   0.06532   0.00000  Uiso   1.00
H219   H     0.20272   0.42645   0.43470   0.00000  Uiso   1.00
H220   H     0.23536   0.34655   0.25561   0.00000  Uiso   1.00
N221   N     0.31506   0.51401   0.26212   0.00000  Uiso   1.00
N222   N     0.01827   0.48599   0.23788   0.00000  Uiso   1.00
O223   O     0.12815   0.57142   0.24686   0.00000  Uiso   1.00
O224   O     0.29369   0.39331   0.04789   0.00000  Uiso   1.00
O225   O     0.20518   0.42858   0.25314   0.00000  Uiso   1.00
O226   O     0.22829   0.58086   0.25503   0.00000  Uiso   1.00
O227   O     0.10504   0.41914   0.24498   0.00000  Uiso   1.00
O228   O     0.08851   0.49263   0.30855   0.00000  Uiso   1.00
O229   O     0.24482   0.50737   0.19146   0.00000  Uiso   1.00
O230   O     0.18866   0.50207   0.31671   0.00000  Uiso   1.00
O231   O     0.14468   0.49793   0.18329   0.00000  Uiso   1.00
O232   O     0.03961   0.60666   0.45212   0.00000  Uiso   1.00
C233   C     0.51503   0.60004   0.25131   0.00000  Uiso   1.00
C234   C     0.53809   0.50198   0.16695   0.00000  Uiso   1.00
C235   C     0.44157   0.50659   0.38035   0.00000  Uiso   1.00
C236   C     0.55843   0.49340   0.11965   0.00000  Uiso   1.00
C237   C     0.40073   0.56385   0.43932   0.00000  Uiso   1.00
C238   C     0.59925   0.43613   0.06068   0.00000  Uiso   1.00
C239   C     0.40492   0.54376   0.39655   0.00000  Uiso   1.00
C240   C     0.59507   0.45623   0.10345   0.00000  Uiso   1.00
C241   C     0.47143   0.48711   0.40753   0.00000  Uiso   1.00
C242   C     0.52856   0.51288   0.09247   0.00000  Uiso   1.00
C243   C     0.46810   0.50600   0.45097   0.00000  Uiso   1.00
C244   C     0.48497   0.39996   0.24869   0.00000  Uiso   1.00
C245   C     0.53188   0.49398   0.04903   0.00000  Uiso   1.00
C246   C     0.43322   0.54585   0.46634   0.00000  Uiso   1.00
C247   C     0.56675   0.45413   0.03366   0.00000  Uiso   1.00
C248   C     0.50068   0.48823   0.47875   0.00000  Uiso   1.00
C249   C     0.49929   0.51175   0.02126   0.00000  Uiso   1.00
C250   C     0.64070   0.58787   0.46780   0.00000  Uiso   1.00
C251   C     0.35926   0.41210   0.03220   0.00000  Uiso   1.00
C252   C     0.46558   0.55239   0.03453   0.00000  Uiso   1.00
C253   C     0.53438   0.44758   0.46548   0.00000  Uiso   1.00
C254   C     0.43275   0.56841   0.00793   0.00000  Uiso   1.00
C255   C     0.56721   0.43156   0.49208   0.00000  Uiso   1.00
C256   C     0.52347   0.65604   0.25194   0.00000  Uiso   1.00
C257   C     0.47653   0.34396   0.24806   0.00000  Uiso   1.00
C258   C     0.46191   0.49802   0.33305   0.00000  Uiso   1.00
Cu259  Cu    0.44071   0.49441   0.24517   0.00000  Uiso   1.00
Cu260  Cu    0.55929   0.50559   0.25484   0.00000  Uiso   1.00
H261   H     0.40746   0.59949   0.02009   0.00000  Uiso   1.00
H262   H     0.43131   0.65345   0.24439   0.00000  Uiso   1.00
H263   H     0.33467   0.53861   0.28449   0.00000  Uiso   1.00
H264   H     0.66533   0.46138   0.21551   0.00000  Uiso   1.00
H265   H     0.61909   0.56558   0.44184   0.00000  Uiso   1.00
H266   H     0.61821   0.62210   0.47807   0.00000  Uiso   1.00
H267   H     0.63067   0.56316   0.49706   0.00000  Uiso   1.00
H268   H     0.38175   0.37786   0.02193   0.00000  Uiso   1.00
H269   H     0.38089   0.43441   0.05814   0.00000  Uiso   1.00
H270   H     0.36929   0.43679   0.00293   0.00000  Uiso   1.00
H271   H     0.59249   0.40047   0.47992   0.00000  Uiso   1.00
H272   H     0.49965   0.54032   0.10748   0.00000  Uiso   1.00
H273   H     0.50036   0.45969   0.39252   0.00000  Uiso   1.00
H274   H     0.61583   0.43925   0.12511   0.00000  Uiso   1.00
H275   H     0.38416   0.56074   0.37489   0.00000  Uiso   1.00
H276   H     0.46389   0.57352   0.06532   0.00000  Uiso   1.00
H277   H     0.53606   0.42645   0.43470   0.00000  Uiso   1.00
H278   H     0.56869   0.34655   0.25561   0.00000  Uiso   1.00
N279   N     0.64839   0.51401   0.26212   0.00000  Uiso   1.00
N280   N     0.35161   0.48599   0.23788   0.00000  Uiso   1.00
O281   O     0.46148   0.57142   0.24686   0.00000  Uiso   1.00
O282   O     0.62703   0.39331   0.04789   0.00000  Uiso   1.00
O283   O     0.53852   0.42858   0.25314   0.00000  Uiso   1.00
O284   O     0.56163   0.58086   0.25503   0.00000  Uiso   1.00
O285   O     0.43837   0.41914   0.24498   0.00000  Uiso   1.00
O286   O     0.42185   0.49263   0.30855   0.00000  Uiso   1.00
O287   O     0.57815   0.50737   0.19146   0.00000  Uiso   1.00
O288   O     0.52199   0.50207   0.31671   0.00000  Uiso   1.00
O289   O     0.47801   0.49793   0.18329   0.00000  Uiso   1.00
O290   O     0.37294   0.60666   0.45212   0.00000  Uiso   1.00
C291   C     0.84836   0.60004   0.25131   0.00000  Uiso   1.00
C292   C     0.87143   0.50198   0.16695   0.00000  Uiso   1.00
C293   C     0.77490   0.50659   0.38035   0.00000  Uiso   1.00
C294   C     0.89176   0.49340   0.11965   0.00000  Uiso   1.00
C295   C     0.73406   0.56385   0.43932   0.00000  Uiso   1.00
C296   C     0.93258   0.43613   0.06068   0.00000  Uiso   1.00
C297   C     0.73825   0.54376   0.39655   0.00000  Uiso   1.00
C298   C     0.92840   0.45623   0.10345   0.00000  Uiso   1.00
C299   C     0.80477   0.48711   0.40753   0.00000  Uiso   1.00
C300   C     0.86189   0.51288   0.09247   0.00000  Uiso   1.00
C301   C     0.80143   0.50600   0.45097   0.00000  Uiso   1.00
C302   C     0.81830   0.39996   0.24869   0.00000  Uiso   1.00
C303   C     0.86521   0.49398   0.04903   0.00000  Uiso   1.00
C304   C     0.76655   0.54585   0.46634   0.00000  Uiso   1.00
C305   C     0.90008   0.45413   0.03366   0.00000  Uiso   1.00
C306   C     0.83401   0.48823   0.47875   0.00000  Uiso   1.00
C307   C     0.83262   0.51175   0.02126   0.00000  Uiso   1.00
C308   C     0.97404   0.58787   0.46780   0.00000  Uiso   1.00
C309   C     0.69260   0.41210   0.03220   0.00000  Uiso   1.00
C310   C     0.79891   0.55239   0.03453   0.00000  Uiso   1.00
C311   C     0.86771   0.44758   0.46548   0.00000  Uiso   1.00
C312   C     0.76608   0.56841   0.00793   0.00000  Uiso   1.00
C313   C     0.90054   0.43156   0.49208   0.00000  Uiso   1.00
C314   C     0.85681   0.65604   0.25194   0.00000  Uiso   1.00
C315   C     0.80986   0.34396   0.24806   0.00000  Uiso   1.00
C316   C     0.79524   0.49802   0.33305   0.00000  Uiso   1.00
Cu317  Cu    0.77404   0.49441   0.24517   0.00000  Uiso   1.00
Cu318  Cu    0.89263   0.50559   0.25484   0.00000  Uiso   1.00
H319   H     0.74079   0.59949   0.02009   0.00000  Uiso   1.00
H320   H     0.76464   0.65345   0.24439   0.00000  Uiso   1.00
H321   H     0.66801   0.53861   0.28449   0.00000  Uiso   1.00
H322   H     0.99866   0.46138   0.21551   0.00000  Uiso   1.00
H323   H     0.95242   0.56558   0.44184   0.00000  Uiso   1.00
H324   H     0.95155   0.62210   0.47807   0.00000  Uiso   1.00
H325   H     0.96400   0.56316   0.49706   0.00000  Uiso   1.00
H326   H     0.71508   0.37786   0.02193   0.00000  Uiso   1.00
H327   H     0.71422   0.43441   0.05814   0.00000  Uiso   1.00
H328   H     0.70262   0.43679   0.00293   0.00000  Uiso   1.00
H329   H     0.92582   0.40047   0.47992   0.00000  Uiso   1.00
H330   H     0.83298   0.54032   0.10748   0.00000  Uiso   1.00
H331   H     0.83369   0.45969   0.39252   0.00000  Uiso   1.00
H332   H     0.94916   0.43925   0.12511   0.00000  Uiso   1.00
H333   H     0.71749   0.56074   0.37489   0.00000  Uiso   1.00
H334   H     0.79722   0.57352   0.06532   0.00000  Uiso   1.00
H335   H     0.86939   0.42645   0.43470   0.00000  Uiso   1.00
H336   H     0.90203   0.34655   0.25561   0.00000  Uiso   1.00
N337   N     0.98173   0.51401   0.26212   0.00000  Uiso   1.00
N338   N     0.68494   0.48599   0.23788   0.00000  Uiso   1.00
O339   O     0.79482   0.57142   0.24686   0.00000  Uiso   1.00
O340   O     0.96036   0.39331   0.04789   0.00000  Uiso   1.00
O341   O     0.87185   0.42858   0.25314   0.00000  Uiso   1.00
O342   O     0.89496   0.58086   0.25503   0.00000  Uiso   1.00
O343   O     0.77171   0.41914   0.24498   0.00000  Uiso   1.00
O344   O     0.75518   0.49263   0.30855   0.00000  Uiso   1.00
O345   O     0.91149   0.50737   0.19146   0.00000  Uiso   1.00
O346   O     0.85532   0.50207   0.31671   0.00000  Uiso   1.00
O347   O     0.81134   0.49793   0.18329   0.00000  Uiso   1.00
O348   O     0.70627   0.60666   0.45212   0.00000  Uiso   1.00
C349   C     0.18170   0.93337   0.25131   0.00000  Uiso   1.00
C350   C     0.20476   0.83532   0.16695   0.00000  Uiso   1.00
C351   C     0.10823   0.83993   0.38035   0.00000  Uiso   1.00
C352   C     0.22510   0.82674   0.11965   0.00000  Uiso   1.00
C353   C     0.06739   0.89719   0.43932   0.00000  Uiso   1.00
C354   C     0.26592   0.76946   0.06068   0.00000  Uiso   1.00
C355   C     0.07159   0.87710   0.39655   0.00000  Uiso   1.00
C356   C     0.26173   0.78956   0.10345   0.00000  Uiso   1.00
C357   C     0.13810   0.82045   0.40753   0.00000  Uiso   1.00
C358   C     0.19523   0.84622   0.09247   0.00000  Uiso   1.00
C359   C     0.13476   0.83933   0.45097   0.00000  Uiso   1.00
C360   C     0.15164   0.73329   0.24869   0.00000  Uiso   1.00
C361   C     0.19855   0.82731   0.04903   0.00000  Uiso   1.00
C362   C     0.09989   0.87918   0.46634   0.00000  Uiso   1.00
C363   C     0.23342   0.78746   0.03366   0.00000  Uiso   1.00
C364   C     0.16735   0.82156   0.47875   0.00000  Uiso   1.00
C365   C     0.16596   0.84508   0.02126   0.00000  Uiso   1.00
C366   C     0.30737   0.92120   0.46780   0.00000  Uiso   1.00
C367   C     0.02593   0.74544   0.03220   0.00000  Uiso   1.00
C368   C     0.13225   0.88572   0.03453   0.00000  Uiso   1.00
C369   C     0.20104   0.78091   0.46548   0.00000  Uiso   1.00
C370   C     0.09941   0.90174   0.00793   0.00000  Uiso   1.00
C371   C     0.23388   0.76489   0.49208   0.00000  Uiso   1.00
C372   C     0.19014   0.98937   0.25194   0.00000  Uiso   1.00
C373   C     0.14319   0.67729   0.24806   0.00000  Uiso   1.00
C374   C     0.12857   0.83135   0.33305   0.00000  Uiso   1.00
Cu375  Cu    0.10737   0.82775   0.24517   0.00000  Uiso   1.00
Cu376  Cu    0.22596   0.83892   0.25484   0.00000  Uiso   1.00
H377   H     0.07412   0.93283   0.02009   0.00000  Uiso   1.00
H378   H     0.09797   0.98678   0.24439   0.00000  Uiso   1.00
H379   H     0.00134   0.87195   0.28449   0.00000  Uiso   1.00
H380   H     0.33199   0.79472   0.21551   0.00000  Uiso   1.00
H381   H     0.28576   0.89891   0.44184   0.00000  Uiso   1.00
H382   H     0.28488   0.95544   0.47807   0.00000  Uiso   1.00
H383   H     0.29733   0.89649   0.49706   0.00000  Uiso   1.00
H384   H     0.04841   0.71120   0.02193   0.00000  Uiso   1.00
H385   H     0.04756   0.76774   0.05814   0.00000  Uiso   1.00
H386   H     0.03596   0.77013   0.00293   0.00000  Uiso   1.00
H387   H     0.25916   0.73380   0.47992   0.00000  Uiso   1.00
H388   H     0.16632   0.87365   0.10748   0.00000  Uiso   1.00
H389   H     0.16703   0.79302   0.39252   0.00000  Uiso   1.00
H390   H     0.28249   0.77259   0.12511   0.00000  Uiso   1.00
H391   H     0.05083   0.89407   0.37489   0.00000  Uiso   1.00
H392   H     0.13055   0.90685   0.06532   0.00000  Uiso   1.00
H393   H     0.20272   0.75978   0.43470   0.00000  Uiso   1.00
H394   H     0.23536   0.67988   0.25561   0.00000  Uiso   1.00
N395   N     0.31506   0.84735   0.26212   0.00000  Uiso   1.00
N396   N     0.01827   0.81932   0.23788   0.00000  Uiso   1.00
O397   O     0.12815   0.90476   0.24686   0.00000  Uiso   1.00
O398   O     0.29369   0.72665   0.04789   0.00000  Uiso   1.00
O399   O     0.20518   0.76191   0.25314   0.00000  Uiso   1.00
O400   O     0.22829   0.91420   0.25503   0.00000  Uiso   1.00
O401   O     0.10504   0.75247   0.24498   0.00000  Uiso   1.00
O402   O     0.08851   0.82597   0.30855   0.00000  Uiso   1.00
O403   O     0.24482   0.84070   0.19146   0.00000  Uiso   1.00
O404   O     0.18866   0.83540   0.31671   0.00000  Uiso   1.00
O405   O     0.14468   0.83126   0.18329   0.00000  Uiso   1.00
O406   O     0.03961   0.94000   0.45212   0.00000  Uiso   1.00
C407   C     0.51503   0.93337   0.25131   0.00000  Uiso   1.00
C408   C     0.53809   0.83532   0.16695   0.00000  Uiso   1.00
C409   C     0.44157   0.83993   0.38035   0.00000  Uiso   1.00
C410   C     0.55843   0.82674   0.11965   0.00000  Uiso   1.00
C411   C     0.40073   0.89719   0.43932   0.00000  Uiso   1.00
C412   C     0.59925   0.76946   0.06068   0.00000  Uiso   1.00
C413   C     0.40492   0.87710   0.39655   0.00000  Uiso   1.00
C414   C     0.59507   0.78956   0.10345   0.00000  Uiso   1.00
C415   C     0.47143   0.82045   0.40753   0.00000  Uiso   1.00
C416   C     0.52856   0.84622   0.09247   0.00000  Uiso   1.00
C417   C     0.46810   0.83933   0.45097   0.00000  Uiso   1.00
C418   C     0.48497   0.73329   0.24869   0.00000  Uiso   1.00
C419   C     0.53188   0.82731   0.04903   0.00000  Uiso   1.00
C420   C     0.43322   0.87918   0.46634   0.00000  Uiso   1.00
C421   C     0.56675   0.78746   0.03366   0.00000  Uiso   1.00
C422   C     0.50068   0.82156   0.47875   0.00000  Uiso   1.00
C423   C     0.49929   0.84508   0.02126   0.00000  Uiso   1.00
C424   C     0.64070   0.92120   0.46780   0.00000  Uiso   1.00
C425   C     0.35926   0.74544   0.03220   0.00000  Uiso   1.00
C426   C     0.46558   0.88572   0.03453   0.00000  Uiso   1.00
C427   C     0.53438   0.78091   0.46548   0.00000  Uiso   1.00
C428   C     0.43275   0.90174   0.00793   0.00000  Uiso   1.00
C429   C     0.56721   0.76489   0.49208   0.00000  Uiso   1.00
C430   C     0.52347   0.98937   0.25194   0.00000  Uiso   1.00
C431   C     0.47653   0.67729   0.24806   0.00000  Uiso   1.00
C432   C     0.46191   0.83135   0.33305   0.00000  Uiso   1.00
Cu433  Cu    0.44071   0.82775   0.24517   0.00000  Uiso   1.00
Cu434  Cu    0.55929   0.83892   0.25484   0.00000  Uiso   1.00
H435   H     0.40746   0.93283   0.02009   0.00000  Uiso   1.00
H436   H     0.43131   0.98678   0.24439   0.00000  Uiso   1.00
H437   H     0.33467   0.87195   0.28449   0.00000  Uiso   1.00
H438   H     0.66533   0.79472   0.21551   0.00000  Uiso   1.00
H439   H     0.61909   0.89891   0.44184   0.00000  Uiso   1.00
H440   H     0.61821   0.95544   0.47807   0.00000  Uiso   1.00
H441   H     0.63067   0.89649   0.49706   0.00000  Uiso   1.00
H442   H     0.38175   0.71120   0.02193   0.00000  Uiso   1.00
H443   H     0.38089   0.76774   0.05814   0.00000  Uiso   1.00
H444   H     0.36929   0.77013   0.00293   0.00000  Uiso   1.00
H445   H     0.59249   0.73380   0.47992   0.00000  Uiso   1.00
H446   H     0.49965   0.87365   0.10748   0.00000  Uiso   1.00
H447   H     0.50036   0.79302   0.39252   0.00000  Uiso   1.00
H448   H     0.61583   0.77259   0.12511   0.00000  Uiso   1.00
H449   H     0.38416   0.89407   0.37489   0.00000  Uiso   1.00
H450   H     0.46389   0.90685   0.06532   0.00000  Uiso   1.00
H451   H     0.53606   0.75978   0.43470   0.00000  Uiso   1.00
H452   H     0.56869   0.67988   0.25561   0.00000  Uiso   1.00
N453   N     0.64839   0.84735   0.26212   0.00000  Uiso   1.00
N454   N     0.35161   0.81932   0.23788   0.00000  Uiso   1.00
O455   O     0.46148   0.90476   0.24686   0.00000  Uiso   1.00
O456   O     0.62703   0.72665   0.04789   0.00000  Uiso   1.00
O457   O     0.53852   0.76191   0.25314   0.00000  Uiso   1.00
O458   O     0.56163   0.91420   0.25503   0.00000  Uiso   1.00
O459   O     0.43837   0.75247   0.24498   0.00000  Uiso   1.00
O460   O     0.42185   0.82597   0.30855   0.00000  Uiso   1.00
O461   O     0.57815   0.84070   0.19146   0.00000  Uiso   1.00
O462   O     0.52199   0.83540   0.31671   0.00000  Uiso   1.00
O463   O     0.47801   0.83126   0.18329   0.00000  Uiso   1.00
O464   O     0.37294   0.94000   0.45212   0.00000  Uiso   1.00
C465   C     0.84836   0.93337   0.25131   0.00000  Uiso   1.00
C466   C     0.87143   0.83532   0.16695   0.00000  Uiso   1.00
C467   C     0.77490   0.83993   0.38035   0.00000  Uiso   1.00
C468   C     0.89176   0.82674   0.11965   0.00000  Uiso   1.00
C469   C     0.73406   0.89719   0.43932   0.00000  Uiso   1.00
C470   C     0.93258   0.76946   0.06068   0.00000  Uiso   1.00
C471   C     0.73825   0.87710   0.39655   0.00000  Uiso   1.00
C472   C     0.92840   0.78956   0.10345   0.00000  Uiso   1.00
C473   C     0.80477   0.82045   0.40753   0.00000  Uiso   1.00
C474   C     0.86189   0.84622   0.09247   0.00000  Uiso   1.00
C475   C     0.80143   0.83933   0.45097   0.00000  Uiso   1.00
C476   C     0.81830   0.73329   0.24869   0.00000  Uiso   1.00
C477   C     0.86521   0.82731   0.04903   0.00000  Uiso   1.00
C478   C     0.76655   0.87918   0.46634   0.00000  Uiso   1.00
C479   C     0.90008   0.78746   0.03366   0.00000  Uiso   1.00
C480   C     0.83401   0.82156   0.47875   0.00000  Uiso   1.00
C481   C     0.83262   0.84508   0.02126   0.00000  Uiso   1.00
C482   C     0.97404   0.92120   0.46780   0.00000  Uiso   1.00
C483   C     0.69260   0.74544   0.03220   0.00000  Uiso   1.00
C484   C     0.79891   0.88572   0.03453   0.00000  Uiso   1.00
C485   C     0.86771   0.78091   0.46548   0.00000  Uiso   1.00
C486   C     0.76608   0.90174   0.00793   0.00000  Uiso   1.00
C487   C     0.90054   0.76489   0.49208   0.00000  Uiso   1.00
C488   C     0.85681   0.98937   0.25194   0.00000  Uiso   1.00
C489   C     0.80986   0.67729   0.24806   0.00000  Uiso   1.00
C490   C     0.79524   0.83135   0.33305   0.00000  Uiso   1.00
Cu491  Cu    0.77404   0.82775   0.24517   0.00000  Uiso   1.00
Cu492  Cu    0.89263   0.83892   0.25484   0.00000  Uiso   1.00
H493   H     0.74079   0.93283   0.02009   0.00000  Uiso   1.00
H494   H     0.76464   0.98678   0.24439   0.00000  Uiso   1.00
H495   H     0.66801   0.87195   0.28449   0.00000  Uiso   1.00
H496   H     0.99866   0.79472   0.21551   0.00000  Uiso   1.00
H497   H     0.95242   0.89891   0.44184   0.00000  Uiso   1.00
H498   H     0.95155   0.95544   0.47807   0.00000  Uiso   1.00
H499   H     0.96400   0.89649   0.49706   0.00000  Uiso   1.00
H500   H     0.71508   0.71120   0.02193   0.00000  Uiso   1.00
H501   H     0.71422   0.76774   0.05814   0.00000  Uiso   1.00
H502   H     0.70262   0.77013   0.00293   0.00000  Uiso   1.00
H503   H     0.92582   0.73380   0.47992   0.00000  Uiso   1.00
H504   H     0.83298   0.87365   0.10748   0.00000  Uiso   1.00
H505   H     0.83369   0.79302   0.39252   0.00000  Uiso   1.00
H506   H     0.94916   0.77259   0.12511   0.00000  Uiso   1.00
H507   H     0.71749   0.89407   0.37489   0.00000  Uiso   1.00
H508   H     0.79722   0.90685   0.06532   0.00000  Uiso   1.00
H509   H     0.86939   0.75978   0.43470   0.00000  Uiso   1.00
H510   H     0.90203   0.67988   0.25561   0.00000  Uiso   1.00
N511   N     0.98173   0.84735   0.26212   0.00000  Uiso   1.00
N512   N     0.68494   0.81932   0.23788   0.00000  Uiso   1.00
O513   O     0.79482   0.90476   0.24686   0.00000  Uiso   1.00
O514   O     0.96036   0.72665   0.04789   0.00000  Uiso   1.00
O515   O     0.87185   0.76191   0.25314   0.00000  Uiso   1.00
O516   O     0.89496   0.91420   0.25503   0.00000  Uiso   1.00
O517   O     0.77171   0.75247   0.24498   0.00000  Uiso   1.00
O518   O     0.75518   0.82597   0.30855   0.00000  Uiso   1.00
O519   O     0.91149   0.84070   0.19146   0.00000  Uiso   1.00
O520   O     0.85532   0.83540   0.31671   0.00000  Uiso   1.00
O521   O     0.81134   0.83126   0.18329   0.00000  Uiso   1.00
O522   O     0.70627   0.94000   0.45212   0.00000  Uiso   1.00
C523   C     0.18170   0.26671   0.75131   0.00000  Uiso   1.00
C524   C     0.20476   0.16865   0.66695   0.00000  Uiso   1.00
C525   C     0.10823   0.17326   0.88035   0.00000  Uiso   1.00
C526   C     0.22510   0.16007   0.61965   0.00000  Uiso   1.00
C527   C     0.06739   0.23052   0.93932   0.00000  Uiso   1.00
C528   C     0.26592   0.10279   0.56068   0.00000  Uiso   1.00
C529   C     0.07159   0.21043   0.89655   0.00000  Uiso   1.00
C530   C     0.26173   0.12289   0.60345   0.00000  Uiso   1.00
C531   C     0.13810   0.15378   0.90753   0.00000  Uiso   1.00
C532   C     0.19523   0.17955   0.59247   0.00000  Uiso   1.00
C533   C     0.13476   0.17267   0.95097   0.00000  Uiso   1.00
C534   C     0.15164   0.06663   0.74869   0.00000  Uiso   1.00
C535   C     0.19855   0.16065   0.54903   0.00000  Uiso   1.00
C536   C     0.09989   0.21252   0.96634   0.00000  Uiso   1.00
C537   C     0.23342   0.12080   0.53366   0.00000  Uiso   1.00
C538   C     0.16735   0.15490   0.97875   0.00000  Uiso   1.00
C539   C     0.16596   0.17841   0.52126   0.00000  Uiso   1.00
C540   C     0.30737   0.25453   0.96780   0.00000  Uiso   1.00
C541   C     0.02593   0.07877   0.53220   0.00000  Uiso   1.00
C542   C     0.13225   0.21906   0.53453   0.00000  Uiso   1.00
C543   C     0.20104   0.11425   0.96548   0.00000  Uiso   1.00
C544   C     0.09941   0.23508   0.50793   0.00000  Uiso   1.00
C545   C     0.23388   0.09823   0.99208   0.00000  Uiso   1.00
C546   C     0.19014   0.32271   0.75194   0.00000  Uiso   1.00
C547   C     0.14319   0.01063   0.74806   0.00000  Uiso   1.00
C548   C     0.12857   0.16468   0.83305   0.00000  Uiso   1.00
Cu549  Cu    0.10737   0.16108   0.74517   0.00000  Uiso   1.00
Cu550  Cu    0.22596   0.17225   0.75484   0.00000  Uiso   1.00
H551   H     0.07412   0.26616   0.52009   0.00000  Uiso   1.00
H552   H     0.09797   0.32012   0.74439   0.00000  Uiso   1.00
H553   H     0.00134   0.20528   0.78449   0.00000  Uiso   1.00
H554   H     0.33199   0.12805   0.71551   0.00000  Uiso   1.00
H555   H     0.28576   0.23225   0.94184   0.00000  Uiso   1.00
H556   H     0.28488   0.28877   0.97807   0.00000  Uiso   1.00
H557   H     0.29733   0.22982   0.99706   0.00000  Uiso   1.00
H558   H     0.04841   0.04453   0.52193   0.00000  Uiso   1.00
H559   H     0.04756   0.10108   0.55814   0.00000  Uiso   1.00
H560   H     0.03596   0.10346   0.50293   0.00000  Uiso   1.00
H561   H     0.25916   0.06714   0.97992   0.00000  Uiso   1.00
H562   H     0.16632   0.20699   0.60748   0.00000  Uiso   1.00
H563   H     0.16703   0.12635   0.89252   0.00000  Uiso   1.00
H564   H     0.28249   0.10592   0.62511   0.00000  Uiso   1.00
H565   H     0.05083   0.22740   0.87489   0.00000  Uiso   1.00
H566   H     0.13055   0.24018   0.56532   0.00000  Uiso   1.00
H567   H     0.20272   0.09311   0.93470   0.00000  Uiso   1.00
H568   H     0.23536   0.01322   0.75561   0.00000  Uiso   1.00
N569   N     0.31506   0.18068   0.76212   0.00000  Uiso   1.00
N570   N     0.01827   0.15265   0.73788   0.00000  Uiso   1.00
O571   O     0.12815   0.23809   0.74686   0.00000  Uiso   1.00
O572   O     0.29369   0.05998   0.54789   0.00000  Uiso   1.00
O573   O     0.20518   0.09524   0.75314   0.00000  Uiso   1.00
O574   O     0.22829   0.24753   0.75503   0.00000  Uiso   1.00
O575   O     0.10504   0.08580   0.74498   0.00000  Uiso   1.00
O576   O     0.08851   0.15930   0.80855   0.00000  Uiso   1.00
O577   O     0.24482   0.17403   0.69146   0.00000  Uiso   1.00
O578   O     0.18866   0.16874   0.81671   0.00000  Uiso   1.00
O579   O     0.14468   0.16460   0.68329   0.00000  Uiso   1.00
O580   O     0.03961   0.27333   0.95212   0.00000  Uiso   1.00
C581   C     0.51503   0.26671   0.75131   0.00000  Uiso   1.00
C582   C     0.53809   0.16865   0.66695   0.00000  Uiso   1.00
C583   C     0.44157   0.17326   0.88035   0.00000  Uiso   1.00
C584   C     0.55843   0.16007   0.61965   0.00000  Uiso   1.00
C585   C     0.40073   0.23052   0.93932   0.00000  Uiso   1.00
C586   C     0.59925   0.10279   0.56068   0.00000  Uiso   1.00
C587   C     0.40492   0.21043   0.89655   0.00000  Uiso   1.00
C588   C     0.59507   0.12289   0.60345   0.00000  Uiso   1.00
C589   C     0.47143   0.15378   0.90753   0.00000  Uiso   1.00
C590   C     0.52856   0.17955   0.59247   0.00000  Uiso   1.00
C591   C     0.46810   0.17267   0.95097   0.00000  Uiso   1.00
C592   C     0.48497   0.06663   0.74869   0.00000  Uiso   1.00
C593   C     0.53188   0.16065   0.54903   0.00000  Uiso   1.00
C594   C     0.43322   0.21252   0.96634   0.00000  Uiso   1.00
C595   C     0.56675   0.12080   0.53366   0.00000  Uiso   1.00
C596   C     0.50068   0.15490   0.97875   0.00000  Uiso   1.00
C597   C     0.49929   0.17841   0.52126   0.00000  Uiso   1.00
C598   C     0.64070   0.25453   0.96780   0.00000  Uiso   1.00
C599   C     0.35926   0.07877   0.53220   0.00000  Uiso   1.00
C600   C     0.46558   0.21906   0.53453   0.00000  Uiso   1.00
C601   C     0.53438   0.11425   0.96548   0.00000  Uiso   1.00
C602   C     0.43275   0.23508   0.50793   0.00000  Uiso   1.00
C603   C     0.56721   0.09823   0.99208   0.00000  Uiso   1.00
C604   C     0.52347   0.32271   0.75194   0.00000  Uiso   1.00
C605   C     0.47653   0.01063   0.74806   0.00000  Uiso   1.00
C606   C     0.46191   0.16468   0.83305   0.00000  Uiso   1.00
Cu607  Cu    0.44071   0.16108   0.74517   0.00000  Uiso   1.00
Cu608  Cu    0.55929   0.17225   0.75484   0.00000  Uiso   1.00
H609   H     0.40746   0.26616   0.52009   0.00000  Uiso   1.00
H610   H     0.43131   0.32012   0.74439   0.00000  Uiso   1.00
H611   H     0.33467   0.20528   0.78449   0.00000  Uiso   1.00
H612   H     0.66533   0.12805   0.71551   0.00000  Uiso   1.00
H613   H     0.61909   0.23225   0.94184   0.00000  Uiso   1.00
H614   H     0.61821   0.28877   0.97807   0.00000  Uiso   1.00
H615   H     0.63067   0.22982   0.99706   0.00000  Uiso   1.00
H616   H     0.38175   0.04453   0.52193   0.00000  Uiso   1.00
H617   H     0.38089   0.10108   0.55814   0.00000  Uiso   1.00
H618   H     0.36929   0.10346   0.50293   0.00000  Uiso   1.00
H619   H     0.59249   0.06714   0.97992   0.00000  Uiso   1.00
H620   H     0.49965   0.20699   0.60748   0.00000  Uiso   1.00
H621   H     0.50036   0.12635   0.89252   0.00000  Uiso   1.00
H622   H     0.61583   0.10592   0.62511   0.00000  Uiso   1.00
H623   H     0.38416   0.22740   0.87489   0.00000  Uiso   1.00
H624   H     0.46389   0.24018   0.56532   0.00000  Uiso   1.00
H625   H     0.53606   0.09311   0.93470   0.00000  Uiso   1.00
H626   H     0.56869   0.01322   0.75561   0.00000  Uiso   1.00
N627   N     0.64839   0.18068   0.76212   0.00000  Uiso   1.00
N628   N     0.35161   0.15265   0.73788   0.00000  Uiso   1.00
O629   O     0.46148   0.23809   0.74686   0.00000  Uiso   1.00
O630   O     0.62703   0.05998   0.54789   0.00000  Uiso   1.00
O631   O     0.53852   0.09524   0.75314   0.00000  Uiso   1.00
O632   O     0.56163   0.24753   0.75503   0.00000  Uiso   1.00
O633   O     0.43837   0.08580   0.74498   0.00000  Uiso   1.00
O634   O     0.42185   0.15930   0.80855   0.00000  Uiso   1.00
O635   O     0.57815   0.17403   0.69146   0.00000  Uiso   1.00
O636   O     0.52199   0.16874   0.81671   0.00000  Uiso   1.00
O637   O     0.47801   0.16460   0.68329   0.00000  Uiso   1.00
O638   O     0.37294   0.27333   0.95212   0.00000  Uiso   1.00
C639   C     0.84836   0.26671   0.75131   0.00000  Uiso   1.00
C640   C     0.87143   0.16865   0.66695   0.00000  Uiso   1.00
C641   C     0.77490   0.17326   0.88035   0.00000  Uiso   1.00
C642   C     0.89176   0.16007   0.61965   0.00000  Uiso   1.00
C643   C     0.73406   0.23052   0.93932   0.00000  Uiso   1.00
C644   C     0.93258   0.10279   0.56068   0.00000  Uiso   1.00
C645   C     0.73825   0.21043   0.89655   0.00000  Uiso   1.00
C646   C     0.92840   0.12289   0.60345   0.00000  Uiso   1.00
C647   C     0.80477   0.15378   0.90753   0.00000  Uiso   1.00
C648   C     0.86189   0.17955   0.59247   0.00000  Uiso   1.00
C649   C     0.80143   0.17267   0.95097   0.00000  Uiso   1.00
C650   C     0.81830   0.06663   0.74869   0.00000  Uiso   1.00
C651   C     0.86521   0.16065   0.54903   0.00000  Uiso   1.00
C652   C     0.76655   0.21252   0.96634   0.00000  Uiso   1.00
C653   C     0.90008   0.12080   0.53366   0.00000  Uiso   1.00
C654   C     0.83401   0.15490   0.97875   0.00000  Uiso   1.00
C655   C     0.83262   0.17841   0.52126   0.00000  Uiso   1.00
C656   C     0.97404   0.25453   0.96780   0.00000  Uiso   1.00
C657   C     0.69260   0.07877   0.53220   0.00000  Uiso   1.00
C658   C     0.79891   0.21906   0.53453   0.00000  Uiso   1.00
C659   C     0.86771   0.11425   0.96548   0.00000  Uiso   1.00
C660   C     0.76608   0.23508   0.50793   0.00000  Uiso   1.00
C661   C     0.90054   0.09823   0.99208   0.00000  Uiso   1.00
C662   C     0.85681   0.32271   0.75194   0.00000  Uiso   1.00
C663   C     0.80986   0.01063   0.74806   0.00000  Uiso   1.00
C664   C     0.79524   0.16468   0.83305   0.00000  Uiso   1.00
Cu665  Cu    0.77404   0.16108   0.74517   0.00000  Uiso   1.00
Cu666  Cu    0.89263   0.17225   0.75484   0.00000  Uiso   1.00
H667   H     0.74079   0.26616   0.52009   0.00000  Uiso   1.00
H668   H     0.76464   0.32012   0.74439   0.00000  Uiso   1.00
H669   H     0.66801   0.20528   0.78449   0.00000  Uiso   1.00
H670   H     0.99866   0.12805   0.71551   0.00000  Uiso   1.00
H671   H     0.95242   0.23225   0.94184   0.00000  Uiso   1.00
H672   H     0.95155   0.28877   0.97807   0.00000  Uiso   1.00
H673   H     0.96400   0.22982   0.99706   0.00000  Uiso   1.00
H674   H     0.71508   0.04453   0.52193   0.00000  Uiso   1.00
H675   H     0.71422   0.10108   0.55814   0.00000  Uiso   1.00
H676   H     0.70262   0.10346   0.50293   0.00000  Uiso   1.00
H677   H     0.92582   0.06714   0.97992   0.00000  Uiso   1.00
H678   H     0.83298   0.20699   0.60748   0.00000  Uiso   1.00
H679   H     0.83369   0.12635   0.89252   0.00000  Uiso   1.00
H680   H     0.94916   0.10592   0.62511   0.00000  Uiso   1.00
H681   H     0.71749   0.22740   0.87489   0.00000  Uiso   1.00
H682   H     0.79722   0.24018   0.56532   0.00000  Uiso   1.00
H683   H     0.86939   0.09311   0.93470   0.00000  Uiso   1.00
H684   H     0.90203   0.01322   0.75561   0.00000  Uiso   1.00
N685   N     0.98173   0.18068   0.76212   0.00000  Uiso   1.00
N686   N     0.68494   0.15265   0.73788   0.00000  Uiso   1.00
O687   O     0.79482   0.23809   0.74686   0.00000  Uiso   1.00
O688   O     0.96036   0.05998   0.54789   0.00000  Uiso   1.00
O689   O     0.87185   0.09524   0.75314   0.00000  Uiso   1.00
O690   O     0.89496   0.24753   0.75503   0.00000  Uiso   1.00
O691   O     0.77171   0.08580   0.74498   0.00000  Uiso   1.00
O692   O     0.75518   0.15930   0.80855   0.00000  Uiso   1.00
O693   O     0.91149   0.17403   0.69146   0.00000  Uiso   1.00
O694   O     0.85532   0.16874   0.81671   0.00000  Uiso   1.00
O695   O     0.81134   0.16460   0.68329   0.00000  Uiso   1.00
O696   O     0.70627   0.27333   0.95212   0.00000  Uiso   1.00
C697   C     0.18170   0.60004   0.75131   0.00000  Uiso   1.00
C698   C     0.20476   0.50198   0.66695   0.00000  Uiso   1.00
C699   C     0.10823   0.50659   0.88035   0.00000  Uiso   1.00
C700   C     0.22510   0.49340   0.61965   0.00000  Uiso   1.00
C701   C     0.06739   0.56385   0.93932   0.00000  Uiso   1.00
C702   C     0.26592   0.43613   0.56068   0.00000  Uiso   1.00
C703   C     0.07159   0.54376   0.89655   0.00000  Uiso   1.00
C704   C     0.26173   0.45623   0.60345   0.00000  Uiso   1.00
C705   C     0.13810   0.48711   0.90753   0.00000  Uiso   1.00
C706   C     0.19523   0.51288   0.59247   0.00000  Uiso   1.00
C707   C     0.13476   0.50600   0.95097   0.00000  Uiso   1.00
C708   C     0.15164   0.39996   0.74869   0.00000  Uiso   1.00
C709   C     0.19855   0.49398   0.54903   0.00000  Uiso   1.00
C710   C     0.09989   0.54585   0.96634   0.00000  Uiso   1.00
C711   C     0.23342   0.45413   0.53366   0.00000  Uiso   1.00
C712   C     0.16735   0.48823   0.97875   0.00000  Uiso   1.00
C713   C     0.16596   0.51175   0.52126   0.00000  Uiso   1.00
C714   C     0.30737   0.58787   0.96780   0.00000  Uiso   1.00
C715   C     0.02593   0.41210   0.53220   0.00000  Uiso   1.00
C716   C     0.13225   0.55239   0.53453   0.00000  Uiso   1.00
C717   C     0.20104   0.44758   0.96548   0.00000  Uiso   1.00
C718   C     0.09941   0.56841   0.50793   0.00000  Uiso   1.00
C719   C     0.23388   0.43156   0.99208   0.00000  Uiso   1.00
C720   C     0.19014   0.65604   0.75194   0.00000  Uiso   1.00
C721   C     0.14319   0.34396   0.74806   0.00000  Uiso   1.00
C722   C     0.12857   0.49802   0.83305   0.00000  Uiso   1.00
Cu723  Cu    0.10737   0.49441   0.74517   0.00000  Uiso   1.00
Cu724  Cu    0.22596   0.50559   0.75484   0.00000  Uiso   1.00
H725   H     0.07412   0.59949   0.52009   0.00000  Uiso   1.00
H726   H     0.09797   0.65345   0.74439   0.00000  Uiso   1.00
H727   H     0.00134   0.53861   0.78449   0.00000  Uiso   1.00
H728   H     0.33199   0.46138   0.71551   0.00000  Uiso   1.00
H729   H     0.28576   0.56558   0.94184   0.00000  Uiso   1.00
H730   H     0.28488   0.62210   0.97807   0.00000  Uiso   1.00
H731   H     0.29733   0.56316   0.99706   0.00000  Uiso   1.00
H732   H     0.04841   0.37786   0.52193   0.00000  Uiso   1.00
H733   H     0.04756   0.43441   0.55814   0.00000  Uiso   1.00
H734   H     0.03596   0.43679   0.50293   0.00000  Uiso   1.00
H735   H     0.25916   0.40047   0.97992   0.00000  Uiso   1.00
H736   H     0.16632   0.54032   0.60748   0.00000  Uiso   1.00
H737   H     0.16703   0.45969   0.89252   0.00000  Uiso   1.00
H738   H     0.28249   0.43925   0.62511   0.00000  Uiso   1.00
H739   H     0.05083   0.56074   0.87489   0.00000  Uiso   1.00
H740   H     0.13055   0.57352   0.56532   0.00000  Uiso   1.00
H741   H     0.20272   0.42645   0.93470   0.00000  Uiso   1.00
H742   H     0.23536   0.34655   0.75561   0.00000  Uiso   1.00
N743   N     0.31506   0.51401   0.76212   0.00000  Uiso   1.00
N744   N     0.01827   0.48599   0.73788   0.00000  Uiso   1.00
O745   O     0.12815   0.57142   0.74686   0.00000  Uiso   1.00
O746   O     0.29369   0.39331   0.54789   0.00000  Uiso   1.00
O747   O     0.20518   0.42858   0.75314   0.00000  Uiso   1.00
O748   O     0.22829   0.58086   0.75503   0.00000  Uiso   1.00
O749   O     0.10504   0.41914   0.74498   0.00000  Uiso   1.00
O750   O     0.08851   0.49263   0.80855   0.00000  Uiso   1.00
O751   O     0.24482   0.50737   0.69146   0.00000  Uiso   1.00
O752   O     0.18866   0.50207   0.81671   0.00000  Uiso   1.00
O753   O     0.14468   0.49793   0.68329   0.00000  Uiso   1.00
O754   O     0.03961   0.60666   0.95212   0.00000  Uiso   1.00
C755   C     0.51503   0.60004   0.75131   0.00000  Uiso   1.00
C756   C     0.53809   0.50198   0.66695   0.00000  Uiso   1.00
C757   C     0.44157   0.50659   0.88035   0.00000  Uiso   1.00
C758   C     0.55843   0.49340   0.61965   0.00000  Uiso   1.00
C759   C     0.40073   0.56385   0.93932   0.00000  Uiso   1.00
C760   C     0.59925   0.43613   0.56068   0.00000  Uiso   1.00
C761   C     0.40492   0.54376   0.89655   0.00000  Uiso   1.00
C762   C     0.59507   0.45623   0.60345   0.00000  Uiso   1.00
C763   C     0.47143   0.48711   0.90753   0.00000  Uiso   1.00
C764   C     0.52856   0.51288   0.59247   0.00000  Uiso   1.00
C765   C     0.46810   0.50600   0.95097   0.00000  Uiso   1.00
C766   C     0.48497   0.39996   0.74869   0.00000  Uiso   1.00
C767   C     0.53188   0.49398   0.54903   0.00000  Uiso   1.00
C768   C     0.43322   0.54585   0.96634   0.00000  Uiso   1.00
C769   C     0.56675   0.45413   0.53366   0.00000  Uiso   1.00
C770   C     0.50068   0.48823   0.97875   0.00000  Uiso   1.00
C771   C     0.49929   0.51175   0.52126   0.00000  Uiso   1.00
C772   C     0.64070   0.58787   0.96780   0.00000  Uiso   1.00
C773   C     0.35926   0.41210   0.53220   0.00000  Uiso   1.00
C774   C     0.46558   0.55239   0.53453   0.00000  Uiso   1.00
C775   C     0.53438   0.44758   0.96548   0.00000  Uiso   1.00
C776   C     0.43275   0.56841   0.50793   0.00000  Uiso   1.00
C777   C     0.56721   0.43156   0.99208   0.00000  Uiso   1.00
C778   C     0.52347   0.65604   0.75194   0.00000  Uiso   1.00
C779   C     0.47653   0.34396   0.74806   0.00000  Uiso   1.00
C780   C     0.46191   0.49802   0.83305   0.00000  Uiso   1.00
Cu781  Cu    0.44071   0.49441   0.74517   0.00000  Uiso   1.00
Cu782  Cu    0.55929   0.50559   0.75484   0.00000  Uiso   1.00
H783   H     0.40746   0.59949   0.52009   0.00000  Uiso   1.00
H784   H     0.43131   0.65345   0.74439   0.00000  Uiso   1.00
H785   H     0.33467   0.53861   0.78449   0.00000  Uiso   1.00
H786   H     0.66533   0.46138   0.71551   0.00000  Uiso   1.00
H787   H     0.61909   0.56558   0.94184   0.00000  Uiso   1.00
H788   H     0.61821   0.62210   0.97807   0.00000  Uiso   1.00
H789   H     0.63067   0.56316   0.99706   0.00000  Uiso   1.00
H790   H     0.38175   0.37786   0.52193   0.00000  Uiso   1.00
H791   H     0.38089   0.43441   0.55814   0.00000  Uiso   1.00
H792   H     0.36929   0.43679   0.50293   0.00000  Uiso   1.00
H793   H     0.59249   0.40047   0.97992   0.00000  Uiso   1.00
H794   H     0.49965   0.54032   0.60748   0.00000  Uiso   1.00
H795   H     0.50036   0.45969   0.89252   0.00000  Uiso   1.00
H796   H     0.61583   0.43925   0.62511   0.00000  Uiso   1.00
H797   H     0.38416   0.56074   0.87489   0.00000  Uiso   1.00
H798   H     0.46389   0.57352   0.56532   0.00000  Uiso   1.00
H799   H     0.53606   0.42645   0.93470   0.00000  Uiso   1.00
H800   H     0.56869   0.34655   0.75561   0.00000  Uiso   1.00
N801   N     0.64839   0.51401   0.76212   0.00000  Uiso   1.00
N802   N     0.35161   0.48599   0.73788   0.00000  Uiso   1.00
O803   O     0.46148   0.57142   0.74686   0.00000  Uiso   1.00
O804   O     0.62703   0.39331   0.54789   0.00000  Uiso   1.00
O805   O     0.53852   0.42858   0.75314   0.00000  Uiso   1.00
O806   O     0.56163   0.58086   0.75503   0.00000  Uiso   1.00
O807   O     0.43837   0.41914   0.74498   0.00000  Uiso   1.00
O808   O     0.42185   0.49263   0.80855   0.00000  Uiso   1.00
O809   O     0.57815   0.50737   0.69146   0.00000  Uiso   1.00
O810   O     0.52199   0.50207   0.81671   0.00000  Uiso   1.00
O811   O     0.47801   0.49793   0.68329   0.00000  Uiso   1.00
O812   O     0.37294   0.60666   0.95212   0.00000  Uiso   1.00
C813   C     0.84836   0.60004   0.75131   0.00000  Uiso   1.00
C814   C     0.87143   0.50198   0.66695   0.00000  Uiso   1.00
C815   C     0.77490   0.50659   0.88035   0.00000  Uiso   1.00
C816   C     0.89176   0.49340   0.61965   0.00000  Uiso   1.00
C817   C     0.73406   0.56385   0.93932   0.00000  Uiso   1.00
C818   C     0.93258   0.43613   0.56068   0.00000  Uiso   1.00
C819   C     0.73825   0.54376   0.89655   0.00000  Uiso   1.00
C820   C     0.92840   0.45623   0.60345   0.00000  Uiso   1.00
C821   C     0.80477   0.48711   0.90753   0.00000  Uiso   1.00
C822   C     0.86189   0.51288   0.59247   0.00000  Uiso   1.00
C823   C     0.80143   0.50600   0.95097   0.00000  Uiso   1.00
C824   C     0.81830   0.39996   0.74869   0.00000  Uiso   1.00
C825   C     0.86521   0.49398   0.54903   0.00000  Uiso   1.00
C826   C     0.76655   0.54585   0.96634   0.00000  Uiso   1.00
C827   C     0.90008   0.45413   0.53366   0.00000  Uiso   1.00
C828   C     0.83401   0.48823   0.97875   0.00000  Uiso   1.00
C829   C     0.83262   0.51175   0.52126   0.00000  Uiso   1.00
C830   C     0.97404   0.58787   0.96780   0.00000  Uiso   1.00
C831   C     0.69260   0.41210   0.53220   0.00000  Uiso   1.00
C832   C     0.79891   0.55239   0.53453   0.00000  Uiso   1.00
C833   C     0.86771   0.44758   0.96548   0.00000  Uiso   1.00
C834   C     0.76608   0.56841   0.50793   0.00000  Uiso   1.00
C835   C     0.90054   0.43156   0.99208   0.00000  Uiso   1.00
C836   C     0.85681   0.65604   0.75194   0.00000  Uiso   1.00
C837   C     0.80986   0.34396   0.74806   0.00000  Uiso   1.00
C838   C     0.79524   0.49802   0.83305   0.00000  Uiso   1.00
Cu839  Cu    0.77404   0.49441   0.74517   0.00000  Uiso   1.00
Cu840  Cu    0.89263   0.50559   0.75484   0.00000  Uiso   1.00
H841   H     0.74079   0.59949   0.52009   0.00000  Uiso   1.00
H842   H     0.76464   0.65345   0.74439   0.00000  Uiso   1.00
H843   H     0.66801   0.53861   0.78449   0.00000  Uiso   1.00
H844   H     0.99866   0.46138   0.71551   0.00000  Uiso   1.00
H845   H     0.95242   0.56558   0.94184   0.00000  Uiso   1.00
H846   H     0.95155   0.62210   0.97807   0.00000  Uiso   1.00
H847   H     0.96400   0.56316   0.99706   0.00000  Uiso   1.00
H848   H     0.71508   0.37786   0.52193   0.00000  Uiso   1.00
H849   H     0.71422   0.43441   0.55814   0.00000  Uiso   1.00
H850   H     0.70262   0.43679   0.50293   0.00000  Uiso   1.00
H851   H     0.92582   0.40047   0.97992   0.00000  Uiso   1.00
H852   H     0.83298   0.54032   0.60748   0.00000  Uiso   1.00
H853   H     0.83369   0.45969   0.89252   0.00000  Uiso   1.00
H854   H     0.94916   0.43925   0.62511   0.00000  Uiso   1.00
H855   H     0.71749   0.56074   0.87489   0.00000  Uiso   1.00
H856   H     0.79722   0.57352   0.56532   0.00000  Uiso   1.00
H857   H     0.86939   0.42645   0.93470   0.00000  Uiso   1.00
H858   H     0.90203   0.34655   0.75561   0.00000  Uiso   1.00
N859   N     0.98173   0.51401   0.76212   0.00000  Uiso   1.00
N860   N     0.68494   0.48599   0.73788   0.00000  Uiso   1.00
O861   O     0.79482   0.57142   0.74686   0.00000  Uiso   1.00
O862   O     0.96036   0.39331   0.54789   0.00000  Uiso   1.00
O863   O     0.87185   0.42858   0.75314   0.00000  Uiso   1.00
O864   O     0.89496   0.58086   0.75503   0.00000  Uiso   1.00
O865   O     0.77171   0.41914   0.74498   0.00000  Uiso   1.00
O866   O     0.75518   0.49263   0.80855   0.00000  Uiso   1.00
O867   O     0.91149   0.50737   0.69146   0.00000  Uiso   1.00
O868   O     0.85532   0.50207   0.81671   0.00000  Uiso   1.00
O869   O     0.81134   0.49793   0.68329   0.00000  Uiso   1.00
O870   O     0.70627   0.60666   0.95212   0.00000  Uiso   1.00
C871   C     0.18170   0.93337   0.75131   0.00000  Uiso   1.00
C872   C     0.20476   0.83532   0.66695   0.00000  Uiso   1.00
C873   C     0.10823   0.83993   0.88035   0.00000  Uiso   1.00
C874   C     0.22510   0.82674   0.61965   0.00000  Uiso   1.00
C875   C     0.06739   0.89719   0.93932   0.00000  Uiso   1.00
C876   C     0.26592   0.76946   0.56068   0.00000  Uiso   1.00
C877   C     0.07159   0.87710   0.89655   0.00000  Uiso   1.00
C878   C     0.26173   0.78956   0.60345   0.00000  Uiso   1.00
C879   C     0.13810   0.82045   0.90753   0.00000  Uiso   1.00
C880   C     0.19523   0.84622   0.59247   0.00000  Uiso   1.00
C881   C     0.13476   0.83933   0.95097   0.00000  Uiso   1.00
C882   C     0.15164   0.73329   0.74869   0.00000  Uiso   1.00
C883   C     0.19855   0.82731   0.54903   0.00000  Uiso   1.00
C884   C     0.09989   0.87918   0.96634   0.00000  Uiso   1.00
C885   C     0.23342   0.78746   0.53366   0.00000  Uiso   1.00
C886   C     0.16735   0.82156   0.97875   0.00000  Uiso   1.00
C887   C     0.16596   0.84508   0.52126   0.00000  Uiso   1.00
C888   C     0.30737   0.92120   0.96780   0.00000  Uiso   1.00
C889   C     0.02593   0.74544   0.53220   0.00000  Uiso   1.00
C890   C     0.13225   0.88572   0.53453   0.00000  Uiso   1.00
C891   C     0.20104   0.78091   0.96548   0.00000  Uiso   1.00
C892   C     0.09941   0.90174   0.50793   0.00000  Uiso   1.00
C893   C     0.23388   0.76489   0.99208   0.00000  Uiso   1.00
C894   C     0.19014   0.98937   0.75194   0.00000  Uiso   1.00
C895   C     0.14319   0.67729   0.74806   0.00000  Uiso   1.00
C896   C     0.12857   0.83135   0.83305   0.00000  Uiso   1.00
Cu897  Cu    0.10737   0.82775   0.74517   0.00000  Uiso   1.00
Cu898  Cu    0.22596   0.83892   0.75484   0.00000  Uiso   1.00
H899   H     0.07412   0.93283   0.52009   0.00000  Uiso   1.00
H900   H     0.09797   0.98678   0.74439   0.00000  Uiso   1.00
H901   H     0.00134   0.87195   0.78449   0.00000  Uiso   1.00
H902   H     0.33199   0.79472   0.71551   0.00000  Uiso   1.00
H903   H     0.28576   0.89891   0.94184   0.00000  Uiso   1.00
H904   H     0.28488   0.95544   0.97807   0.00000  Uiso   1.00
H905   H     0.29733   0.89649   0.99706   0.00000  Uiso   1.00
H906   H     0.04841   0.71120   0.52193   0.00000  Uiso   1.00
H907   H     0.04756   0.76774   0.55814   0.00000  Uiso   1.00
H908   H     0.03596   0.77013   0.50293   0.00000  Uiso   1.00
H909   H     0.25916   0.73380   0.97992   0.00000  Uiso   1.00
H910   H     0.16632   0.87365   0.60748   0.00000  Uiso   1.00
H911   H     0.16703   0.79302   0.89252   0.00000  Uiso   1.00
H912   H     0.28249   0.77259   0.62511   0.00000  Uiso   1.00
H913   H     0.05083   0.89407   0.87489   0.00000  Uiso   1.00
H914   H     0.13055   0.90685   0.56532   0.00000  Uiso   1.00
H915   H     0.20272   0.75978   0.93470   0.00000  Uiso   1.00
H916   H     0.23536   0.67988   0.75561   0.00000  Uiso   1.00
N917   N     0.31506   0.84735   0.76212   0.00000  Uiso   1.00
N918   N     0.01827   0.81932   0.73788   0.00000  Uiso   1.00
O919   O     0.12815   0.90476   0.74686   0.00000  Uiso   1.00
O920   O     0.29369   0.72665   0.54789   0.00000  Uiso   1.00
O921   O     0.20518   0.76191   0.75314   0.00000  Uiso   1.00
O922   O     0.22829   0.91420   0.75503   0.00000  Uiso   1.00
O923   O     0.10504   0.75247   0.74498   0.00000  Uiso   1.00
O924   O     0.08851   0.82597   0.80855   0.00000  Uiso   1.00
O925   O     0.24482   0.84070   0.69146   0.00000  Uiso   1.00
O926   O     0.18866   0.83540   0.81671   0.00000  Uiso   1.00
O927   O     0.14468   0.83126   0.68329   0.00000  Uiso   1.00
O928   O     0.03961   0.94000   0.95212   0.00000  Uiso   1.00
C929   C     0.51503   0.93337   0.75131   0.00000  Uiso   1.00
C930   C     0.53809   0.83532   0.66695   0.00000  Uiso   1.00
C931   C     0.44157   0.83993   0.88035   0.00000  Uiso   1.00
C932   C     0.55843   0.82674   0.61965   0.00000  Uiso   1.00
C933   C     0.40073   0.89719   0.93932   0.00000  Uiso   1.00
C934   C     0.59925   0.76946   0.56068   0.00000  Uiso   1.00
C935   C     0.40492   0.87710   0.89655   0.00000  Uiso   1.00
C936   C     0.59507   0.78956   0.60345   0.00000  Uiso   1.00
C937   C     0.47143   0.82045   0.90753   0.00000  Uiso   1.00
C938   C     0.52856   0.84622   0.59247   0.00000  Uiso   1.00
C939   C     0.46810   0.83933   0.95097   0.00000  Uiso   1.00
C940   C     0.48497   0.73329   0.74869   0.00000  Uiso   1.00
C941   C     0.53188   0.82731   0.54903   0.00000  Uiso   1.00
C942   C     0.43322   0.87918   0.96634   0.00000  Uiso   1.00
C943   C     0.56675   0.78746   0.53366   0.00000  Uiso   1.00
C944   C     0.50068   0.82156   0.97875   0.00000  Uiso   1.00
C945   C     0.49929   0.84508   0.52126   0.00000  Uiso   1.00
C946   C     0.64070   0.92120   0.96780   0.00000  Uiso   1.00
C947   C     0.35926   0.74544   0.53220   0.00000  Uiso   1.00
C948   C     0.46558   0.88572   0.53453   0.00000  Uiso   1.00
C949   C     0.53438   0.78091   0.96548   0.00000  Uiso   1.00
C950   C     0.43275   0.90174   0.50793   0.00000  Uiso   1.00
C951   C     0.56721   0.76489   0.99208   0.00000  Uiso   1.00
C952   C     0.52347   0.98937   0.75194   0.00000  Uiso   1.00
C953   C     0.47653   0.67729   0.74806   0.00000  Uiso   1.00
C954   C     0.46191   0.83135   0.83305   0.00000  Uiso   1.00
Cu955  Cu    0.44071   0.82775   0.74517   0.00000  Uiso   1.00
Cu956  Cu    0.55929   0.83892   0.75484   0.00000  Uiso   1.00
H957   H     0.40746   0.93283   0.52009   0.00000  Uiso   1.00
H958   H     0.43131   0.98678   0.74439   0.00000  Uiso   1.00
H959   H     0.33467   0.87195   0.78449   0.00000  Uiso   1.00
H960   H     0.66533   0.79472   0.71551   0.00000  Uiso   1.00
H961   H     0.61909   0.89891   0.94184   0.00000  Uiso   1.00
H962   H     0.61821   0.95544   0.97807   0.00000  Uiso   1.00
H963   H     0.63067   0.89649   0.99706   0.00000  Uiso   1.00
H964   H     0.38175   0.71120   0.52193   0.00000  Uiso   1.00
H965   H     0.38089   0.76774   0.55814   0.00000  Uiso   1.00
H966   H     0.36929   0.77013   0.50293   0.00000  Uiso   1.00
H967   H     0.59249   0.73380   0.97992   0.00000  Uiso   1.00
H968   H     0.49965   0.87365   0.60748   0.00000  Uiso   1.00
H969   H     0.50036   0.79302   0.89252   0.00000  Uiso   1.00
H970   H     0.61583   0.77259   0.62511   0.00000  Uiso   1.00
H971   H     0.38416   0.89407   0.87489   0.00000  Uiso   1.00
H972   H     0.46389   0.90685   0.56532   0.00000  Uiso   1.00
H973   H     0.53606   0.75978   0.93470   0.00000  Uiso   1.00
H974   H     0.56869   0.67988   0.75561   0.00000  Uiso   1.00
N975   N     0.64839   0.84735   0.76212   0.00000  Uiso   1.00
N976   N     0.35161   0.81932   0.73788   0.00000  Uiso   1.00
O977   O     0.46148   0.90476   0.74686   0.00000  Uiso   1.00
O978   O     0.62703   0.72665   0.54789   0.00000  Uiso   1.00
O979   O     0.53852   0.76191   0.75314   0.00000  Uiso   1.00
O980   O     0.56163   0.91420   0.75503   0.00000  Uiso   1.00
O981   O     0.43837   0.75247   0.74498   0.00000  Uiso   1.00
O982   O     0.42185   0.82597   0.80855   0.00000  Uiso   1.00
O983   O     0.57815   0.84070   0.69146   0.00000  Uiso   1.00
O984   O     0.52199   0.83540   0.81671   0.00000  Uiso   1.00
O985   O     0.47801   0.83126   0.68329   0.00000  Uiso   1.00
O986   O     0.37294   0.94000   0.95212   0.00000  Uiso   1.00
C987   C     0.84836   0.93337   0.75131   0.00000  Uiso   1.00
C988   C     0.87143   0.83532   0.66695   0.00000  Uiso   1.00
C989   C     0.77490   0.83993   0.88035   0.00000  Uiso   1.00
C990   C     0.89176   0.82674   0.61965   0.00000  Uiso   1.00
C991   C     0.73406   0.89719   0.93932   0.00000  Uiso   1.00
C992   C     0.93258   0.76946   0.56068   0.00000  Uiso   1.00
C993   C     0.73825   0.87710   0.89655   0.00000  Uiso   1.00
C994   C     0.92840   0.78956   0.60345   0.00000  Uiso   1.00
C995   C     0.80477   0.82045   0.90753   0.00000  Uiso   1.00
C996   C     0.86189   0.84622   0.59247   0.00000  Uiso   1.00
C997   C     0.80143   0.83933   0.95097   0.00000  Uiso   1.00
C998   C     0.81830   0.73329   0.74869   0.00000  Uiso   1.00
C999   C     0.86521   0.82731   0.54903   0.00000  Uiso   1.00
C1000  C     0.76655   0.87918   0.96634   0.00000  Uiso   1.00
C1001  C     0.90008   0.78746   0.53366   0.00000  Uiso   1.00
C1002  C     0.83401   0.82156   0.97875   0.00000  Uiso   1.00
C1003  C     0.83262   0.84508   0.52126   0.00000  Uiso   1.00
C1004  C     0.97404   0.92120   0.96780   0.00000  Uiso   1.00
C1005  C     0.69260   0.74544   0.53220   0.00000  Uiso   1.00
C1006  C     0.79891   0.88572   0.53453   0.00000  Uiso   1.00
C1007  C     0.86771   0.78091   0.96548   0.00000  Uiso   1.00
C1008  C     0.76608   0.90174   0.50793   0.00000  Uiso   1.00
C1009  C     0.90054   0.76489   0.99208   0.00000  Uiso   1.00
C1010  C     0.85681   0.98937   0.75194   0.00000  Uiso   1.00
C1011  C     0.80986   0.67729   0.74806   0.00000  Uiso   1.00
C1012  C     0.79524   0.83135   0.83305   0.00000  Uiso   1.00
Cu1013 Cu    0.77404   0.82775   0.74517   0.00000  Uiso   1.00
Cu1014 Cu    0.89263   0.83892   0.75484   0.00000  Uiso   1.00
H1015  H     0.74079   0.93283   0.52009   0.00000  Uiso   1.00
H1016  H     0.76464   0.98678   0.74439   0.00000  Uiso   1.00
H1017  H     0.66801   0.87195   0.78449   0.00000  Uiso   1.00
H1018  H     0.99866   0.79472   0.71551   0.00000  Uiso   1.00
H1019  H     0.95242   0.89891   0.94184   0.00000  Uiso   1.00
H1020  H     0.95155   0.95544   0.97807   0.00000  Uiso   1.00
H1021  H     0.96400   0.89649   0.99706   0.00000  Uiso   1.00
H1022  H     0.71508   0.71120   0.52193   0.00000  Uiso   1.00
H1023  H     0.71422   0.76774   0.55814   0.00000  Uiso   1.00
H1024  H     0.70262   0.77013   0.50293   0.00000  Uiso   1.00
H1025  H     0.92582   0.73380   0.97992   0.00000  Uiso   1.00
H1026  H     0.83298   0.87365   0.60748   0.00000  Uiso   1.00
H1027  H     0.83369   0.79302   0.89252   0.00000  Uiso   1.00
H1028  H     0.94916   0.77259   0.62511   0.00000  Uiso   1.00
H1029  H     0.71749   0.89407   0.87489   0.00000  Uiso   1.00
H1030  H     0.79722   0.90685   0.56532   0.00000  Uiso   1.00
H1031  H     0.86939   0.75978   0.93470   0.00000  Uiso   1.00
H1032  H     0.90203   0.67988   0.75561   0.00000  Uiso   1.00
N1033  N     0.98173   0.84735   0.76212   0.00000  Uiso   1.00
N1034  N     0.68494   0.81932   0.73788   0.00000  Uiso   1.00
O1035  O     0.79482   0.90476   0.74686   0.00000  Uiso   1.00
O1036  O     0.96036   0.72665   0.54789   0.00000  Uiso   1.00
O1037  O     0.87185   0.76191   0.75314   0.00000  Uiso   1.00
O1038  O     0.89496   0.91420   0.75503   0.00000  Uiso   1.00
O1039  O     0.77171   0.75247   0.74498   0.00000  Uiso   1.00
O1040  O     0.75518   0.82597   0.80855   0.00000  Uiso   1.00
O1041  O     0.91149   0.84070   0.69146   0.00000  Uiso   1.00
O1042  O     0.85532   0.83540   0.81671   0.00000  Uiso   1.00
O1043  O     0.81134   0.83126   0.68329   0.00000  Uiso   1.00
O1044  O     0.70627   0.94000   0.95212   0.00000  Uiso   1.00
loop_
_geom_bond_atom_site_label_1
_geom_bond_atom_site_label_2
_geom_bond_distance
_geom_bond_site_symmetry_2
_ccdc_geom_bond_type
C1     O49     1.293   .     A
C1     O52     1.287   .     A
C1     C24     1.426   .     S
C2     C4      1.461   .     S
C2     O55     1.301   .     A
C2     O57     1.295   .     A
C3     C9      1.395   .     A
C3     C7      1.395   .     A
C3     C26     1.461   .     S
C4     C8      1.395   .     A
C4     C10     1.395   .     A
C5     C14     1.414   .     A
C5     O58     1.383   .     S
C5     C7      1.397   .     A
C6     O50     1.383   .     S
C6     C8      1.397   .     A
C6     C15     1.414   .     A
C7     H43     1.084   .     S
C8     H42     1.084   .     S
C9     C11     1.409   .     A
C9     H41     1.076   .     S
C10    H40     1.076   .     S
C10    C13     1.409   .     A
C11    C16     1.431   .     A
C11    C14     1.422   .     A
C12    C25     1.426   .     S
C12    O51     1.293   .     A
C12    O53     1.287   .     A
C13    C17     1.431   .     A
C13    C15     1.422   .     A
C14    C544    1.394   .     S
C15    C545    1.394   1_554 S
C16    C21     1.414   .     A
C16    C539    1.427   .     S
C17    C20     1.414   .     A
C17    C538    1.427   1_554 S
C18    H34     1.109   .     S
C18    H33     1.113   .     S
C18    H35     1.111   .     S
C18    O116    1.407   .     S
C19    H38     1.111   .     S
C19    H37     1.113   .     S
C19    H36     1.109   .     S
C19    O166    1.407   1_455 S
C20    C22     1.385   .     A
C20    H44     1.075   .     S
C21    H45     1.075   .     S
C21    C23     1.385   .     A
C22    H29     1.084   .     S
C22    C536    1.394   1_554 S
C23    H39     1.084   .     S
C23    C537    1.394   .     S
C24    C199    1.328   .     S
C24    H220    1.088   .     S
C25    C372    1.328   1_545 S
C25    H378    1.088   1_545 S
C26    O54     1.301   .     A
C26    O56     1.295   .     A
Cu27   N48     2.024   .     S
Cu27   O53     1.948   .     S
Cu27   O54     1.937   .     S
Cu27   O57     1.918   .     S
Cu27   O49     1.952   .     S
Cu27   Cu28    2.693   .     S
Cu28   N47     2.024   .     S
Cu28   O56     1.918   .     S
Cu28   O55     1.937   .     S
Cu28   O51     1.952   .     S
Cu28   O52     1.948   .     S
H30    C199    1.088   .     S
H31    N163    1.029   1_455 S
H32    N106    1.029   .     S
H46    C372    1.088   1_545 S
N47    H89     1.029   .     S
N47    N106    1.287   .     S
N48    H148    1.029   1_455 S
N48    N163    1.287   1_455 S
O50    C77     1.407   .     S
O58    C134    1.407   1_455 S
C59    O107    1.293   .     A
C59    O110    1.287   .     A
C59    C82     1.426   .     S
C60    C62     1.461   .     S
C60    O113    1.301   .     A
C60    O115    1.295   .     A
C61    C67     1.395   .     A
C61    C65     1.395   .     A
C61    C84     1.461   .     S
C62    C66     1.395   .     A
C62    C68     1.395   .     A
C63    C72     1.414   .     A
C63    O116    1.383   .     S
C63    C65     1.397   .     A
C64    O108    1.383   .     S
C64    C66     1.397   .     A
C64    C73     1.414   .     A
C65    H101    1.084   .     S
C66    H100    1.084   .     S
C67    C69     1.409   .     A
C67    H99     1.076   .     S
C68    H98     1.076   .     S
C68    C71     1.409   .     A
C69    C74     1.431   .     A
C69    C72     1.422   .     A
C70    C83     1.426   .     S
C70    O109    1.293   .     A
C70    O111    1.287   .     A
C71    C75     1.431   .     A
C71    C73     1.422   .     A
C72    C602    1.394   .     S
C73    C603    1.394   1_554 S
C74    C79     1.414   .     A
C74    C597    1.427   .     S
C75    C78     1.414   .     A
C75    C596    1.427   1_554 S
C76    H92     1.109   .     S
C76    H91     1.113   .     S
C76    H93     1.111   .     S
C76    O174    1.407   .     S
C77    H96     1.111   .     S
C77    H95     1.113   .     S
C77    H94     1.109   .     S
C78    C80     1.385   .     A
C78    H102    1.075   .     S
C79    H103    1.075   .     S
C79    C81     1.385   .     A
C80    H87     1.084   .     S
C80    C594    1.394   1_554 S
C81    H97     1.084   .     S
C81    C595    1.394   .     S
C82    C257    1.328   .     S
C82    H278    1.088   .     S
C83    C430    1.328   1_545 S
C83    H436    1.088   1_545 S
C84    O112    1.301   .     A
C84    O114    1.295   .     A
Cu85   N106    2.024   .     S
Cu85   O111    1.948   .     S
Cu85   O112    1.937   .     S
Cu85   O115    1.918   .     S
Cu85   O107    1.952   .     S
Cu85   Cu86    2.693   .     S
Cu86   N105    2.024   .     S
Cu86   O114    1.918   .     S
Cu86   O113    1.937   .     S
Cu86   O109    1.952   .     S
Cu86   O110    1.948   .     S
H88    C257    1.088   .     S
H90    N164    1.029   .     S
H104   C430    1.088   1_545 S
N105   H147    1.029   .     S
N105   N164    1.287   .     S
O108   C135    1.407   .     S
C117   O165    1.293   .     A
C117   O168    1.287   .     A
C117   C140    1.426   .     S
C118   C120    1.461   .     S
C118   O171    1.301   .     A
C118   O173    1.295   .     A
C119   C125    1.395   .     A
C119   C123    1.395   .     A
C119   C142    1.461   .     S
C120   C124    1.395   .     A
C120   C126    1.395   .     A
C121   C130    1.414   .     A
C121   O174    1.383   .     S
C121   C123    1.397   .     A
C122   O166    1.383   .     S
C122   C124    1.397   .     A
C122   C131    1.414   .     A
C123   H159    1.084   .     S
C124   H158    1.084   .     S
C125   C127    1.409   .     A
C125   H157    1.076   .     S
C126   H156    1.076   .     S
C126   C129    1.409   .     A
C127   C132    1.431   .     A
C127   C130    1.422   .     A
C128   C141    1.426   .     S
C128   O167    1.293   .     A
C128   O169    1.287   .     A
C129   C133    1.431   .     A
C129   C131    1.422   .     A
C130   C660    1.394   .     S
C131   C661    1.394   1_554 S
C132   C137    1.414   .     A
C132   C655    1.427   .     S
C133   C136    1.414   .     A
C133   C654    1.427   1_554 S
C134   H150    1.109   .     S
C134   H149    1.113   .     S
C134   H151    1.111   .     S
C134   O58     1.407   1_655 S
C135   H154    1.111   .     S
C135   H153    1.113   .     S
C135   H152    1.109   .     S
C136   C138    1.385   .     A
C136   H160    1.075   .     S
C137   H161    1.075   .     S
C137   C139    1.385   .     A
C138   H145    1.084   .     S
C138   C652    1.394   1_554 S
C139   H155    1.084   .     S
C139   C653    1.394   .     S
C140   C315    1.328   .     S
C140   H336    1.088   .     S
C141   C488    1.328   1_545 S
C141   H494    1.088   1_545 S
C142   O170    1.301   .     A
C142   O172    1.295   .     A
Cu143  N164    2.024   .     S
Cu143  O169    1.948   .     S
Cu143  O170    1.937   .     S
Cu143  O173    1.918   .     S
Cu143  O165    1.952   .     S
Cu143  Cu144   2.693   .     S
Cu144  N163    2.024   .     S
Cu144  O172    1.918   .     S
Cu144  O171    1.937   .     S
Cu144  O167    1.952   .     S
Cu144  O168    1.948   .     S
H146   C315    1.088   .     S
H148   N48     1.029   1_655 S
H162   C488    1.088   1_545 S
N163   H31     1.029   1_655 S
N163   N48     1.287   1_655 S
O166   C19     1.407   1_655 S
C175   O223    1.293   .     A
C175   O226    1.287   .     A
C175   C198    1.426   .     S
C176   C178    1.461   .     S
C176   O229    1.301   .     A
C176   O231    1.295   .     A
C177   C183    1.395   .     A
C177   C181    1.395   .     A
C177   C200    1.461   .     S
C178   C182    1.395   .     A
C178   C184    1.395   .     A
C179   C188    1.414   .     A
C179   O232    1.383   .     S
C179   C181    1.397   .     A
C180   O224    1.383   .     S
C180   C182    1.397   .     A
C180   C189    1.414   .     A
C181   H217    1.084   .     S
C182   H216    1.084   .     S
C183   C185    1.409   .     A
C183   H215    1.076   .     S
C184   H214    1.076   .     S
C184   C187    1.409   .     A
C185   C190    1.431   .     A
C185   C188    1.422   .     A
C186   C199    1.426   .     S
C186   O225    1.293   .     A
C186   O227    1.287   .     A
C187   C191    1.431   .     A
C187   C189    1.422   .     A
C188   C718    1.394   .     S
C189   C719    1.394   1_554 S
C190   C195    1.414   .     A
C190   C713    1.427   .     S
C191   C194    1.414   .     A
C191   C712    1.427   1_554 S
C192   H208    1.109   .     S
C192   H207    1.113   .     S
C192   H209    1.111   .     S
C192   O290    1.407   .     S
C193   H212    1.111   .     S
C193   H211    1.113   .     S
C193   H210    1.109   .     S
C193   O340    1.407   1_455 S
C194   C196    1.385   .     A
C194   H218    1.075   .     S
C195   H219    1.075   .     S
C195   C197    1.385   .     A
C196   H203    1.084   .     S
C196   C710    1.394   1_554 S
C197   H213    1.084   .     S
C197   C711    1.394   .     S
C198   C373    1.328   .     S
C198   H394    1.088   .     S
C200   O228    1.301   .     A
C200   O230    1.295   .     A
Cu201  N222    2.024   .     S
Cu201  O227    1.948   .     S
Cu201  O228    1.937   .     S
Cu201  O231    1.918   .     S
Cu201  O223    1.952   .     S
Cu201  Cu202   2.693   .     S
Cu202  N221    2.024   .     S
Cu202  O230    1.918   .     S
Cu202  O229    1.937   .     S
Cu202  O225    1.952   .     S
Cu202  O226    1.948   .     S
H204   C373    1.088   .     S
H205   N337    1.029   1_455 S
H206   N280    1.029   .     S
N221   H263    1.029   .     S
N221   N280    1.287   .     S
N222   H322    1.029   1_455 S
N222   N337    1.287   1_455 S
O224   C251    1.407   .     S
O232   C308    1.407   1_455 S
C233   O281    1.293   .     A
C233   O284    1.287   .     A
C233   C256    1.426   .     S
C234   C236    1.461   .     S
C234   O287    1.301   .     A
C234   O289    1.295   .     A
C235   C241    1.395   .     A
C235   C239    1.395   .     A
C235   C258    1.461   .     S
C236   C240    1.395   .     A
C236   C242    1.395   .     A
C237   C246    1.414   .     A
C237   O290    1.383   .     S
C237   C239    1.397   .     A
C238   O282    1.383   .     S
C238   C240    1.397   .     A
C238   C247    1.414   .     A
C239   H275    1.084   .     S
C240   H274    1.084   .     S
C241   C243    1.409   .     A
C241   H273    1.076   .     S
C242   H272    1.076   .     S
C242   C245    1.409   .     A
C243   C248    1.431   .     A
C243   C246    1.422   .     A
C244   C257    1.426   .     S
C244   O283    1.293   .     A
C244   O285    1.287   .     A
C245   C249    1.431   .     A
C245   C247    1.422   .     A
C246   C776    1.394   .     S
C247   C777    1.394   1_554 S
C248   C253    1.414   .     A
C248   C771    1.427   .     S
C249   C252    1.414   .     A
C249   C770    1.427   1_554 S
C250   H266    1.109   .     S
C250   H265    1.113   .     S
C250   H267    1.111   .     S
C250   O348    1.407   .     S
C251   H270    1.111   .     S
C251   H269    1.113   .     S
C251   H268    1.109   .     S
C252   C254    1.385   .     A
C252   H276    1.075   .     S
C253   H277    1.075   .     S
C253   C255    1.385   .     A
C254   H261    1.084   .     S
C254   C768    1.394   1_554 S
C255   H271    1.084   .     S
C255   C769    1.394   .     S
C256   C431    1.328   .     S
C256   H452    1.088   .     S
C258   O286    1.301   .     A
C258   O288    1.295   .     A
Cu259  N280    2.024   .     S
Cu259  O285    1.948   .     S
Cu259  O286    1.937   .     S
Cu259  O289    1.918   .     S
Cu259  O281    1.952   .     S
Cu259  Cu260   2.693   .     S
Cu260  N279    2.024   .     S
Cu260  O288    1.918   .     S
Cu260  O287    1.937   .     S
Cu260  O283    1.952   .     S
Cu260  O284    1.948   .     S
H262   C431    1.088   .     S
H264   N338    1.029   .     S
N279   H321    1.029   .     S
N279   N338    1.287   .     S
O282   C309    1.407   .     S
C291   O339    1.293   .     A
C291   O342    1.287   .     A
C291   C314    1.426   .     S
C292   C294    1.461   .     S
C292   O345    1.301   .     A
C292   O347    1.295   .     A
C293   C299    1.395   .     A
C293   C297    1.395   .     A
C293   C316    1.461   .     S
C294   C298    1.395   .     A
C294   C300    1.395   .     A
C295   C304    1.414   .     A
C295   O348    1.383   .     S
C295   C297    1.397   .     A
C296   O340    1.383   .     S
C296   C298    1.397   .     A
C296   C305    1.414   .     A
C297   H333    1.084   .     S
C298   H332    1.084   .     S
C299   C301    1.409   .     A
C299   H331    1.076   .     S
C300   H330    1.076   .     S
C300   C303    1.409   .     A
C301   C306    1.431   .     A
C301   C304    1.422   .     A
C302   C315    1.426   .     S
C302   O341    1.293   .     A
C302   O343    1.287   .     A
C303   C307    1.431   .     A
C303   C305    1.422   .     A
C304   C834    1.394   .     S
C305   C835    1.394   1_554 S
C306   C311    1.414   .     A
C306   C829    1.427   .     S
C307   C310    1.414   .     A
C307   C828    1.427   1_554 S
C308   H324    1.109   .     S
C308   H323    1.113   .     S
C308   H325    1.111   .     S
C308   O232    1.407   1_655 S
C309   H328    1.111   .     S
C309   H327    1.113   .     S
C309   H326    1.109   .     S
C310   C312    1.385   .     A
C310   H334    1.075   .     S
C311   H335    1.075   .     S
C311   C313    1.385   .     A
C312   H319    1.084   .     S
C312   C826    1.394   1_554 S
C313   H329    1.084   .     S
C313   C827    1.394   .     S
C314   C489    1.328   .     S
C314   H510    1.088   .     S
C316   O344    1.301   .     A
C316   O346    1.295   .     A
Cu317  N338    2.024   .     S
Cu317  O343    1.948   .     S
Cu317  O344    1.937   .     S
Cu317  O347    1.918   .     S
Cu317  O339    1.952   .     S
Cu317  Cu318   2.693   .     S
Cu318  N337    2.024   .     S
Cu318  O346    1.918   .     S
Cu318  O345    1.937   .     S
Cu318  O341    1.952   .     S
Cu318  O342    1.948   .     S
H320   C489    1.088   .     S
H322   N222    1.029   1_655 S
N337   H205    1.029   1_655 S
N337   N222    1.287   1_655 S
O340   C193    1.407   1_655 S
C349   O397    1.293   .     A
C349   O400    1.287   .     A
C349   C372    1.426   .     S
C350   C352    1.461   .     S
C350   O403    1.301   .     A
C350   O405    1.295   .     A
C351   C357    1.395   .     A
C351   C355    1.395   .     A
C351   C374    1.461   .     S
C352   C356    1.395   .     A
C352   C358    1.395   .     A
C353   C362    1.414   .     A
C353   O406    1.383   .     S
C353   C355    1.397   .     A
C354   O398    1.383   .     S
C354   C356    1.397   .     A
C354   C363    1.414   .     A
C355   H391    1.084   .     S
C356   H390    1.084   .     S
C357   C359    1.409   .     A
C357   H389    1.076   .     S
C358   H388    1.076   .     S
C358   C361    1.409   .     A
C359   C364    1.431   .     A
C359   C362    1.422   .     A
C360   C373    1.426   .     S
C360   O399    1.293   .     A
C360   O401    1.287   .     A
C361   C365    1.431   .     A
C361   C363    1.422   .     A
C362   C892    1.394   .     S
C363   C893    1.394   1_554 S
C364   C369    1.414   .     A
C364   C887    1.427   .     S
C365   C368    1.414   .     A
C365   C886    1.427   1_554 S
C366   H382    1.109   .     S
C366   H381    1.113   .     S
C366   H383    1.111   .     S
C366   O464    1.407   .     S
C367   H386    1.111   .     S
C367   H385    1.113   .     S
C367   H384    1.109   .     S
C367   O514    1.407   1_455 S
C368   C370    1.385   .     A
C368   H392    1.075   .     S
C369   H393    1.075   .     S
C369   C371    1.385   .     A
C370   H377    1.084   .     S
C370   C884    1.394   1_554 S
C371   H387    1.084   .     S
C371   C885    1.394   .     S
C372   C25     1.328   1_565 S
C372   H46     1.088   1_565 S
C374   O402    1.301   .     A
C374   O404    1.295   .     A
Cu375  N396    2.024   .     S
Cu375  O401    1.948   .     S
Cu375  O402    1.937   .     S
Cu375  O405    1.918   .     S
Cu375  O397    1.952   .     S
Cu375  Cu376   2.693   .     S
Cu376  N395    2.024   .     S
Cu376  O404    1.918   .     S
Cu376  O403    1.937   .     S
Cu376  O399    1.952   .     S
Cu376  O400    1.948   .     S
H378   C25     1.088   1_565 S
H379   N511    1.029   1_455 S
H380   N454    1.029   .     S
N395   H437    1.029   .     S
N395   N454    1.287   .     S
N396   H496    1.029   1_455 S
N396   N511    1.287   1_455 S
O398   C425    1.407   .     S
O406   C482    1.407   1_455 S
C407   O455    1.293   .     A
C407   O458    1.287   .     A
C407   C430    1.426   .     S
C408   C410    1.461   .     S
C408   O461    1.301   .     A
C408   O463    1.295   .     A
C409   C415    1.395   .     A
C409   C413    1.395   .     A
C409   C432    1.461   .     S
C410   C414    1.395   .     A
C410   C416    1.395   .     A
C411   C420    1.414   .     A
C411   O464    1.383   .     S
C411   C413    1.397   .     A
C412   O456    1.383   .     S
C412   C414    1.397   .     A
C412   C421    1.414   .     A
C413   H449    1.084   .     S
C414   H448    1.084   .     S
C415   C417    1.409   .     A
C415   H447    1.076   .     S
C416   H446    1.076   .     S
C416   C419    1.409   .     A
C417   C422    1.431   .     A
C417   C420    1.422   .     A
C418   C431    1.426   .     S
C418   O457    1.293   .     A
C418   O459    1.287   .     A
C419   C423    1.431   .     A
C419   C421    1.422   .     A
C420   C950    1.394   .     S
C421   C951    1.394   1_554 S
C422   C427    1.414   .     A
C422   C945    1.427   .     S
C423   C426    1.414   .     A
C423   C944    1.427   1_554 S
C424   H440    1.109   .     S
C424   H439    1.113   .     S
C424   H441    1.111   .     S
C424   O522    1.407   .     S
C425   H444    1.111   .     S
C425   H443    1.113   .     S
C425   H442    1.109   .     S
C426   C428    1.385   .     A
C426   H450    1.075   .     S
C427   H451    1.075   .     S
C427   C429    1.385   .     A
C428   H435    1.084   .     S
C428   C942    1.394   1_554 S
C429   H445    1.084   .     S
C429   C943    1.394   .     S
C430   C83     1.328   1_565 S
C430   H104    1.088   1_565 S
C432   O460    1.301   .     A
C432   O462    1.295   .     A
Cu433  N454    2.024   .     S
Cu433  O459    1.948   .     S
Cu433  O460    1.937   .     S
Cu433  O463    1.918   .     S
Cu433  O455    1.952   .     S
Cu433  Cu434   2.693   .     S
Cu434  N453    2.024   .     S
Cu434  O462    1.918   .     S
Cu434  O461    1.937   .     S
Cu434  O457    1.952   .     S
Cu434  O458    1.948   .     S
H436   C83     1.088   1_565 S
H438   N512    1.029   .     S
N453   H495    1.029   .     S
N453   N512    1.287   .     S
O456   C483    1.407   .     S
C465   O513    1.293   .     A
C465   O516    1.287   .     A
C465   C488    1.426   .     S
C466   C468    1.461   .     S
C466   O519    1.301   .     A
C466   O521    1.295   .     A
C467   C473    1.395   .     A
C467   C471    1.395   .     A
C467   C490    1.461   .     S
C468   C472    1.395   .     A
C468   C474    1.395   .     A
C469   C478    1.414   .     A
C469   O522    1.383   .     S
C469   C471    1.397   .     A
C470   O514    1.383   .     S
C470   C472    1.397   .     A
C470   C479    1.414   .     A
C471   H507    1.084   .     S
C472   H506    1.084   .     S
C473   C475    1.409   .     A
C473   H505    1.076   .     S
C474   H504    1.076   .     S
C474   C477    1.409   .     A
C475   C480    1.431   .     A
C475   C478    1.422   .     A
C476   C489    1.426   .     S
C476   O515    1.293   .     A
C476   O517    1.287   .     A
C477   C481    1.431   .     A
C477   C479    1.422   .     A
C478   C1008   1.394   .     S
C479   C1009   1.394   1_554 S
C480   C485    1.414   .     A
C480   C1003   1.427   .     S
C481   C484    1.414   .     A
C481   C1002   1.427   1_554 S
C482   H498    1.109   .     S
C482   H497    1.113   .     S
C482   H499    1.111   .     S
C482   O406    1.407   1_655 S
C483   H502    1.111   .     S
C483   H501    1.113   .     S
C483   H500    1.109   .     S
C484   C486    1.385   .     A
C484   H508    1.075   .     S
C485   H509    1.075   .     S
C485   C487    1.385   .     A
C486   H493    1.084   .     S
C486   C1000   1.394   1_554 S
C487   H503    1.084   .     S
C487   C1001   1.394   .     S
C488   C141    1.328   1_565 S
C488   H162    1.088   1_565 S
C490   O518    1.301   .     A
C490   O520    1.295   .     A
Cu491  N512    2.024   .     S
Cu491  O517    1.948   .     S
Cu491  O518    1.937   .     S
Cu491  O521    1.918   .     S
Cu491  O513    1.952   .     S
Cu491  Cu492   2.693   .     S
Cu492  N511    2.024   .     S
Cu492  O520    1.918   .     S
Cu492  O519    1.937   .     S
Cu492  O515    1.952   .     S
Cu492  O516    1.948   .     S
H494   C141    1.088   1_565 S
H496   N396    1.029   1_655 S
N511   H379    1.029   1_655 S
N511   N396    1.287   1_655 S
O514   C367    1.407   1_655 S
C523   O571    1.293   .     A
C523   O574    1.287   .     A
C523   C546    1.426   .     S
C524   C526    1.461   .     S
C524   O577    1.301   .     A
C524   O579    1.295   .     A
C525   C531    1.395   .     A
C525   C529    1.395   .     A
C525   C548    1.461   .     S
C526   C530    1.395   .     A
C526   C532    1.395   .     A
C527   C536    1.414   .     A
C527   O580    1.383   .     S
C527   C529    1.397   .     A
C528   O572    1.383   .     S
C528   C530    1.397   .     A
C528   C537    1.414   .     A
C529   H565    1.084   .     S
C530   H564    1.084   .     S
C531   C533    1.409   .     A
C531   H563    1.076   .     S
C532   H562    1.076   .     S
C532   C535    1.409   .     A
C533   C538    1.431   .     A
C533   C536    1.422   .     A
C534   C547    1.426   .     S
C534   O573    1.293   .     A
C534   O575    1.287   .     A
C535   C539    1.431   .     A
C535   C537    1.422   .     A
C536   C22     1.394   1_556 S
C538   C543    1.414   .     A
C538   C17     1.427   1_556 S
C539   C542    1.414   .     A
C540   H556    1.109   .     S
C540   H555    1.113   .     S
C540   H557    1.111   .     S
C540   O638    1.407   .     S
C541   H560    1.111   .     S
C541   H559    1.113   .     S
C541   H558    1.109   .     S
C541   O688    1.407   1_455 S
C542   C544    1.385   .     A
C542   H566    1.075   .     S
C543   H567    1.075   .     S
C543   C545    1.385   .     A
C544   H551    1.084   .     S
C545   H561    1.084   .     S
C545   C15     1.394   1_556 S
C546   C721    1.328   .     S
C546   H742    1.088   .     S
C547   C894    1.328   1_545 S
C547   H900    1.088   1_545 S
C548   O576    1.301   .     A
C548   O578    1.295   .     A
Cu549  N570    2.024   .     S
Cu549  O575    1.948   .     S
Cu549  O576    1.937   .     S
Cu549  O579    1.918   .     S
Cu549  O571    1.952   .     S
Cu549  Cu550   2.693   .     S
Cu550  N569    2.024   .     S
Cu550  O578    1.918   .     S
Cu550  O577    1.937   .     S
Cu550  O573    1.952   .     S
Cu550  O574    1.948   .     S
H552   C721    1.088   .     S
H553   N685    1.029   1_455 S
H554   N628    1.029   .     S
H568   C894    1.088   1_545 S
N569   H611    1.029   .     S
N569   N628    1.287   .     S
N570   H670    1.029   1_455 S
N570   N685    1.287   1_455 S
O572   C599    1.407   .     S
O580   C656    1.407   1_455 S
C581   O629    1.293   .     A
C581   O632    1.287   .     A
C581   C604    1.426   .     S
C582   C584    1.461   .     S
C582   O635    1.301   .     A
C582   O637    1.295   .     A
C583   C589    1.395   .     A
C583   C587    1.395   .     A
C583   C606    1.461   .     S
C584   C588    1.395   .     A
C584   C590    1.395   .     A
C585   C594    1.414   .     A
C585   O638    1.383   .     S
C585   C587    1.397   .     A
C586   O630    1.383   .     S
C586   C588    1.397   .     A
C586   C595    1.414   .     A
C587   H623    1.084   .     S
C588   H622    1.084   .     S
C589   C591    1.409   .     A
C589   H621    1.076   .     S
C590   H620    1.076   .     S
C590   C593    1.409   .     A
C591   C596    1.431   .     A
C591   C594    1.422   .     A
C592   C605    1.426   .     S
C592   O631    1.293   .     A
C592   O633    1.287   .     A
C593   C597    1.431   .     A
C593   C595    1.422   .     A
C594   C80     1.394   1_556 S
C596   C601    1.414   .     A
C596   C75     1.427   1_556 S
C597   C600    1.414   .     A
C598   H614    1.109   .     S
C598   H613    1.113   .     S
C598   H615    1.111   .     S
C598   O696    1.407   .     S
C599   H618    1.111   .     S
C599   H617    1.113   .     S
C599   H616    1.109   .     S
C600   C602    1.385   .     A
C600   H624    1.075   .     S
C601   H625    1.075   .     S
C601   C603    1.385   .     A
C602   H609    1.084   .     S
C603   H619    1.084   .     S
C603   C73     1.394   1_556 S
C604   C779    1.328   .     S
C604   H800    1.088   .     S
C605   C952    1.328   1_545 S
C605   H958    1.088   1_545 S
C606   O634    1.301   .     A
C606   O636    1.295   .     A
Cu607  N628    2.024   .     S
Cu607  O633    1.948   .     S
Cu607  O634    1.937   .     S
Cu607  O637    1.918   .     S
Cu607  O629    1.952   .     S
Cu607  Cu608   2.693   .     S
Cu608  N627    2.024   .     S
Cu608  O636    1.918   .     S
Cu608  O635    1.937   .     S
Cu608  O631    1.952   .     S
Cu608  O632    1.948   .     S
H610   C779    1.088   .     S
H612   N686    1.029   .     S
H626   C952    1.088   1_545 S
N627   H669    1.029   .     S
N627   N686    1.287   .     S
O630   C657    1.407   .     S
C639   O687    1.293   .     A
C639   O690    1.287   .     A
C639   C662    1.426   .     S
C640   C642    1.461   .     S
C640   O693    1.301   .     A
C640   O695    1.295   .     A
C641   C647    1.395   .     A
C641   C645    1.395   .     A
C641   C664    1.461   .     S
C642   C646    1.395   .     A
C642   C648    1.395   .     A
C643   C652    1.414   .     A
C643   O696    1.383   .     S
C643   C645    1.397   .     A
C644   O688    1.383   .     S
C644   C646    1.397   .     A
C644   C653    1.414   .     A
C645   H681    1.084   .     S
C646   H680    1.084   .     S
C647   C649    1.409   .     A
C647   H679    1.076   .     S
C648   H678    1.076   .     S
C648   C651    1.409   .     A
C649   C654    1.431   .     A
C649   C652    1.422   .     A
C650   C663    1.426   .     S
C650   O689    1.293   .     A
C650   O691    1.287   .     A
C651   C655    1.431   .     A
C651   C653    1.422   .     A
C652   C138    1.394   1_556 S
C654   C659    1.414   .     A
C654   C133    1.427   1_556 S
C655   C658    1.414   .     A
C656   H672    1.109   .     S
C656   H671    1.113   .     S
C656   H673    1.111   .     S
C656   O580    1.407   1_655 S
C657   H676    1.111   .     S
C657   H675    1.113   .     S
C657   H674    1.109   .     S
C658   C660    1.385   .     A
C658   H682    1.075   .     S
C659   H683    1.075   .     S
C659   C661    1.385   .     A
C660   H667    1.084   .     S
C661   H677    1.084   .     S
C661   C131    1.394   1_556 S
C662   C837    1.328   .     S
C662   H858    1.088   .     S
C663   C1010   1.328   1_545 S
C663   H1016   1.088   1_545 S
C664   O692    1.301   .     A
C664   O694    1.295   .     A
Cu665  N686    2.024   .     S
Cu665  O691    1.948   .     S
Cu665  O692    1.937   .     S
Cu665  O695    1.918   .     S
Cu665  O687    1.952   .     S
Cu665  Cu666   2.693   .     S
Cu666  N685    2.024   .     S
Cu666  O694    1.918   .     S
Cu666  O693    1.937   .     S
Cu666  O689    1.952   .     S
Cu666  O690    1.948   .     S
H668   C837    1.088   .     S
H670   N570    1.029   1_655 S
H684   C1010   1.088   1_545 S
N685   H553    1.029   1_655 S
N685   N570    1.287   1_655 S
O688   C541    1.407   1_655 S
C697   O745    1.293   .     A
C697   O748    1.287   .     A
C697   C720    1.426   .     S
C698   C700    1.461   .     S
C698   O751    1.301   .     A
C698   O753    1.295   .     A
C699   C705    1.395   .     A
C699   C703    1.395   .     A
C699   C722    1.461   .     S
C700   C704    1.395   .     A
C700   C706    1.395   .     A
C701   C710    1.414   .     A
C701   O754    1.383   .     S
C701   C703    1.397   .     A
C702   O746    1.383   .     S
C702   C704    1.397   .     A
C702   C711    1.414   .     A
C703   H739    1.084   .     S
C704   H738    1.084   .     S
C705   C707    1.409   .     A
C705   H737    1.076   .     S
C706   H736    1.076   .     S
C706   C709    1.409   .     A
C707   C712    1.431   .     A
C707   C710    1.422   .     A
C708   C721    1.426   .     S
C708   O747    1.293   .     A
C708   O749    1.287   .     A
C709   C713    1.431   .     A
C709   C711    1.422   .     A
C710   C196    1.394   1_556 S
C712   C717    1.414   .     A
C712   C191    1.427   1_556 S
C713   C716    1.414   .     A
C714   H730    1.109   .     S
C714   H729    1.113   .     S
C714   H731    1.111   .     S
C714   O812    1.407   .     S
C715   H734    1.111   .     S
C715   H733    1.113   .     S
C715   H732    1.109   .     S
C715   O862    1.407   1_455 S
C716   C718    1.385   .     A
C716   H740    1.075   .     S
C717   H741    1.075   .     S
C717   C719    1.385   .     A
C718   H725    1.084   .     S
C719   H735    1.084   .     S
C719   C189    1.394   1_556 S
C720   C895    1.328   .     S
C720   H916    1.088   .     S
C722   O750    1.301   .     A
C722   O752    1.295   .     A
Cu723  N744    2.024   .     S
Cu723  O749    1.948   .     S
Cu723  O750    1.937   .     S
Cu723  O753    1.918   .     S
Cu723  O745    1.952   .     S
Cu723  Cu724   2.693   .     S
Cu724  N743    2.024   .     S
Cu724  O752    1.918   .     S
Cu724  O751    1.937   .     S
Cu724  O747    1.952   .     S
Cu724  O748    1.948   .     S
H726   C895    1.088   .     S
H727   N859    1.029   1_455 S
H728   N802    1.029   .     S
N743   H785    1.029   .     S
N743   N802    1.287   .     S
N744   H844    1.029   1_455 S
N744   N859    1.287   1_455 S
O746   C773    1.407   .     S
O754   C830    1.407   1_455 S
C755   O803    1.293   .     A
C755   O806    1.287   .     A
C755   C778    1.426   .     S
C756   C758    1.461   .     S
C756   O809    1.301   .     A
C756   O811    1.295   .     A
C757   C763    1.395   .     A
C757   C761    1.395   .     A
C757   C780    1.461   .     S
C758   C762    1.395   .     A
C758   C764    1.395   .     A
C759   C768    1.414   .     A
C759   O812    1.383   .     S
C759   C761    1.397   .     A
C760   O804    1.383   .     S
C760   C762    1.397   .     A
C760   C769    1.414   .     A
C761   H797    1.084   .     S
C762   H796    1.084   .     S
C763   C765    1.409   .     A
C763   H795    1.076   .     S
C764   H794    1.076   .     S
C764   C767    1.409   .     A
C765   C770    1.431   .     A
C765   C768    1.422   .     A
C766   C779    1.426   .     S
C766   O805    1.293   .     A
C766   O807    1.287   .     A
C767   C771    1.431   .     A
C767   C769    1.422   .     A
C768   C254    1.394   1_556 S
C770   C775    1.414   .     A
C770   C249    1.427   1_556 S
C771   C774    1.414   .     A
C772   H788    1.109   .     S
C772   H787    1.113   .     S
C772   H789    1.111   .     S
C772   O870    1.407   .     S
C773   H792    1.111   .     S
C773   H791    1.113   .     S
C773   H790    1.109   .     S
C774   C776    1.385   .     A
C774   H798    1.075   .     S
C775   H799    1.075   .     S
C775   C777    1.385   .     A
C776   H783    1.084   .     S
C777   H793    1.084   .     S
C777   C247    1.394   1_556 S
C778   C953    1.328   .     S
C778   H974    1.088   .     S
C780   O808    1.301   .     A
C780   O810    1.295   .     A
Cu781  N802    2.024   .     S
Cu781  O807    1.948   .     S
Cu781  O808    1.937   .     S
Cu781  O811    1.918   .     S
Cu781  O803    1.952   .     S
Cu781  Cu782   2.693   .     S
Cu782  N801    2.024   .     S
Cu782  O810    1.918   .     S
Cu782  O809    1.937   .     S
Cu782  O805    1.952   .     S
Cu782  O806    1.948   .     S
H784   C953    1.088   .     S
H786   N860    1.029   .     S
N801   H843    1.029   .     S
N801   N860    1.287   .     S
O804   C831    1.407   .     S
C813   O861    1.293   .     A
C813   O864    1.287   .     A
C813   C836    1.426   .     S
C814   C816    1.461   .     S
C814   O867    1.301   .     A
C814   O869    1.295   .     A
C815   C821    1.395   .     A
C815   C819    1.395   .     A
C815   C838    1.461   .     S
C816   C820    1.395   .     A
C816   C822    1.395   .     A
C817   C826    1.414   .     A
C817   O870    1.383   .     S
C817   C819    1.397   .     A
C818   O862    1.383   .     S
C818   C820    1.397   .     A
C818   C827    1.414   .     A
C819   H855    1.084   .     S
C820   H854    1.084   .     S
C821   C823    1.409   .     A
C821   H853    1.076   .     S
C822   H852    1.076   .     S
C822   C825    1.409   .     A
C823   C828    1.431   .     A
C823   C826    1.422   .     A
C824   C837    1.426   .     S
C824   O863    1.293   .     A
C824   O865    1.287   .     A
C825   C829    1.431   .     A
C825   C827    1.422   .     A
C826   C312    1.394   1_556 S
C828   C833    1.414   .     A
C828   C307    1.427   1_556 S
C829   C832    1.414   .     A
C830   H846    1.109   .     S
C830   H845    1.113   .     S
C830   H847    1.111   .     S
C830   O754    1.407   1_655 S
C831   H850    1.111   .     S
C831   H849    1.113   .     S
C831   H848    1.109   .     S
C832   C834    1.385   .     A
C832   H856    1.075   .     S
C833   H857    1.075   .     S
C833   C835    1.385   .     A
C834   H841    1.084   .     S
C835   H851    1.084   .     S
C835   C305    1.394   1_556 S
C836   C1011   1.328   .     S
C836   H1032   1.088   .     S
C838   O866    1.301   .     A
C838   O868    1.295   .     A
Cu839  N860    2.024   .     S
Cu839  O865    1.948   .     S
Cu839  O866    1.937   .     S
Cu839  O869    1.918   .     S
Cu839  O861    1.952   .     S
Cu839  Cu840   2.693   .     S
Cu840  N859    2.024   .     S
Cu840  O868    1.918   .     S
Cu840  O867    1.937   .     S
Cu840  O863    1.952   .     S
Cu840  O864    1.948   .     S
H842   C1011   1.088   .     S
H844   N744    1.029   1_655 S
N859   H727    1.029   1_655 S
N859   N744    1.287   1_655 S
O862   C715    1.407   1_655 S
C871   O919    1.293   .     A
C871   O922    1.287   .     A
C871   C894    1.426   .     S
C872   C874    1.461   .     S
C872   O925    1.301   .     A
C872   O927    1.295   .     A
C873   C879    1.395   .     A
C873   C877    1.395   .     A
C873   C896    1.461   .     S
C874   C878    1.395   .     A
C874   C880    1.395   .     A
C875   C884    1.414   .     A
C875   O928    1.383   .     S
C875   C877    1.397   .     A
C876   O920    1.383   .     S
C876   C878    1.397   .     A
C876   C885    1.414   .     A
C877   H913    1.084   .     S
C878   H912    1.084   .     S
C879   C881    1.409   .     A
C879   H911    1.076   .     S
C880   H910    1.076   .     S
C880   C883    1.409   .     A
C881   C886    1.431   .     A
C881   C884    1.422   .     A
C882   C895    1.426   .     S
C882   O921    1.293   .     A
C882   O923    1.287   .     A
C883   C887    1.431   .     A
C883   C885    1.422   .     A
C884   C370    1.394   1_556 S
C886   C891    1.414   .     A
C886   C365    1.427   1_556 S
C887   C890    1.414   .     A
C888   H904    1.109   .     S
C888   H903    1.113   .     S
C888   H905    1.111   .     S
C888   O986    1.407   .     S
C889   H908    1.111   .     S
C889   H907    1.113   .     S
C889   H906    1.109   .     S
C889   O1036   1.407   1_455 S
C890   C892    1.385   .     A
C890   H914    1.075   .     S
C891   H915    1.075   .     S
C891   C893    1.385   .     A
C892   H899    1.084   .     S
C893   H909    1.084   .     S
C893   C363    1.394   1_556 S
C894   C547    1.328   1_565 S
C894   H568    1.088   1_565 S
C896   O924    1.301   .     A
C896   O926    1.295   .     A
Cu897  N918    2.024   .     S
Cu897  O923    1.948   .     S
Cu897  O924    1.937   .     S
Cu897  O927    1.918   .     S
Cu897  O919    1.952   .     S
Cu897  Cu898   2.693   .     S
Cu898  N917    2.024   .     S
Cu898  O926    1.918   .     S
Cu898  O925    1.937   .     S
Cu898  O921    1.952   .     S
Cu898  O922    1.948   .     S
H900   C547    1.088   1_565 S
H901   N1033   1.029   1_455 S
H902   N976    1.029   .     S
N917   H959    1.029   .     S
N917   N976    1.287   .     S
N918   H1018   1.029   1_455 S
N918   N1033   1.287   1_455 S
O920   C947    1.407   .     S
O928   C1004   1.407   1_455 S
C929   O977    1.293   .     A
C929   O980    1.287   .     A
C929   C952    1.426   .     S
C930   C932    1.461   .     S
C930   O983    1.301   .     A
C930   O985    1.295   .     A
C931   C937    1.395   .     A
C931   C935    1.395   .     A
C931   C954    1.461   .     S
C932   C936    1.395   .     A
C932   C938    1.395   .     A
C933   C942    1.414   .     A
C933   O986    1.383   .     S
C933   C935    1.397   .     A
C934   O978    1.383   .     S
C934   C936    1.397   .     A
C934   C943    1.414   .     A
C935   H971    1.084   .     S
C936   H970    1.084   .     S
C937   C939    1.409   .     A
C937   H969    1.076   .     S
C938   H968    1.076   .     S
C938   C941    1.409   .     A
C939   C944    1.431   .     A
C939   C942    1.422   .     A
C940   C953    1.426   .     S
C940   O979    1.293   .     A
C940   O981    1.287   .     A
C941   C945    1.431   .     A
C941   C943    1.422   .     A
C942   C428    1.394   1_556 S
C944   C949    1.414   .     A
C944   C423    1.427   1_556 S
C945   C948    1.414   .     A
C946   H962    1.109   .     S
C946   H961    1.113   .     S
C946   H963    1.111   .     S
C946   O1044   1.407   .     S
C947   H966    1.111   .     S
C947   H965    1.113   .     S
C947   H964    1.109   .     S
C948   C950    1.385   .     A
C948   H972    1.075   .     S
C949   H973    1.075   .     S
C949   C951    1.385   .     A
C950   H957    1.084   .     S
C951   H967    1.084   .     S
C951   C421    1.394   1_556 S
C952   C605    1.328   1_565 S
C952   H626    1.088   1_565 S
C954   O982    1.301   .     A
C954   O984    1.295   .     A
Cu955  N976    2.024   .     S
Cu955  O981    1.948   .     S
Cu955  O982    1.937   .     S
Cu955  O985    1.918   .     S
Cu955  O977    1.952   .     S
Cu955  Cu956   2.693   .     S
Cu956  N975    2.024   .     S
Cu956  O984    1.918   .     S
Cu956  O983    1.937   .     S
Cu956  O979    1.952   .     S
Cu956  O980    1.948   .     S
H958   C605    1.088   1_565 S
H960   N1034   1.029   .     S
N975   H1017   1.029   .     S
N975   N1034   1.287   .     S
O978   C1005   1.407   .     S
C987   O1035   1.293   .     A
C987   O1038   1.287   .     A
C987   C1010   1.426   .     S
C988   C990    1.461   .     S
C988   O1041   1.301   .     A
C988   O1043   1.295   .     A
C989   C995    1.395   .     A
C989   C993    1.395   .     A
C989   C1012   1.461   .     S
C990   C994    1.395   .     A
C990   C996    1.395   .     A
C991   C1000   1.414   .     A
C991   O1044   1.383   .     S
C991   C993    1.397   .     A
C992   O1036   1.383   .     S
C992   C994    1.397   .     A
C992   C1001   1.414   .     A
C993   H1029   1.084   .     S
C994   H1028   1.084   .     S
C995   C997    1.409   .     A
C995   H1027   1.076   .     S
C996   H1026   1.076   .     S
C996   C999    1.409   .     A
C997   C1002   1.431   .     A
C997   C1000   1.422   .     A
C998   C1011   1.426   .     S
C998   O1037   1.293   .     A
C998   O1039   1.287   .     A
C999   C1003   1.431   .     A
C999   C1001   1.422   .     A
C1000  C486    1.394   1_556 S
C1002  C1007   1.414   .     A
C1002  C481    1.427   1_556 S
C1003  C1006   1.414   .     A
C1004  H1020   1.109   .     S
C1004  H1019   1.113   .     S
C1004  H1021   1.111   .     S
C1004  O928    1.407   1_655 S
C1005  H1024   1.111   .     S
C1005  H1023   1.113   .     S
C1005  H1022   1.109   .     S
C1006  C1008   1.385   .     A
C1006  H1030   1.075   .     S
C1007  H1031   1.075   .     S
C1007  C1009   1.385   .     A
C1008  H1015   1.084   .     S
C1009  H1025   1.084   .     S
C1009  C479    1.394   1_556 S
C1010  C663    1.328   1_565 S
C1010  H684    1.088   1_565 S
C1012  O1040   1.301   .     A
C1012  O1042   1.295   .     A
Cu1013 N1034   2.024   .     S
Cu1013 O1039   1.948   .     S
Cu1013 O1040   1.937   .     S
Cu1013 O1043   1.918   .     S
Cu1013 O1035   1.952   .     S
Cu1013 Cu1014  2.693   .     S
Cu1014 N1033   2.024   .     S
Cu1014 O1042   1.918   .     S
Cu1014 O1041   1.937   .     S
Cu1014 O1037   1.952   .     S
Cu1014 O1038   1.948   .     S
H1016  C663    1.088   1_565 S
H1018  N918    1.029   1_655 S
N1033  H901    1.029   1_655 S
N1033  N918    1.287   1_655 S
O1036  C889    1.407   1_655 S
