data_str_m1_o1_o17_pcu_sym.146
_audit_creation_date              2020-01-03
_audit_creation_method            'Materials Studio'
_symmetry_space_group_name_H-M    'P1'
_symmetry_Int_Tables_number       1
_symmetry_cell_setting            triclinic
loop_
_symmetry_equiv_pos_as_xyz
  x,y,z
_cell_length_a                    36.5397
_cell_length_b                    36.5753
_cell_length_c                    34.4478
_cell_angle_alpha                 89.9630
_cell_angle_beta                  90.0606
_cell_angle_gamma                 90.0264
loop_
_atom_site_label
_atom_site_type_symbol
_atom_site_fract_x
_atom_site_fract_y
_atom_site_fract_z
_atom_site_U_iso_or_equiv
_atom_site_adp_type
_atom_site_occupancy
C1     C     0.03329   0.24923   0.41885   0.00000  Uiso   1.00
C2     C     0.46669   0.25050   0.58114   0.00000  Uiso   1.00
C3     C     0.24925   0.46674   0.41883   0.00000  Uiso   1.00
C4     C     0.25107   0.03325   0.58115   0.00000  Uiso   1.00
C5     C     0.46673   0.25070   0.41877   0.00000  Uiso   1.00
C6     C     0.03325   0.24931   0.58122   0.00000  Uiso   1.00
C7     C     0.25120   0.03322   0.41878   0.00000  Uiso   1.00
C8     C     0.24950   0.46676   0.58121   0.00000  Uiso   1.00
C9     C     0.28331   0.49982   0.91886   0.00000  Uiso   1.00
C10    C     0.21670   0.00008   0.08115   0.00000  Uiso   1.00
C11    C     0.49921   0.21673   0.91883   0.00000  Uiso   1.00
C12    C     0.00076   0.28324   0.08116   0.00000  Uiso   1.00
C13    C     0.21674   0.00036   0.91878   0.00000  Uiso   1.00
C14    C     0.28327   0.00001   0.08123   0.00000  Uiso   1.00
C15    C     0.00075   0.28321   0.91879   0.00000  Uiso   1.00
C16    C     0.49938   0.21675   0.08121   0.00000  Uiso   1.00
C17    C     0.00002   0.24998   0.39848   0.00000  Uiso   1.00
C18    C     0.49997   0.24993   0.60151   0.00000  Uiso   1.00
C19    C     0.25015   0.49998   0.39847   0.00000  Uiso   1.00
C20    C     0.25020   0.00001   0.60152   0.00000  Uiso   1.00
C21    C     0.25003   0.00006   0.89849   0.00000  Uiso   1.00
C22    C     0.24998   0.00002   0.10152   0.00000  Uiso   1.00
C23    C     0.49998   0.24997   0.89848   0.00000  Uiso   1.00
C24    C     0.00005   0.25000   0.10152   0.00000  Uiso   1.00
C25    C     0.43333   0.25130   0.47966   0.00000  Uiso   1.00
C26    C     0.06664   0.24858   0.52033   0.00000  Uiso   1.00
C27    C     0.25218   0.06658   0.47969   0.00000  Uiso   1.00
C28    C     0.24864   0.43340   0.52029   0.00000  Uiso   1.00
C29    C     0.06665   0.24854   0.47984   0.00000  Uiso   1.00
C30    C     0.43332   0.25122   0.52015   0.00000  Uiso   1.00
C31    C     0.24854   0.43340   0.47980   0.00000  Uiso   1.00
C32    C     0.25212   0.06658   0.52018   0.00000  Uiso   1.00
C33    C     0.18333   0.00047   0.97967   0.00000  Uiso   1.00
C34    C     0.31668   0.49983   0.02034   0.00000  Uiso   1.00
C35    C     0.00152   0.31657   0.97970   0.00000  Uiso   1.00
C36    C     0.49859   0.18338   0.02030   0.00000  Uiso   1.00
C37    C     0.31669   0.49975   0.97985   0.00000  Uiso   1.00
C38    C     0.18332   0.00035   0.02016   0.00000  Uiso   1.00
C39    C     0.49853   0.18338   0.97981   0.00000  Uiso   1.00
C40    C     0.00151   0.31658   0.02019   0.00000  Uiso   1.00
C41    C     0.25003   0.49999   0.35601   0.00000  Uiso   1.00
C42    C     0.25005   0.00001   0.64399   0.00000  Uiso   1.00
C43    C     0.00001   0.25000   0.35602   0.00000  Uiso   1.00
C44    C     0.49998   0.24998   0.64398   0.00000  Uiso   1.00
C45    C     0.49999   0.24999   0.85601   0.00000  Uiso   1.00
C46    C     0.00002   0.25000   0.14399   0.00000  Uiso   1.00
C47    C     0.25001   0.00002   0.85602   0.00000  Uiso   1.00
C48    C     0.24999  -0.00000   0.14398   0.00000  Uiso   1.00
C49    C     0.18000   0.06993   0.25002   0.00000  Uiso   1.00
C50    C     0.31988   0.43000   0.75010   0.00000  Uiso   1.00
C51    C     0.43010   0.17990   0.25000   0.00000  Uiso   1.00
C52    C     0.07016   0.31974   0.75027   0.00000  Uiso   1.00
C53    C     0.32025   0.43036   0.25039   0.00000  Uiso   1.00
C54    C     0.17970   0.06967   0.74930   0.00000  Uiso   1.00
C55    C     0.06996   0.31998   0.25003   0.00000  Uiso   1.00
C56    C     0.42999   0.18008   0.75004   0.00000  Uiso   1.00
C57    C     0.18006   0.43003   0.75006   0.00000  Uiso   1.00
C58    C     0.31992   0.06994   0.24995   0.00000  Uiso   1.00
C59    C     0.43000   0.31998   0.74997   0.00000  Uiso   1.00
C60    C     0.06998   0.18005   0.25001   0.00000  Uiso   1.00
C61    C     0.31997   0.06996   0.75001   0.00000  Uiso   1.00
C62    C     0.18000   0.43008   0.25002   0.00000  Uiso   1.00
C63    C     0.07001   0.18008   0.75018   0.00000  Uiso   1.00
C64    C     0.42983   0.31980   0.24975   0.00000  Uiso   1.00
C65    C     0.15091   0.37646   0.21917   0.00000  Uiso   1.00
C66    C     0.37539   0.09730   0.72094   0.00000  Uiso   1.00
C67    C     0.09679   0.12414   0.27858   0.00000  Uiso   1.00
C68    C     0.40066   0.37365   0.71910   0.00000  Uiso   1.00
C69    C     0.35271   0.11965   0.21635   0.00000  Uiso   1.00
C70    C     0.12018   0.40687   0.72739   0.00000  Uiso   1.00
C71    C     0.37674   0.35002   0.21816   0.00000  Uiso   1.00
C72    C     0.12170   0.14858   0.78259   0.00000  Uiso   1.00
C73    C     0.14827   0.12054   0.78279   0.00000  Uiso   1.00
C74    C     0.35002   0.37808   0.21798   0.00000  Uiso   1.00
C75    C     0.09358   0.37888   0.72637   0.00000  Uiso   1.00
C76    C     0.38090   0.14605   0.21580   0.00000  Uiso   1.00
C77    C     0.37315   0.40078   0.71897   0.00000  Uiso   1.00
C78    C     0.12418   0.09687   0.27867   0.00000  Uiso   1.00
C79    C     0.40269   0.12466   0.72094   0.00000  Uiso   1.00
C80    C     0.12376   0.34897   0.21933   0.00000  Uiso   1.00
C81    C     0.37443   0.15284   0.77899   0.00000  Uiso   1.00
C82    C     0.09868   0.37400   0.28060   0.00000  Uiso   1.00
C83    C     0.34897   0.37640   0.78097   0.00000  Uiso   1.00
C84    C     0.15310   0.12576   0.22132   0.00000  Uiso   1.00
C85    C     0.12953   0.34330   0.77409   0.00000  Uiso   1.00
C86    C     0.39808   0.12904   0.28314   0.00000  Uiso   1.00
C87    C     0.13054   0.10403   0.71557   0.00000  Uiso   1.00
C88    C     0.37298   0.40003   0.28163   0.00000  Uiso   1.00
C89    C     0.40034   0.37276   0.28127   0.00000  Uiso   1.00
C90    C     0.10062   0.12833   0.71773   0.00000  Uiso   1.00
C91    C     0.37086   0.10159   0.28304   0.00000  Uiso   1.00
C92    C     0.15704   0.37048   0.77368   0.00000  Uiso   1.00
C93    C     0.12586   0.15318   0.22142   0.00000  Uiso   1.00
C94    C     0.37616   0.34894   0.78080   0.00000  Uiso   1.00
C95    C     0.12606   0.40129   0.28063   0.00000  Uiso   1.00
C96    C     0.34716   0.12544   0.77906   0.00000  Uiso   1.00
C97    C     0.46649   0.25065   0.45924   0.00000  Uiso   1.00
C98    C     0.03348   0.24926   0.54074   0.00000  Uiso   1.00
C99    C     0.25125   0.03346   0.45926   0.00000  Uiso   1.00
C100   C     0.24951   0.46652   0.54073   0.00000  Uiso   1.00
C101   C     0.03351   0.24922   0.45933   0.00000  Uiso   1.00
C102   C     0.46646   0.25053   0.54066   0.00000  Uiso   1.00
C103   C     0.24938   0.46651   0.45931   0.00000  Uiso   1.00
C104   C     0.25120   0.03347   0.54068   0.00000  Uiso   1.00
C105   C     0.21650   0.00032   0.95925   0.00000  Uiso   1.00
C106   C     0.28351   0.49998   0.04076   0.00000  Uiso   1.00
C107   C     0.00077   0.28345   0.95927   0.00000  Uiso   1.00
C108   C     0.49934   0.21651   0.04074   0.00000  Uiso   1.00
C109   C     0.28353   0.49989   0.95934   0.00000  Uiso   1.00
C110   C     0.21648   0.00017   0.04067   0.00000  Uiso   1.00
C111   C     0.49925   0.21650   0.95931   0.00000  Uiso   1.00
C112   C     0.00078   0.28346   0.04068   0.00000  Uiso   1.00
C113   C     0.09804   0.34814   0.25003   0.00000  Uiso   1.00
C114   C     0.40184   0.15199   0.75000   0.00000  Uiso   1.00
C115   C     0.15188   0.09804   0.24999   0.00000  Uiso   1.00
C116   C     0.34792   0.40191   0.75007   0.00000  Uiso   1.00
C117   C     0.40225   0.15139   0.24978   0.00000  Uiso   1.00
C118   C     0.09833   0.34779   0.75020   0.00000  Uiso   1.00
C119   C     0.34821   0.40216   0.25008   0.00000  Uiso   1.00
C120   C     0.15224   0.09846   0.74928   0.00000  Uiso   1.00
C121   C     0.09785   0.15168   0.75030   0.00000  Uiso   1.00
C122   C     0.40170   0.34797   0.24971   0.00000  Uiso   1.00
C123   C     0.15196   0.40190   0.75028   0.00000  Uiso   1.00
C124   C     0.34815   0.09781   0.24994   0.00000  Uiso   1.00
C125   C     0.40176   0.34805   0.74996   0.00000  Uiso   1.00
C126   C     0.09810   0.15195   0.25003   0.00000  Uiso   1.00
C127   C     0.34806   0.09808   0.75003   0.00000  Uiso   1.00
C128   C     0.15182   0.40206   0.24997   0.00000  Uiso   1.00
C129   C     0.49999   0.24992   0.47963   0.00000  Uiso   1.00
C130   C     0.49998   0.24990   0.52036   0.00000  Uiso   1.00
C131   C     0.25034   0.49999   0.47963   0.00000  Uiso   1.00
C132   C     0.25036   0.49999   0.52036   0.00000  Uiso   1.00
C133   C     0.25001   0.00010   0.97964   0.00000  Uiso   1.00
C134   C     0.25000   0.00009   0.02037   0.00000  Uiso   1.00
C135   C     0.00002   0.24997   0.97963   0.00000  Uiso   1.00
C136   C     0.00005   0.24998   0.02036   0.00000  Uiso   1.00
H137   H     0.40743   0.25185   0.46431   0.00000  Uiso   1.00
H138   H     0.09254   0.24807   0.53567   0.00000  Uiso   1.00
H139   H     0.25289   0.09245   0.46437   0.00000  Uiso   1.00
H140   H     0.24798   0.40753   0.53562   0.00000  Uiso   1.00
H141   H     0.09256   0.24800   0.46457   0.00000  Uiso   1.00
H142   H     0.40741   0.25171   0.53542   0.00000  Uiso   1.00
H143   H     0.24781   0.40752   0.46451   0.00000  Uiso   1.00
H144   H     0.25279   0.09246   0.53547   0.00000  Uiso   1.00
H145   H     0.15743   0.00063   0.96433   0.00000  Uiso   1.00
H146   H     0.34258   0.49975   0.03568   0.00000  Uiso   1.00
H147   H     0.00210   0.34245   0.96437   0.00000  Uiso   1.00
H148   H     0.49803   0.15751   0.03563   0.00000  Uiso   1.00
H149   H     0.34260   0.49960   0.96458   0.00000  Uiso   1.00
H150   H     0.15741   0.00043   0.03543   0.00000  Uiso   1.00
H151   H     0.49793   0.15750   0.96452   0.00000  Uiso   1.00
H152   H     0.00209   0.34246   0.03547   0.00000  Uiso   1.00
H153   H     0.05904   0.24864   0.40326   0.00000  Uiso   1.00
H154   H     0.44093   0.25096   0.59674   0.00000  Uiso   1.00
H155   H     0.24842   0.44102   0.40322   0.00000  Uiso   1.00
H156   H     0.25166   0.05898   0.59676   0.00000  Uiso   1.00
H157   H     0.44098   0.25132   0.40311   0.00000  Uiso   1.00
H158   H     0.05900   0.24884   0.59687   0.00000  Uiso   1.00
H159   H     0.25197   0.05895   0.40314   0.00000  Uiso   1.00
H160   H     0.24887   0.44103   0.59685   0.00000  Uiso   1.00
H161   H     0.30907   0.49958   0.90326   0.00000  Uiso   1.00
H162   H     0.19094   0.00008   0.09674   0.00000  Uiso   1.00
H163   H     0.49857   0.19100   0.90322   0.00000  Uiso   1.00
H164   H     0.00131   0.30897   0.09676   0.00000  Uiso   1.00
H165   H     0.19098   0.00060   0.90312   0.00000  Uiso   1.00
H166   H     0.30903   0.49999   0.09689   0.00000  Uiso   1.00
H167   H     0.00137   0.30894   0.90315   0.00000  Uiso   1.00
H168   H     0.49884   0.19102   0.09686   0.00000  Uiso   1.00
O169   O     0.25000  -0.00000   0.25000   0.00000  Uiso   1.00
O170   O     0.25000   0.00000   0.75000   0.00000  Uiso   1.00
O171   O     0.00000   0.25000   0.25000   0.00000  Uiso   1.00
O172   O     0.00000   0.25000   0.75000   0.00000  Uiso   1.00
O173   O     0.25000   0.46963   0.33755   0.00000  Uiso   1.00
O174   O     0.25000   0.03037   0.66245   0.00000  Uiso   1.00
O175   O     0.03037   0.25000   0.33755   0.00000  Uiso   1.00
O176   O     0.46964   0.25000   0.66245   0.00000  Uiso   1.00
O177   O     0.25000   0.03037   0.33755   0.00000  Uiso   1.00
O178   O     0.25000   0.46963   0.66245   0.00000  Uiso   1.00
O179   O     0.46964   0.25000   0.33755   0.00000  Uiso   1.00
O180   O     0.03037   0.25000   0.66245   0.00000  Uiso   1.00
O181   O     0.00000   0.21963   0.83755   0.00000  Uiso   1.00
O182   O     0.00000   0.28037   0.16245   0.00000  Uiso   1.00
O183   O     0.28037   0.00000   0.83755   0.00000  Uiso   1.00
O184   O     0.21964  -0.00000   0.16245   0.00000  Uiso   1.00
O185   O     0.00000   0.28037   0.83755   0.00000  Uiso   1.00
O186   O     0.00000   0.21963   0.16245   0.00000  Uiso   1.00
O187   O     0.21964   0.00000   0.83755   0.00000  Uiso   1.00
O188   O     0.28037  -0.00000   0.16245   0.00000  Uiso   1.00
O189   O     0.20725   0.07308   0.27302   0.00000  Uiso   1.00
O190   O     0.29276   0.42693   0.72698   0.00000  Uiso   1.00
O191   O     0.42693   0.20725   0.27302   0.00000  Uiso   1.00
O192   O     0.07308   0.29275   0.72698   0.00000  Uiso   1.00
O193   O     0.29276   0.42693   0.27302   0.00000  Uiso   1.00
O194   O     0.20725   0.07308   0.72698   0.00000  Uiso   1.00
O195   O     0.07308   0.29275   0.27302   0.00000  Uiso   1.00
O196   O     0.42693   0.20725   0.72698   0.00000  Uiso   1.00
O197   O     0.20725   0.42692   0.72698   0.00000  Uiso   1.00
O198   O     0.29276   0.07308   0.27302   0.00000  Uiso   1.00
O199   O     0.42693   0.29276   0.72698   0.00000  Uiso   1.00
O200   O     0.07308   0.20724   0.27302   0.00000  Uiso   1.00
O201   O     0.29276   0.07308   0.72698   0.00000  Uiso   1.00
O202   O     0.20725   0.42692   0.27302   0.00000  Uiso   1.00
O203   O     0.07308   0.20724   0.72698   0.00000  Uiso   1.00
O204   O     0.42693   0.29276   0.27302   0.00000  Uiso   1.00
O205   O     0.45725   0.32308   0.77302   0.00000  Uiso   1.00
O206   O     0.04276   0.17692   0.22698   0.00000  Uiso   1.00
O207   O     0.17693   0.45724   0.77302   0.00000  Uiso   1.00
O208   O     0.32308   0.04276   0.22698   0.00000  Uiso   1.00
O209   O     0.04276   0.17692   0.77302   0.00000  Uiso   1.00
O210   O     0.45725   0.32308   0.22698   0.00000  Uiso   1.00
O211   O     0.32308   0.04276   0.77302   0.00000  Uiso   1.00
O212   O     0.17693   0.45724   0.22698   0.00000  Uiso   1.00
O213   O     0.45725   0.17693   0.22698   0.00000  Uiso   1.00
O214   O     0.04276   0.32307   0.77302   0.00000  Uiso   1.00
O215   O     0.17693   0.04276   0.22698   0.00000  Uiso   1.00
O216   O     0.32308   0.45725   0.77302   0.00000  Uiso   1.00
O217   O     0.04276   0.32307   0.22698   0.00000  Uiso   1.00
O218   O     0.45725   0.17693   0.77302   0.00000  Uiso   1.00
O219   O     0.32308   0.45725   0.22698   0.00000  Uiso   1.00
O220   O     0.17693   0.04276   0.77302   0.00000  Uiso   1.00
Zn221  Zn    0.20660   0.00000   0.21735   0.00000  Uiso   1.00
Zn222  Zn    0.29341  -0.00000   0.78265   0.00000  Uiso   1.00
Zn223  Zn    0.00000   0.20660   0.21735   0.00000  Uiso   1.00
Zn224  Zn    0.00000   0.29340   0.78265   0.00000  Uiso   1.00
Zn225  Zn    0.29341   0.00000   0.21735   0.00000  Uiso   1.00
Zn226  Zn    0.20660  -0.00000   0.78265   0.00000  Uiso   1.00
Zn227  Zn    0.00000   0.29341   0.21735   0.00000  Uiso   1.00
Zn228  Zn    0.00000   0.20659   0.78265   0.00000  Uiso   1.00
Zn229  Zn    0.45660   0.25000   0.71735   0.00000  Uiso   1.00
Zn230  Zn    0.04341   0.25000   0.28265   0.00000  Uiso   1.00
Zn231  Zn    0.25000   0.45659   0.71735   0.00000  Uiso   1.00
Zn232  Zn    0.25000   0.04341   0.28265   0.00000  Uiso   1.00
Zn233  Zn    0.04341   0.25000   0.71735   0.00000  Uiso   1.00
Zn234  Zn    0.45660   0.25000   0.28265   0.00000  Uiso   1.00
Zn235  Zn    0.25000   0.04341   0.71735   0.00000  Uiso   1.00
Zn236  Zn    0.25000   0.45659   0.28265   0.00000  Uiso   1.00
C237   C     0.17939   0.37840   0.18673   0.00000  Uiso   1.00
C238   C     0.16544   0.40059   0.15213   0.00000  Uiso   1.00
H239   H     0.16014   0.42932   0.16074   0.00000  Uiso   1.00
H240   H     0.18640   0.40060   0.12881   0.00000  Uiso   1.00
H241   H     0.13974   0.38885   0.14035   0.00000  Uiso   1.00
H242   H     0.20525   0.39088   0.19702   0.00000  Uiso   1.00
H243   H     0.18792   0.35081   0.17706   0.00000  Uiso   1.00
C244   C     0.37570   0.06649   0.69094   0.00000  Uiso   1.00
C245   C     0.39639   0.03313   0.70612   0.00000  Uiso   1.00
H246   H     0.38214   0.02121   0.73159   0.00000  Uiso   1.00
H247   H     0.39787   0.01206   0.68300   0.00000  Uiso   1.00
H248   H     0.42469   0.04069   0.71472   0.00000  Uiso   1.00
H249   H     0.34752   0.05817   0.68280   0.00000  Uiso   1.00
H250   H     0.38785   0.07520   0.66302   0.00000  Uiso   1.00
C251   C     0.06575   0.12362   0.30833   0.00000  Uiso   1.00
C252   C     0.07607   0.14457   0.34513   0.00000  Uiso   1.00
H253   H     0.10118   0.13313   0.35855   0.00000  Uiso   1.00
H254   H     0.08090   0.17385   0.33850   0.00000  Uiso   1.00
H255   H     0.05336   0.14268   0.36643   0.00000  Uiso   1.00
H256   H     0.04037   0.13568   0.29619   0.00000  Uiso   1.00
H257   H     0.05753   0.09535   0.31593   0.00000  Uiso   1.00
C258   C     0.43023   0.37311   0.68777   0.00000  Uiso   1.00
C259   C     0.46292   0.39644   0.69988   0.00000  Uiso   1.00
H260   H     0.45446   0.42507   0.70560   0.00000  Uiso   1.00
H261   H     0.47559   0.38516   0.72662   0.00000  Uiso   1.00
H262   H     0.48350   0.39653   0.67621   0.00000  Uiso   1.00
H263   H     0.43984   0.34498   0.68158   0.00000  Uiso   1.00
H264   H     0.41987   0.38270   0.65935   0.00000  Uiso   1.00
C265   C     0.32587   0.11623   0.18234   0.00000  Uiso   1.00
C266   C     0.33981   0.09028   0.15073   0.00000  Uiso   1.00
H267   H     0.33952   0.06156   0.16090   0.00000  Uiso   1.00
H268   H     0.32173   0.09222   0.12489   0.00000  Uiso   1.00
H269   H     0.36817   0.09699   0.14182   0.00000  Uiso   1.00
H270   H     0.29860   0.10657   0.19213   0.00000  Uiso   1.00
H271   H     0.31988   0.14347   0.16965   0.00000  Uiso   1.00
C272   C     0.11377   0.44282   0.70587   0.00000  Uiso   1.00
C273   C     0.08973   0.46829   0.73012   0.00000  Uiso   1.00
H274   H     0.06562   0.45366   0.74208   0.00000  Uiso   1.00
H275   H     0.10577   0.47976   0.75465   0.00000  Uiso   1.00
H276   H     0.07956   0.49107   0.71184   0.00000  Uiso   1.00
H277   H     0.13969   0.45719   0.69893   0.00000  Uiso   1.00
H278   H     0.10113   0.43813   0.67705   0.00000  Uiso   1.00
C279   C     0.37842   0.32193   0.18523   0.00000  Uiso   1.00
C280   C     0.34628   0.29524   0.18693   0.00000  Uiso   1.00
H281   H     0.34707   0.27714   0.16116   0.00000  Uiso   1.00
H282   H     0.34802   0.27848   0.21376   0.00000  Uiso   1.00
H283   H     0.31957   0.30930   0.18658   0.00000  Uiso   1.00
H284   H     0.37988   0.33572   0.15661   0.00000  Uiso   1.00
H285   H     0.40355   0.30508   0.18576   0.00000  Uiso   1.00
C286   C     0.12005   0.17671   0.81537   0.00000  Uiso   1.00
C287   C     0.14420   0.20958   0.80597   0.00000  Uiso   1.00
H288   H     0.13504   0.22262   0.77853   0.00000  Uiso   1.00
H289   H     0.14240   0.22988   0.82983   0.00000  Uiso   1.00
H290   H     0.17320   0.20112   0.80272   0.00000  Uiso   1.00
H291   H     0.09179   0.18636   0.82070   0.00000  Uiso   1.00
H292   H     0.12831   0.16515   0.84372   0.00000  Uiso   1.00
C293   C     0.17383   0.11532   0.81762   0.00000  Uiso   1.00
C294   C     0.15600   0.09182   0.84910   0.00000  Uiso   1.00
H295   H     0.13013   0.10428   0.85947   0.00000  Uiso   1.00
H296   H     0.14981   0.06409   0.83784   0.00000  Uiso   1.00
H297   H     0.17500   0.08908   0.87411   0.00000  Uiso   1.00
H298   H     0.20012   0.10245   0.80919   0.00000  Uiso   1.00
H299   H     0.18254   0.14188   0.83001   0.00000  Uiso   1.00
C300   C     0.32385   0.38358   0.18346   0.00000  Uiso   1.00
C301   C     0.28381   0.37547   0.19368   0.00000  Uiso   1.00
H302   H     0.28163   0.35312   0.21538   0.00000  Uiso   1.00
H303   H     0.27018   0.40020   0.20530   0.00000  Uiso   1.00
H304   H     0.26866   0.36723   0.16711   0.00000  Uiso   1.00
H305   H     0.32619   0.41201   0.17244   0.00000  Uiso   1.00
H306   H     0.33083   0.36674   0.15799   0.00000  Uiso   1.00
C307   C     0.06067   0.38123   0.69904   0.00000  Uiso   1.00
C308   C     0.06987   0.36538   0.65923   0.00000  Uiso   1.00
H309   H     0.09315   0.38030   0.64591   0.00000  Uiso   1.00
H310   H     0.07718   0.33602   0.66185   0.00000  Uiso   1.00
H311   H     0.04572   0.36781   0.63981   0.00000  Uiso   1.00
H312   H     0.03679   0.36624   0.71078   0.00000  Uiso   1.00
H313   H     0.05052   0.40956   0.69569   0.00000  Uiso   1.00
C314   C     0.38850   0.16856   0.17917   0.00000  Uiso   1.00
C315   C     0.37371   0.20732   0.18244   0.00000  Uiso   1.00
H316   H     0.34377   0.20680   0.18791   0.00000  Uiso   1.00
H317   H     0.38747   0.22260   0.20608   0.00000  Uiso   1.00
H318   H     0.37894   0.22188   0.15471   0.00000  Uiso   1.00
H319   H     0.41812   0.16927   0.17254   0.00000  Uiso   1.00
H320   H     0.37668   0.15638   0.15268   0.00000  Uiso   1.00
C321   C     0.37072   0.42894   0.68616   0.00000  Uiso   1.00
C322   C     0.34812   0.41454   0.65205   0.00000  Uiso   1.00
H323   H     0.35993   0.38888   0.64037   0.00000  Uiso   1.00
H324   H     0.31954   0.40905   0.66113   0.00000  Uiso   1.00
H325   H     0.34764   0.43530   0.62851   0.00000  Uiso   1.00
H326   H     0.35841   0.45498   0.69623   0.00000  Uiso   1.00
H327   H     0.39817   0.43733   0.67586   0.00000  Uiso   1.00
C328   C     0.12361   0.06582   0.30841   0.00000  Uiso   1.00
C329   C     0.10291   0.03264   0.29281   0.00000  Uiso   1.00
H330   H     0.07488   0.04039   0.28347   0.00000  Uiso   1.00
H331   H     0.11762   0.02056   0.26773   0.00000  Uiso   1.00
H332   H     0.10070   0.01165   0.31596   0.00000  Uiso   1.00
H333   H     0.15171   0.05737   0.31668   0.00000  Uiso   1.00
H334   H     0.11130   0.07439   0.33628   0.00000  Uiso   1.00
C335   C     0.43311   0.12478   0.69050   0.00000  Uiso   1.00
C336   C     0.42174   0.14581   0.65408   0.00000  Uiso   1.00
H337   H     0.39648   0.13414   0.64119   0.00000  Uiso   1.00
H338   H     0.41668   0.17498   0.66102   0.00000  Uiso   1.00
H339   H     0.44400   0.14437   0.63222   0.00000  Uiso   1.00
H340   H     0.45856   0.13720   0.70206   0.00000  Uiso   1.00
H341   H     0.44155   0.09666   0.68262   0.00000  Uiso   1.00
C342   C     0.12301   0.31932   0.18803   0.00000  Uiso   1.00
C343   C     0.14499   0.28589   0.20071   0.00000  Uiso   1.00
H344   H     0.17363   0.29361   0.20768   0.00000  Uiso   1.00
H345   H     0.13240   0.27312   0.22671   0.00000  Uiso   1.00
H346   H     0.14539   0.26554   0.17682   0.00000  Uiso   1.00
H347   H     0.09467   0.31073   0.18106   0.00000  Uiso   1.00
H348   H     0.13361   0.32921   0.15986   0.00000  Uiso   1.00
C349   C     0.37425   0.18347   0.80917   0.00000  Uiso   1.00
C350   C     0.39534   0.17260   0.84573   0.00000  Uiso   1.00
H351   H     0.38390   0.14734   0.85878   0.00000  Uiso   1.00
H352   H     0.42461   0.16781   0.83892   0.00000  Uiso   1.00
H353   H     0.39362   0.19498   0.86742   0.00000  Uiso   1.00
H354   H     0.38647   0.20891   0.79739   0.00000  Uiso   1.00
H355   H     0.34601   0.19172   0.81690   0.00000  Uiso   1.00
C356   C     0.06912   0.37297   0.31201   0.00000  Uiso   1.00
C357   C     0.03487   0.39358   0.29908   0.00000  Uiso   1.00
H358   H     0.04166   0.42234   0.29167   0.00000  Uiso   1.00
H359   H     0.02237   0.38024   0.27335   0.00000  Uiso   1.00
H360   H     0.01451   0.39362   0.32298   0.00000  Uiso   1.00
H361   H     0.06155   0.34449   0.31960   0.00000  Uiso   1.00
H362   H     0.07872   0.38444   0.33992   0.00000  Uiso   1.00
C363   C     0.32044   0.37829   0.81341   0.00000  Uiso   1.00
C364   C     0.33431   0.40066   0.84790   0.00000  Uiso   1.00
H365   H     0.36010   0.38912   0.85967   0.00000  Uiso   1.00
H366   H     0.33942   0.42940   0.83920   0.00000  Uiso   1.00
H367   H     0.31339   0.40056   0.87126   0.00000  Uiso   1.00
H368   H     0.29439   0.39050   0.80309   0.00000  Uiso   1.00
H369   H     0.31218   0.35066   0.82326   0.00000  Uiso   1.00
C370   C     0.18412   0.12619   0.19153   0.00000  Uiso   1.00
C371   C     0.21773   0.14619   0.20723   0.00000  Uiso   1.00
H372   H     0.22908   0.13170   0.23285   0.00000  Uiso   1.00
H373   H     0.23917   0.14729   0.18445   0.00000  Uiso   1.00
H374   H     0.21061   0.17457   0.21574   0.00000  Uiso   1.00
H375   H     0.19208   0.09805   0.18301   0.00000  Uiso   1.00
H376   H     0.17572   0.13888   0.16376   0.00000  Uiso   1.00
C377   C     0.13269   0.30971   0.80026   0.00000  Uiso   1.00
C378   C     0.11512   0.31662   0.83979   0.00000  Uiso   1.00
H379   H     0.08542   0.32217   0.83647   0.00000  Uiso   1.00
H380   H     0.11850   0.29209   0.85846   0.00000  Uiso   1.00
H381   H     0.12815   0.34031   0.85444   0.00000  Uiso   1.00
H382   H     0.11939   0.28562   0.78682   0.00000  Uiso   1.00
H383   H     0.16144   0.30093   0.80427   0.00000  Uiso   1.00
C384   C     0.42475   0.13286   0.31723   0.00000  Uiso   1.00
C385   C     0.46058   0.11284   0.30903   0.00000  Uiso   1.00
H386   H     0.45540   0.08326   0.30430   0.00000  Uiso   1.00
H387   H     0.47415   0.12427   0.28290   0.00000  Uiso   1.00
H388   H     0.47936   0.11596   0.33418   0.00000  Uiso   1.00
H389   H     0.43061   0.16190   0.32381   0.00000  Uiso   1.00
H390   H     0.41340   0.12248   0.34483   0.00000  Uiso   1.00
C391   C     0.13988   0.08468   0.67749   0.00000  Uiso   1.00
C392   C     0.12260   0.04686   0.67508   0.00000  Uiso   1.00
H393   H     0.12984   0.03392   0.64697   0.00000  Uiso   1.00
H394   H     0.13310   0.02933   0.69890   0.00000  Uiso   1.00
H395   H     0.09238   0.04881   0.67705   0.00000  Uiso   1.00
H396   H     0.13228   0.10128   0.65184   0.00000  Uiso   1.00
H397   H     0.16974   0.08210   0.67337   0.00000  Uiso   1.00
C398   C     0.37108   0.42836   0.31429   0.00000  Uiso   1.00
C399   C     0.39079   0.46365   0.30301   0.00000  Uiso   1.00
H400   H     0.37753   0.47657   0.27747   0.00000  Uiso   1.00
H401   H     0.38975   0.48325   0.32759   0.00000  Uiso   1.00
H402   H     0.41990   0.45800   0.29602   0.00000  Uiso   1.00
H403   H     0.34233   0.43472   0.32200   0.00000  Uiso   1.00
H404   H     0.38276   0.41820   0.34186   0.00000  Uiso   1.00
C405   C     0.42901   0.37068   0.31363   0.00000  Uiso   1.00
C406   C     0.41555   0.34781   0.34797   0.00000  Uiso   1.00
H407   H     0.38952   0.35870   0.35976   0.00000  Uiso   1.00
H408   H     0.41100   0.31903   0.33911   0.00000  Uiso   1.00
H409   H     0.43646   0.34817   0.37137   0.00000  Uiso   1.00
H410   H     0.45511   0.35883   0.30310   0.00000  Uiso   1.00
H411   H     0.43712   0.39832   0.32365   0.00000  Uiso   1.00
C412   C     0.07001   0.12800   0.68724   0.00000  Uiso   1.00
C413   C     0.03597   0.10856   0.70267   0.00000  Uiso   1.00
H414   H     0.04304   0.08062   0.71284   0.00000  Uiso   1.00
H415   H     0.02350   0.12391   0.72700   0.00000  Uiso   1.00
H416   H     0.01540   0.10619   0.67906   0.00000  Uiso   1.00
H417   H     0.06289   0.15621   0.67811   0.00000  Uiso   1.00
H418   H     0.07733   0.11393   0.66006   0.00000  Uiso   1.00
C419   C     0.36686   0.07517   0.31729   0.00000  Uiso   1.00
C420   C     0.34260   0.09106   0.34929   0.00000  Uiso   1.00
H421   H     0.35330   0.11764   0.35981   0.00000  Uiso   1.00
H422   H     0.31432   0.09537   0.33857   0.00000  Uiso   1.00
H423   H     0.34154   0.07171   0.37412   0.00000  Uiso   1.00
H424   H     0.35518   0.04853   0.30811   0.00000  Uiso   1.00
H425   H     0.39393   0.06747   0.32932   0.00000  Uiso   1.00
C426   C     0.19170   0.36641   0.79821   0.00000  Uiso   1.00
C427   C     0.22143   0.34575   0.77609   0.00000  Uiso   1.00
H428   H     0.21114   0.31896   0.76562   0.00000  Uiso   1.00
H429   H     0.23086   0.36197   0.75076   0.00000  Uiso   1.00
H430   H     0.24516   0.34083   0.79552   0.00000  Uiso   1.00
H431   H     0.20276   0.39335   0.80726   0.00000  Uiso   1.00
H432   H     0.18607   0.35244   0.82611   0.00000  Uiso   1.00
C433   C     0.12632   0.18412   0.19158   0.00000  Uiso   1.00
C434   C     0.10544   0.17366   0.15474   0.00000  Uiso   1.00
H435   H     0.11692   0.14852   0.14151   0.00000  Uiso   1.00
H436   H     0.07612   0.16884   0.16129   0.00000  Uiso   1.00
H437   H     0.10736   0.19627   0.13331   0.00000  Uiso   1.00
H438   H     0.11407   0.20943   0.20354   0.00000  Uiso   1.00
H439   H     0.15462   0.19240   0.18412   0.00000  Uiso   1.00
C440   C     0.37714   0.31944   0.81227   0.00000  Uiso   1.00
C441   C     0.35534   0.28580   0.79984   0.00000  Uiso   1.00
H442   H     0.32662   0.29329   0.79294   0.00000  Uiso   1.00
H443   H     0.36792   0.27303   0.77386   0.00000  Uiso   1.00
H444   H     0.35516   0.26551   0.82382   0.00000  Uiso   1.00
H445   H     0.40555   0.31108   0.81922   0.00000  Uiso   1.00
H446   H     0.36654   0.32938   0.84040   0.00000  Uiso   1.00
C447   C     0.12752   0.43029   0.31258   0.00000  Uiso   1.00
C448   C     0.14967   0.41714   0.34759   0.00000  Uiso   1.00
H449   H     0.13826   0.39141   0.35959   0.00000  Uiso   1.00
H450   H     0.17858   0.41224   0.33934   0.00000  Uiso   1.00
H451   H     0.14911   0.43836   0.37062   0.00000  Uiso   1.00
H452   H     0.13976   0.45617   0.30193   0.00000  Uiso   1.00
H453   H     0.09970   0.43855   0.32188   0.00000  Uiso   1.00
C454   C     0.31640   0.12551   0.80917   0.00000  Uiso   1.00
C455   C     0.28255   0.14540   0.79393   0.00000  Uiso   1.00
H456   H     0.28940   0.17397   0.78582   0.00000  Uiso   1.00
H457   H     0.27121   0.13118   0.76814   0.00000  Uiso   1.00
H458   H     0.26118   0.14596   0.81681   0.00000  Uiso   1.00
H459   H     0.30868   0.09728   0.81762   0.00000  Uiso   1.00
H460   H     0.32496   0.13809   0.83693   0.00000  Uiso   1.00
C461   C     0.53329   0.24923   0.41885   0.00000  Uiso   1.00
C462   C     0.96669   0.25050   0.58114   0.00000  Uiso   1.00
C463   C     0.74925   0.46674   0.41883   0.00000  Uiso   1.00
C464   C     0.75107   0.03325   0.58115   0.00000  Uiso   1.00
C465   C     0.96673   0.25070   0.41877   0.00000  Uiso   1.00
C466   C     0.53325   0.24931   0.58122   0.00000  Uiso   1.00
C467   C     0.75120   0.03322   0.41878   0.00000  Uiso   1.00
C468   C     0.74950   0.46676   0.58121   0.00000  Uiso   1.00
C469   C     0.78331   0.49982   0.91886   0.00000  Uiso   1.00
C470   C     0.71670   0.00008   0.08115   0.00000  Uiso   1.00
C471   C     0.99921   0.21673   0.91883   0.00000  Uiso   1.00
C472   C     0.50076   0.28324   0.08116   0.00000  Uiso   1.00
C473   C     0.71674   0.00036   0.91878   0.00000  Uiso   1.00
C474   C     0.78327   0.00001   0.08123   0.00000  Uiso   1.00
C475   C     0.50075   0.28321   0.91879   0.00000  Uiso   1.00
C476   C     0.99938   0.21675   0.08121   0.00000  Uiso   1.00
C477   C     0.50002   0.24998   0.39848   0.00000  Uiso   1.00
C478   C     0.99997   0.24993   0.60151   0.00000  Uiso   1.00
C479   C     0.75015   0.49998   0.39847   0.00000  Uiso   1.00
C480   C     0.75020   0.00001   0.60152   0.00000  Uiso   1.00
C481   C     0.75003   0.00006   0.89849   0.00000  Uiso   1.00
C482   C     0.74998   0.00002   0.10152   0.00000  Uiso   1.00
C483   C     0.99998   0.24997   0.89848   0.00000  Uiso   1.00
C484   C     0.50005   0.25000   0.10152   0.00000  Uiso   1.00
C485   C     0.93333   0.25130   0.47966   0.00000  Uiso   1.00
C486   C     0.56664   0.24858   0.52033   0.00000  Uiso   1.00
C487   C     0.75218   0.06658   0.47969   0.00000  Uiso   1.00
C488   C     0.74864   0.43340   0.52029   0.00000  Uiso   1.00
C489   C     0.56665   0.24854   0.47984   0.00000  Uiso   1.00
C490   C     0.93332   0.25122   0.52015   0.00000  Uiso   1.00
C491   C     0.74854   0.43340   0.47980   0.00000  Uiso   1.00
C492   C     0.75212   0.06658   0.52018   0.00000  Uiso   1.00
C493   C     0.68333   0.00047   0.97967   0.00000  Uiso   1.00
C494   C     0.81668   0.49983   0.02034   0.00000  Uiso   1.00
C495   C     0.50152   0.31657   0.97970   0.00000  Uiso   1.00
C496   C     0.99859   0.18338   0.02030   0.00000  Uiso   1.00
C497   C     0.81669   0.49975   0.97985   0.00000  Uiso   1.00
C498   C     0.68332   0.00035   0.02016   0.00000  Uiso   1.00
C499   C     0.99853   0.18338   0.97981   0.00000  Uiso   1.00
C500   C     0.50151   0.31658   0.02019   0.00000  Uiso   1.00
C501   C     0.75003   0.49999   0.35601   0.00000  Uiso   1.00
C502   C     0.75005   0.00001   0.64399   0.00000  Uiso   1.00
C503   C     0.50001   0.25000   0.35602   0.00000  Uiso   1.00
C504   C     0.99998   0.24998   0.64398   0.00000  Uiso   1.00
C505   C     0.99999   0.24999   0.85601   0.00000  Uiso   1.00
C506   C     0.50002   0.25000   0.14399   0.00000  Uiso   1.00
C507   C     0.75001   0.00002   0.85602   0.00000  Uiso   1.00
C508   C     0.74999  -0.00000   0.14398   0.00000  Uiso   1.00
C509   C     0.68000   0.06993   0.25002   0.00000  Uiso   1.00
C510   C     0.81988   0.43000   0.75010   0.00000  Uiso   1.00
C511   C     0.93010   0.17990   0.25000   0.00000  Uiso   1.00
C512   C     0.57016   0.31974   0.75027   0.00000  Uiso   1.00
C513   C     0.82025   0.43036   0.25039   0.00000  Uiso   1.00
C514   C     0.67970   0.06967   0.74930   0.00000  Uiso   1.00
C515   C     0.56996   0.31998   0.25003   0.00000  Uiso   1.00
C516   C     0.92999   0.18008   0.75004   0.00000  Uiso   1.00
C517   C     0.68006   0.43003   0.75006   0.00000  Uiso   1.00
C518   C     0.81992   0.06994   0.24995   0.00000  Uiso   1.00
C519   C     0.93000   0.31998   0.74997   0.00000  Uiso   1.00
C520   C     0.56998   0.18005   0.25001   0.00000  Uiso   1.00
C521   C     0.81997   0.06996   0.75001   0.00000  Uiso   1.00
C522   C     0.68000   0.43008   0.25002   0.00000  Uiso   1.00
C523   C     0.57001   0.18008   0.75018   0.00000  Uiso   1.00
C524   C     0.92983   0.31980   0.24975   0.00000  Uiso   1.00
C525   C     0.65091   0.37646   0.21917   0.00000  Uiso   1.00
C526   C     0.87539   0.09730   0.72094   0.00000  Uiso   1.00
C527   C     0.59679   0.12414   0.27858   0.00000  Uiso   1.00
C528   C     0.90066   0.37365   0.71910   0.00000  Uiso   1.00
C529   C     0.85271   0.11965   0.21635   0.00000  Uiso   1.00
C530   C     0.62018   0.40687   0.72739   0.00000  Uiso   1.00
C531   C     0.87674   0.35002   0.21816   0.00000  Uiso   1.00
C532   C     0.62170   0.14858   0.78259   0.00000  Uiso   1.00
C533   C     0.64827   0.12054   0.78279   0.00000  Uiso   1.00
C534   C     0.85002   0.37808   0.21798   0.00000  Uiso   1.00
C535   C     0.59358   0.37888   0.72637   0.00000  Uiso   1.00
C536   C     0.88090   0.14605   0.21580   0.00000  Uiso   1.00
C537   C     0.87315   0.40078   0.71897   0.00000  Uiso   1.00
C538   C     0.62418   0.09687   0.27867   0.00000  Uiso   1.00
C539   C     0.90269   0.12466   0.72094   0.00000  Uiso   1.00
C540   C     0.62376   0.34897   0.21933   0.00000  Uiso   1.00
C541   C     0.87443   0.15284   0.77899   0.00000  Uiso   1.00
C542   C     0.59868   0.37400   0.28060   0.00000  Uiso   1.00
C543   C     0.84897   0.37640   0.78097   0.00000  Uiso   1.00
C544   C     0.65310   0.12576   0.22132   0.00000  Uiso   1.00
C545   C     0.62953   0.34330   0.77409   0.00000  Uiso   1.00
C546   C     0.89808   0.12904   0.28314   0.00000  Uiso   1.00
C547   C     0.63054   0.10403   0.71557   0.00000  Uiso   1.00
C548   C     0.87298   0.40003   0.28163   0.00000  Uiso   1.00
C549   C     0.90034   0.37276   0.28127   0.00000  Uiso   1.00
C550   C     0.60062   0.12833   0.71773   0.00000  Uiso   1.00
C551   C     0.87086   0.10159   0.28304   0.00000  Uiso   1.00
C552   C     0.65704   0.37048   0.77368   0.00000  Uiso   1.00
C553   C     0.62586   0.15318   0.22142   0.00000  Uiso   1.00
C554   C     0.87616   0.34894   0.78080   0.00000  Uiso   1.00
C555   C     0.62606   0.40129   0.28063   0.00000  Uiso   1.00
C556   C     0.84716   0.12544   0.77906   0.00000  Uiso   1.00
C557   C     0.96649   0.25065   0.45924   0.00000  Uiso   1.00
C558   C     0.53348   0.24926   0.54074   0.00000  Uiso   1.00
C559   C     0.75125   0.03346   0.45926   0.00000  Uiso   1.00
C560   C     0.74951   0.46652   0.54073   0.00000  Uiso   1.00
C561   C     0.53351   0.24922   0.45933   0.00000  Uiso   1.00
C562   C     0.96646   0.25053   0.54066   0.00000  Uiso   1.00
C563   C     0.74938   0.46651   0.45931   0.00000  Uiso   1.00
C564   C     0.75120   0.03347   0.54068   0.00000  Uiso   1.00
C565   C     0.71650   0.00032   0.95925   0.00000  Uiso   1.00
C566   C     0.78351   0.49998   0.04076   0.00000  Uiso   1.00
C567   C     0.50077   0.28345   0.95927   0.00000  Uiso   1.00
C568   C     0.99934   0.21651   0.04074   0.00000  Uiso   1.00
C569   C     0.78353   0.49989   0.95934   0.00000  Uiso   1.00
C570   C     0.71648   0.00017   0.04067   0.00000  Uiso   1.00
C571   C     0.99925   0.21650   0.95931   0.00000  Uiso   1.00
C572   C     0.50078   0.28346   0.04068   0.00000  Uiso   1.00
C573   C     0.59804   0.34814   0.25003   0.00000  Uiso   1.00
C574   C     0.90184   0.15199   0.75000   0.00000  Uiso   1.00
C575   C     0.65188   0.09804   0.24999   0.00000  Uiso   1.00
C576   C     0.84792   0.40191   0.75007   0.00000  Uiso   1.00
C577   C     0.90225   0.15139   0.24978   0.00000  Uiso   1.00
C578   C     0.59833   0.34779   0.75020   0.00000  Uiso   1.00
C579   C     0.84821   0.40216   0.25008   0.00000  Uiso   1.00
C580   C     0.65224   0.09846   0.74928   0.00000  Uiso   1.00
C581   C     0.59785   0.15168   0.75030   0.00000  Uiso   1.00
C582   C     0.90170   0.34797   0.24971   0.00000  Uiso   1.00
C583   C     0.65196   0.40190   0.75028   0.00000  Uiso   1.00
C584   C     0.84815   0.09781   0.24994   0.00000  Uiso   1.00
C585   C     0.90176   0.34805   0.74996   0.00000  Uiso   1.00
C586   C     0.59810   0.15195   0.25003   0.00000  Uiso   1.00
C587   C     0.84806   0.09808   0.75003   0.00000  Uiso   1.00
C588   C     0.65182   0.40206   0.24997   0.00000  Uiso   1.00
C589   C     0.99999   0.24992   0.47963   0.00000  Uiso   1.00
C590   C     0.99998   0.24990   0.52036   0.00000  Uiso   1.00
C591   C     0.75034   0.49999   0.47963   0.00000  Uiso   1.00
C592   C     0.75036   0.49999   0.52036   0.00000  Uiso   1.00
C593   C     0.75001   0.00010   0.97964   0.00000  Uiso   1.00
C594   C     0.75000   0.00009   0.02037   0.00000  Uiso   1.00
C595   C     0.50002   0.24997   0.97963   0.00000  Uiso   1.00
C596   C     0.50005   0.24998   0.02036   0.00000  Uiso   1.00
H597   H     0.90743   0.25185   0.46431   0.00000  Uiso   1.00
H598   H     0.59254   0.24807   0.53567   0.00000  Uiso   1.00
H599   H     0.75289   0.09245   0.46437   0.00000  Uiso   1.00
H600   H     0.74798   0.40753   0.53562   0.00000  Uiso   1.00
H601   H     0.59256   0.24800   0.46457   0.00000  Uiso   1.00
H602   H     0.90741   0.25171   0.53542   0.00000  Uiso   1.00
H603   H     0.74781   0.40752   0.46451   0.00000  Uiso   1.00
H604   H     0.75279   0.09246   0.53547   0.00000  Uiso   1.00
H605   H     0.65743   0.00063   0.96433   0.00000  Uiso   1.00
H606   H     0.84258   0.49975   0.03568   0.00000  Uiso   1.00
H607   H     0.50210   0.34245   0.96437   0.00000  Uiso   1.00
H608   H     0.99803   0.15751   0.03563   0.00000  Uiso   1.00
H609   H     0.84260   0.49960   0.96458   0.00000  Uiso   1.00
H610   H     0.65741   0.00043   0.03543   0.00000  Uiso   1.00
H611   H     0.99793   0.15750   0.96452   0.00000  Uiso   1.00
H612   H     0.50209   0.34246   0.03547   0.00000  Uiso   1.00
H613   H     0.55904   0.24864   0.40326   0.00000  Uiso   1.00
H614   H     0.94093   0.25096   0.59674   0.00000  Uiso   1.00
H615   H     0.74842   0.44102   0.40322   0.00000  Uiso   1.00
H616   H     0.75166   0.05898   0.59676   0.00000  Uiso   1.00
H617   H     0.94098   0.25132   0.40311   0.00000  Uiso   1.00
H618   H     0.55900   0.24884   0.59687   0.00000  Uiso   1.00
H619   H     0.75197   0.05895   0.40314   0.00000  Uiso   1.00
H620   H     0.74887   0.44103   0.59685   0.00000  Uiso   1.00
H621   H     0.80907   0.49958   0.90326   0.00000  Uiso   1.00
H622   H     0.69094   0.00008   0.09674   0.00000  Uiso   1.00
H623   H     0.99857   0.19100   0.90322   0.00000  Uiso   1.00
H624   H     0.50131   0.30897   0.09676   0.00000  Uiso   1.00
H625   H     0.69098   0.00060   0.90312   0.00000  Uiso   1.00
H626   H     0.80903   0.49999   0.09689   0.00000  Uiso   1.00
H627   H     0.50137   0.30894   0.90315   0.00000  Uiso   1.00
H628   H     0.99884   0.19102   0.09686   0.00000  Uiso   1.00
O629   O     0.75000  -0.00000   0.25000   0.00000  Uiso   1.00
O630   O     0.75000   0.00000   0.75000   0.00000  Uiso   1.00
O631   O     0.50000   0.25000   0.25000   0.00000  Uiso   1.00
O632   O     0.50000   0.25000   0.75000   0.00000  Uiso   1.00
O633   O     0.75000   0.46963   0.33755   0.00000  Uiso   1.00
O634   O     0.75000   0.03037   0.66245   0.00000  Uiso   1.00
O635   O     0.53037   0.25000   0.33755   0.00000  Uiso   1.00
O636   O     0.96964   0.25000   0.66245   0.00000  Uiso   1.00
O637   O     0.75000   0.03037   0.33755   0.00000  Uiso   1.00
O638   O     0.75000   0.46963   0.66245   0.00000  Uiso   1.00
O639   O     0.96964   0.25000   0.33755   0.00000  Uiso   1.00
O640   O     0.53037   0.25000   0.66245   0.00000  Uiso   1.00
O641   O     0.50000   0.21963   0.83755   0.00000  Uiso   1.00
O642   O     0.50000   0.28037   0.16245   0.00000  Uiso   1.00
O643   O     0.78037   0.00000   0.83755   0.00000  Uiso   1.00
O644   O     0.71964  -0.00000   0.16245   0.00000  Uiso   1.00
O645   O     0.50000   0.28037   0.83755   0.00000  Uiso   1.00
O646   O     0.50000   0.21963   0.16245   0.00000  Uiso   1.00
O647   O     0.71964   0.00000   0.83755   0.00000  Uiso   1.00
O648   O     0.78037  -0.00000   0.16245   0.00000  Uiso   1.00
O649   O     0.70725   0.07308   0.27302   0.00000  Uiso   1.00
O650   O     0.79276   0.42693   0.72698   0.00000  Uiso   1.00
O651   O     0.92693   0.20725   0.27302   0.00000  Uiso   1.00
O652   O     0.57308   0.29275   0.72698   0.00000  Uiso   1.00
O653   O     0.79276   0.42693   0.27302   0.00000  Uiso   1.00
O654   O     0.70725   0.07308   0.72698   0.00000  Uiso   1.00
O655   O     0.57308   0.29275   0.27302   0.00000  Uiso   1.00
O656   O     0.92693   0.20725   0.72698   0.00000  Uiso   1.00
O657   O     0.70725   0.42692   0.72698   0.00000  Uiso   1.00
O658   O     0.79276   0.07308   0.27302   0.00000  Uiso   1.00
O659   O     0.92693   0.29276   0.72698   0.00000  Uiso   1.00
O660   O     0.57308   0.20724   0.27302   0.00000  Uiso   1.00
O661   O     0.79276   0.07308   0.72698   0.00000  Uiso   1.00
O662   O     0.70725   0.42692   0.27302   0.00000  Uiso   1.00
O663   O     0.57308   0.20724   0.72698   0.00000  Uiso   1.00
O664   O     0.92693   0.29276   0.27302   0.00000  Uiso   1.00
O665   O     0.95725   0.32308   0.77302   0.00000  Uiso   1.00
O666   O     0.54276   0.17692   0.22698   0.00000  Uiso   1.00
O667   O     0.67693   0.45724   0.77302   0.00000  Uiso   1.00
O668   O     0.82308   0.04276   0.22698   0.00000  Uiso   1.00
O669   O     0.54276   0.17692   0.77302   0.00000  Uiso   1.00
O670   O     0.95725   0.32308   0.22698   0.00000  Uiso   1.00
O671   O     0.82308   0.04276   0.77302   0.00000  Uiso   1.00
O672   O     0.67693   0.45724   0.22698   0.00000  Uiso   1.00
O673   O     0.95725   0.17693   0.22698   0.00000  Uiso   1.00
O674   O     0.54276   0.32307   0.77302   0.00000  Uiso   1.00
O675   O     0.67693   0.04276   0.22698   0.00000  Uiso   1.00
O676   O     0.82308   0.45725   0.77302   0.00000  Uiso   1.00
O677   O     0.54276   0.32307   0.22698   0.00000  Uiso   1.00
O678   O     0.95725   0.17693   0.77302   0.00000  Uiso   1.00
O679   O     0.82308   0.45725   0.22698   0.00000  Uiso   1.00
O680   O     0.67693   0.04276   0.77302   0.00000  Uiso   1.00
Zn681  Zn    0.70660   0.00000   0.21735   0.00000  Uiso   1.00
Zn682  Zn    0.79341  -0.00000   0.78265   0.00000  Uiso   1.00
Zn683  Zn    0.50000   0.20660   0.21735   0.00000  Uiso   1.00
Zn684  Zn    0.50000   0.29340   0.78265   0.00000  Uiso   1.00
Zn685  Zn    0.79341   0.00000   0.21735   0.00000  Uiso   1.00
Zn686  Zn    0.70660  -0.00000   0.78265   0.00000  Uiso   1.00
Zn687  Zn    0.50000   0.29341   0.21735   0.00000  Uiso   1.00
Zn688  Zn    0.50000   0.20659   0.78265   0.00000  Uiso   1.00
Zn689  Zn    0.95660   0.25000   0.71735   0.00000  Uiso   1.00
Zn690  Zn    0.54341   0.25000   0.28265   0.00000  Uiso   1.00
Zn691  Zn    0.75000   0.45659   0.71735   0.00000  Uiso   1.00
Zn692  Zn    0.75000   0.04341   0.28265   0.00000  Uiso   1.00
Zn693  Zn    0.54341   0.25000   0.71735   0.00000  Uiso   1.00
Zn694  Zn    0.95660   0.25000   0.28265   0.00000  Uiso   1.00
Zn695  Zn    0.75000   0.04341   0.71735   0.00000  Uiso   1.00
Zn696  Zn    0.75000   0.45659   0.28265   0.00000  Uiso   1.00
C697   C     0.67939   0.37840   0.18673   0.00000  Uiso   1.00
C698   C     0.66544   0.40059   0.15213   0.00000  Uiso   1.00
H699   H     0.66014   0.42932   0.16074   0.00000  Uiso   1.00
H700   H     0.68640   0.40060   0.12881   0.00000  Uiso   1.00
H701   H     0.63974   0.38885   0.14035   0.00000  Uiso   1.00
H702   H     0.70525   0.39088   0.19702   0.00000  Uiso   1.00
H703   H     0.68792   0.35081   0.17706   0.00000  Uiso   1.00
C704   C     0.87570   0.06649   0.69094   0.00000  Uiso   1.00
C705   C     0.89639   0.03313   0.70612   0.00000  Uiso   1.00
H706   H     0.88214   0.02121   0.73159   0.00000  Uiso   1.00
H707   H     0.89787   0.01206   0.68300   0.00000  Uiso   1.00
H708   H     0.92469   0.04069   0.71472   0.00000  Uiso   1.00
H709   H     0.84752   0.05817   0.68280   0.00000  Uiso   1.00
H710   H     0.88785   0.07520   0.66302   0.00000  Uiso   1.00
C711   C     0.56575   0.12362   0.30833   0.00000  Uiso   1.00
C712   C     0.57607   0.14457   0.34513   0.00000  Uiso   1.00
H713   H     0.60118   0.13313   0.35855   0.00000  Uiso   1.00
H714   H     0.58090   0.17385   0.33850   0.00000  Uiso   1.00
H715   H     0.55336   0.14268   0.36643   0.00000  Uiso   1.00
H716   H     0.54037   0.13568   0.29619   0.00000  Uiso   1.00
H717   H     0.55753   0.09535   0.31593   0.00000  Uiso   1.00
C718   C     0.93023   0.37311   0.68777   0.00000  Uiso   1.00
C719   C     0.96292   0.39644   0.69988   0.00000  Uiso   1.00
H720   H     0.95446   0.42507   0.70560   0.00000  Uiso   1.00
H721   H     0.97559   0.38516   0.72662   0.00000  Uiso   1.00
H722   H     0.98350   0.39653   0.67621   0.00000  Uiso   1.00
H723   H     0.93984   0.34498   0.68158   0.00000  Uiso   1.00
H724   H     0.91987   0.38270   0.65935   0.00000  Uiso   1.00
C725   C     0.82587   0.11623   0.18234   0.00000  Uiso   1.00
C726   C     0.83981   0.09028   0.15073   0.00000  Uiso   1.00
H727   H     0.83952   0.06156   0.16090   0.00000  Uiso   1.00
H728   H     0.82173   0.09222   0.12489   0.00000  Uiso   1.00
H729   H     0.86817   0.09699   0.14182   0.00000  Uiso   1.00
H730   H     0.79860   0.10657   0.19213   0.00000  Uiso   1.00
H731   H     0.81988   0.14347   0.16965   0.00000  Uiso   1.00
C732   C     0.61377   0.44282   0.70587   0.00000  Uiso   1.00
C733   C     0.58973   0.46829   0.73012   0.00000  Uiso   1.00
H734   H     0.56562   0.45366   0.74208   0.00000  Uiso   1.00
H735   H     0.60577   0.47976   0.75465   0.00000  Uiso   1.00
H736   H     0.57956   0.49107   0.71184   0.00000  Uiso   1.00
H737   H     0.63969   0.45719   0.69893   0.00000  Uiso   1.00
H738   H     0.60113   0.43813   0.67705   0.00000  Uiso   1.00
C739   C     0.87842   0.32193   0.18523   0.00000  Uiso   1.00
C740   C     0.84628   0.29524   0.18693   0.00000  Uiso   1.00
H741   H     0.84707   0.27714   0.16116   0.00000  Uiso   1.00
H742   H     0.84802   0.27848   0.21376   0.00000  Uiso   1.00
H743   H     0.81957   0.30930   0.18658   0.00000  Uiso   1.00
H744   H     0.87988   0.33572   0.15661   0.00000  Uiso   1.00
H745   H     0.90355   0.30508   0.18576   0.00000  Uiso   1.00
C746   C     0.62005   0.17671   0.81537   0.00000  Uiso   1.00
C747   C     0.64420   0.20958   0.80597   0.00000  Uiso   1.00
H748   H     0.63504   0.22262   0.77853   0.00000  Uiso   1.00
H749   H     0.64240   0.22988   0.82983   0.00000  Uiso   1.00
H750   H     0.67320   0.20112   0.80272   0.00000  Uiso   1.00
H751   H     0.59179   0.18636   0.82070   0.00000  Uiso   1.00
H752   H     0.62831   0.16515   0.84372   0.00000  Uiso   1.00
C753   C     0.67383   0.11532   0.81762   0.00000  Uiso   1.00
C754   C     0.65600   0.09182   0.84910   0.00000  Uiso   1.00
H755   H     0.63013   0.10428   0.85947   0.00000  Uiso   1.00
H756   H     0.64981   0.06409   0.83784   0.00000  Uiso   1.00
H757   H     0.67500   0.08908   0.87411   0.00000  Uiso   1.00
H758   H     0.70012   0.10245   0.80919   0.00000  Uiso   1.00
H759   H     0.68254   0.14188   0.83001   0.00000  Uiso   1.00
C760   C     0.82385   0.38358   0.18346   0.00000  Uiso   1.00
C761   C     0.78381   0.37547   0.19368   0.00000  Uiso   1.00
H762   H     0.78163   0.35312   0.21538   0.00000  Uiso   1.00
H763   H     0.77018   0.40020   0.20530   0.00000  Uiso   1.00
H764   H     0.76866   0.36723   0.16711   0.00000  Uiso   1.00
H765   H     0.82619   0.41201   0.17244   0.00000  Uiso   1.00
H766   H     0.83083   0.36674   0.15799   0.00000  Uiso   1.00
C767   C     0.56067   0.38123   0.69904   0.00000  Uiso   1.00
C768   C     0.56987   0.36538   0.65923   0.00000  Uiso   1.00
H769   H     0.59315   0.38030   0.64591   0.00000  Uiso   1.00
H770   H     0.57718   0.33602   0.66185   0.00000  Uiso   1.00
H771   H     0.54572   0.36781   0.63981   0.00000  Uiso   1.00
H772   H     0.53679   0.36624   0.71078   0.00000  Uiso   1.00
H773   H     0.55052   0.40956   0.69569   0.00000  Uiso   1.00
C774   C     0.88850   0.16856   0.17917   0.00000  Uiso   1.00
C775   C     0.87371   0.20732   0.18244   0.00000  Uiso   1.00
H776   H     0.84377   0.20680   0.18791   0.00000  Uiso   1.00
H777   H     0.88747   0.22260   0.20608   0.00000  Uiso   1.00
H778   H     0.87894   0.22188   0.15471   0.00000  Uiso   1.00
H779   H     0.91812   0.16927   0.17254   0.00000  Uiso   1.00
H780   H     0.87668   0.15638   0.15268   0.00000  Uiso   1.00
C781   C     0.87072   0.42894   0.68616   0.00000  Uiso   1.00
C782   C     0.84812   0.41454   0.65205   0.00000  Uiso   1.00
H783   H     0.85993   0.38888   0.64037   0.00000  Uiso   1.00
H784   H     0.81954   0.40905   0.66113   0.00000  Uiso   1.00
H785   H     0.84764   0.43530   0.62851   0.00000  Uiso   1.00
H786   H     0.85841   0.45498   0.69623   0.00000  Uiso   1.00
H787   H     0.89817   0.43733   0.67586   0.00000  Uiso   1.00
C788   C     0.62361   0.06582   0.30841   0.00000  Uiso   1.00
C789   C     0.60291   0.03264   0.29281   0.00000  Uiso   1.00
H790   H     0.57488   0.04039   0.28347   0.00000  Uiso   1.00
H791   H     0.61762   0.02056   0.26773   0.00000  Uiso   1.00
H792   H     0.60070   0.01165   0.31596   0.00000  Uiso   1.00
H793   H     0.65171   0.05737   0.31668   0.00000  Uiso   1.00
H794   H     0.61130   0.07439   0.33628   0.00000  Uiso   1.00
C795   C     0.93311   0.12478   0.69050   0.00000  Uiso   1.00
C796   C     0.92174   0.14581   0.65408   0.00000  Uiso   1.00
H797   H     0.89648   0.13414   0.64119   0.00000  Uiso   1.00
H798   H     0.91668   0.17498   0.66102   0.00000  Uiso   1.00
H799   H     0.94400   0.14437   0.63222   0.00000  Uiso   1.00
H800   H     0.95856   0.13720   0.70206   0.00000  Uiso   1.00
H801   H     0.94155   0.09666   0.68262   0.00000  Uiso   1.00
C802   C     0.62301   0.31932   0.18803   0.00000  Uiso   1.00
C803   C     0.64499   0.28589   0.20071   0.00000  Uiso   1.00
H804   H     0.67363   0.29361   0.20768   0.00000  Uiso   1.00
H805   H     0.63240   0.27312   0.22671   0.00000  Uiso   1.00
H806   H     0.64539   0.26554   0.17682   0.00000  Uiso   1.00
H807   H     0.59467   0.31073   0.18106   0.00000  Uiso   1.00
H808   H     0.63361   0.32921   0.15986   0.00000  Uiso   1.00
C809   C     0.87425   0.18347   0.80917   0.00000  Uiso   1.00
C810   C     0.89534   0.17260   0.84573   0.00000  Uiso   1.00
H811   H     0.88390   0.14734   0.85878   0.00000  Uiso   1.00
H812   H     0.92461   0.16781   0.83892   0.00000  Uiso   1.00
H813   H     0.89362   0.19498   0.86742   0.00000  Uiso   1.00
H814   H     0.88647   0.20891   0.79739   0.00000  Uiso   1.00
H815   H     0.84601   0.19172   0.81690   0.00000  Uiso   1.00
C816   C     0.56912   0.37297   0.31201   0.00000  Uiso   1.00
C817   C     0.53487   0.39358   0.29908   0.00000  Uiso   1.00
H818   H     0.54166   0.42234   0.29167   0.00000  Uiso   1.00
H819   H     0.52237   0.38024   0.27335   0.00000  Uiso   1.00
H820   H     0.51451   0.39362   0.32298   0.00000  Uiso   1.00
H821   H     0.56155   0.34449   0.31960   0.00000  Uiso   1.00
H822   H     0.57872   0.38444   0.33992   0.00000  Uiso   1.00
C823   C     0.82044   0.37829   0.81341   0.00000  Uiso   1.00
C824   C     0.83431   0.40066   0.84790   0.00000  Uiso   1.00
H825   H     0.86010   0.38912   0.85967   0.00000  Uiso   1.00
H826   H     0.83942   0.42940   0.83920   0.00000  Uiso   1.00
H827   H     0.81339   0.40056   0.87126   0.00000  Uiso   1.00
H828   H     0.79439   0.39050   0.80309   0.00000  Uiso   1.00
H829   H     0.81218   0.35066   0.82326   0.00000  Uiso   1.00
C830   C     0.68412   0.12619   0.19153   0.00000  Uiso   1.00
C831   C     0.71773   0.14619   0.20723   0.00000  Uiso   1.00
H832   H     0.72908   0.13170   0.23285   0.00000  Uiso   1.00
H833   H     0.73917   0.14729   0.18445   0.00000  Uiso   1.00
H834   H     0.71061   0.17457   0.21574   0.00000  Uiso   1.00
H835   H     0.69208   0.09805   0.18301   0.00000  Uiso   1.00
H836   H     0.67572   0.13888   0.16376   0.00000  Uiso   1.00
C837   C     0.63269   0.30971   0.80026   0.00000  Uiso   1.00
C838   C     0.61512   0.31662   0.83979   0.00000  Uiso   1.00
H839   H     0.58542   0.32217   0.83647   0.00000  Uiso   1.00
H840   H     0.61850   0.29209   0.85846   0.00000  Uiso   1.00
H841   H     0.62815   0.34031   0.85444   0.00000  Uiso   1.00
H842   H     0.61939   0.28562   0.78682   0.00000  Uiso   1.00
H843   H     0.66144   0.30093   0.80427   0.00000  Uiso   1.00
C844   C     0.92475   0.13286   0.31723   0.00000  Uiso   1.00
C845   C     0.96058   0.11284   0.30903   0.00000  Uiso   1.00
H846   H     0.95540   0.08326   0.30430   0.00000  Uiso   1.00
H847   H     0.97415   0.12427   0.28290   0.00000  Uiso   1.00
H848   H     0.97936   0.11596   0.33418   0.00000  Uiso   1.00
H849   H     0.93061   0.16190   0.32381   0.00000  Uiso   1.00
H850   H     0.91340   0.12248   0.34483   0.00000  Uiso   1.00
C851   C     0.63988   0.08468   0.67749   0.00000  Uiso   1.00
C852   C     0.62260   0.04686   0.67508   0.00000  Uiso   1.00
H853   H     0.62984   0.03392   0.64697   0.00000  Uiso   1.00
H854   H     0.63310   0.02933   0.69890   0.00000  Uiso   1.00
H855   H     0.59238   0.04881   0.67705   0.00000  Uiso   1.00
H856   H     0.63228   0.10128   0.65184   0.00000  Uiso   1.00
H857   H     0.66974   0.08210   0.67337   0.00000  Uiso   1.00
C858   C     0.87108   0.42836   0.31429   0.00000  Uiso   1.00
C859   C     0.89079   0.46365   0.30301   0.00000  Uiso   1.00
H860   H     0.87753   0.47657   0.27747   0.00000  Uiso   1.00
H861   H     0.88975   0.48325   0.32759   0.00000  Uiso   1.00
H862   H     0.91990   0.45800   0.29602   0.00000  Uiso   1.00
H863   H     0.84233   0.43472   0.32200   0.00000  Uiso   1.00
H864   H     0.88276   0.41820   0.34186   0.00000  Uiso   1.00
C865   C     0.92901   0.37068   0.31363   0.00000  Uiso   1.00
C866   C     0.91555   0.34781   0.34797   0.00000  Uiso   1.00
H867   H     0.88952   0.35870   0.35976   0.00000  Uiso   1.00
H868   H     0.91100   0.31903   0.33911   0.00000  Uiso   1.00
H869   H     0.93646   0.34817   0.37137   0.00000  Uiso   1.00
H870   H     0.95511   0.35883   0.30310   0.00000  Uiso   1.00
H871   H     0.93712   0.39832   0.32365   0.00000  Uiso   1.00
C872   C     0.57001   0.12800   0.68724   0.00000  Uiso   1.00
C873   C     0.53597   0.10856   0.70267   0.00000  Uiso   1.00
H874   H     0.54304   0.08062   0.71284   0.00000  Uiso   1.00
H875   H     0.52350   0.12391   0.72700   0.00000  Uiso   1.00
H876   H     0.51540   0.10619   0.67906   0.00000  Uiso   1.00
H877   H     0.56289   0.15621   0.67811   0.00000  Uiso   1.00
H878   H     0.57733   0.11393   0.66006   0.00000  Uiso   1.00
C879   C     0.86686   0.07517   0.31729   0.00000  Uiso   1.00
C880   C     0.84260   0.09106   0.34929   0.00000  Uiso   1.00
H881   H     0.85330   0.11764   0.35981   0.00000  Uiso   1.00
H882   H     0.81432   0.09537   0.33857   0.00000  Uiso   1.00
H883   H     0.84154   0.07171   0.37412   0.00000  Uiso   1.00
H884   H     0.85518   0.04853   0.30811   0.00000  Uiso   1.00
H885   H     0.89393   0.06747   0.32932   0.00000  Uiso   1.00
C886   C     0.69170   0.36641   0.79821   0.00000  Uiso   1.00
C887   C     0.72143   0.34575   0.77609   0.00000  Uiso   1.00
H888   H     0.71114   0.31896   0.76562   0.00000  Uiso   1.00
H889   H     0.73086   0.36197   0.75076   0.00000  Uiso   1.00
H890   H     0.74516   0.34083   0.79552   0.00000  Uiso   1.00
H891   H     0.70276   0.39335   0.80726   0.00000  Uiso   1.00
H892   H     0.68607   0.35244   0.82611   0.00000  Uiso   1.00
C893   C     0.62632   0.18412   0.19158   0.00000  Uiso   1.00
C894   C     0.60544   0.17366   0.15474   0.00000  Uiso   1.00
H895   H     0.61692   0.14852   0.14151   0.00000  Uiso   1.00
H896   H     0.57612   0.16884   0.16129   0.00000  Uiso   1.00
H897   H     0.60736   0.19627   0.13331   0.00000  Uiso   1.00
H898   H     0.61407   0.20943   0.20354   0.00000  Uiso   1.00
H899   H     0.65462   0.19240   0.18412   0.00000  Uiso   1.00
C900   C     0.87714   0.31944   0.81227   0.00000  Uiso   1.00
C901   C     0.85534   0.28580   0.79984   0.00000  Uiso   1.00
H902   H     0.82662   0.29329   0.79294   0.00000  Uiso   1.00
H903   H     0.86792   0.27303   0.77386   0.00000  Uiso   1.00
H904   H     0.85516   0.26551   0.82382   0.00000  Uiso   1.00
H905   H     0.90555   0.31108   0.81922   0.00000  Uiso   1.00
H906   H     0.86654   0.32938   0.84040   0.00000  Uiso   1.00
C907   C     0.62752   0.43029   0.31258   0.00000  Uiso   1.00
C908   C     0.64967   0.41714   0.34759   0.00000  Uiso   1.00
H909   H     0.63826   0.39141   0.35959   0.00000  Uiso   1.00
H910   H     0.67858   0.41224   0.33934   0.00000  Uiso   1.00
H911   H     0.64911   0.43836   0.37062   0.00000  Uiso   1.00
H912   H     0.63976   0.45617   0.30193   0.00000  Uiso   1.00
H913   H     0.59970   0.43855   0.32188   0.00000  Uiso   1.00
C914   C     0.81640   0.12551   0.80917   0.00000  Uiso   1.00
C915   C     0.78255   0.14540   0.79393   0.00000  Uiso   1.00
H916   H     0.78940   0.17397   0.78582   0.00000  Uiso   1.00
H917   H     0.77121   0.13118   0.76814   0.00000  Uiso   1.00
H918   H     0.76118   0.14596   0.81681   0.00000  Uiso   1.00
H919   H     0.80868   0.09728   0.81762   0.00000  Uiso   1.00
H920   H     0.82496   0.13809   0.83693   0.00000  Uiso   1.00
C921   C     0.03329   0.74923   0.41885   0.00000  Uiso   1.00
C922   C     0.46669   0.75050   0.58114   0.00000  Uiso   1.00
C923   C     0.24925   0.96674   0.41883   0.00000  Uiso   1.00
C924   C     0.25107   0.53325   0.58115   0.00000  Uiso   1.00
C925   C     0.46673   0.75070   0.41877   0.00000  Uiso   1.00
C926   C     0.03325   0.74931   0.58122   0.00000  Uiso   1.00
C927   C     0.25120   0.53322   0.41878   0.00000  Uiso   1.00
C928   C     0.24950   0.96676   0.58121   0.00000  Uiso   1.00
C929   C     0.28331   0.99982   0.91886   0.00000  Uiso   1.00
C930   C     0.21670   0.50008   0.08115   0.00000  Uiso   1.00
C931   C     0.49921   0.71673   0.91883   0.00000  Uiso   1.00
C932   C     0.00076   0.78324   0.08116   0.00000  Uiso   1.00
C933   C     0.21674   0.50036   0.91878   0.00000  Uiso   1.00
C934   C     0.28327   0.50001   0.08123   0.00000  Uiso   1.00
C935   C     0.00075   0.78321   0.91879   0.00000  Uiso   1.00
C936   C     0.49938   0.71675   0.08121   0.00000  Uiso   1.00
C937   C     0.00002   0.74998   0.39848   0.00000  Uiso   1.00
C938   C     0.49997   0.74993   0.60151   0.00000  Uiso   1.00
C939   C     0.25015   0.99998   0.39847   0.00000  Uiso   1.00
C940   C     0.25020   0.50001   0.60152   0.00000  Uiso   1.00
C941   C     0.25003   0.50006   0.89849   0.00000  Uiso   1.00
C942   C     0.24998   0.50002   0.10152   0.00000  Uiso   1.00
C943   C     0.49998   0.74997   0.89848   0.00000  Uiso   1.00
C944   C     0.00005   0.75000   0.10152   0.00000  Uiso   1.00
C945   C     0.43333   0.75130   0.47966   0.00000  Uiso   1.00
C946   C     0.06664   0.74858   0.52033   0.00000  Uiso   1.00
C947   C     0.25218   0.56658   0.47969   0.00000  Uiso   1.00
C948   C     0.24864   0.93340   0.52029   0.00000  Uiso   1.00
C949   C     0.06665   0.74854   0.47984   0.00000  Uiso   1.00
C950   C     0.43332   0.75122   0.52015   0.00000  Uiso   1.00
C951   C     0.24854   0.93340   0.47980   0.00000  Uiso   1.00
C952   C     0.25212   0.56658   0.52018   0.00000  Uiso   1.00
C953   C     0.18333   0.50047   0.97967   0.00000  Uiso   1.00
C954   C     0.31668   0.99983   0.02034   0.00000  Uiso   1.00
C955   C     0.00152   0.81657   0.97970   0.00000  Uiso   1.00
C956   C     0.49859   0.68338   0.02030   0.00000  Uiso   1.00
C957   C     0.31669   0.99975   0.97985   0.00000  Uiso   1.00
C958   C     0.18332   0.50035   0.02016   0.00000  Uiso   1.00
C959   C     0.49853   0.68338   0.97981   0.00000  Uiso   1.00
C960   C     0.00151   0.81658   0.02019   0.00000  Uiso   1.00
C961   C     0.25003   0.99999   0.35601   0.00000  Uiso   1.00
C962   C     0.25005   0.50001   0.64399   0.00000  Uiso   1.00
C963   C     0.00001   0.75000   0.35602   0.00000  Uiso   1.00
C964   C     0.49998   0.74998   0.64398   0.00000  Uiso   1.00
C965   C     0.49999   0.74999   0.85601   0.00000  Uiso   1.00
C966   C     0.00002   0.75000   0.14399   0.00000  Uiso   1.00
C967   C     0.25001   0.50002   0.85602   0.00000  Uiso   1.00
C968   C     0.24999   0.50000   0.14398   0.00000  Uiso   1.00
C969   C     0.18000   0.56993   0.25002   0.00000  Uiso   1.00
C970   C     0.31988   0.93000   0.75010   0.00000  Uiso   1.00
C971   C     0.43010   0.67990   0.25000   0.00000  Uiso   1.00
C972   C     0.07016   0.81974   0.75027   0.00000  Uiso   1.00
C973   C     0.32025   0.93036   0.25039   0.00000  Uiso   1.00
C974   C     0.17970   0.56967   0.74930   0.00000  Uiso   1.00
C975   C     0.06996   0.81998   0.25003   0.00000  Uiso   1.00
C976   C     0.42999   0.68008   0.75004   0.00000  Uiso   1.00
C977   C     0.18006   0.93003   0.75006   0.00000  Uiso   1.00
C978   C     0.31992   0.56994   0.24995   0.00000  Uiso   1.00
C979   C     0.43000   0.81998   0.74997   0.00000  Uiso   1.00
C980   C     0.06998   0.68005   0.25001   0.00000  Uiso   1.00
C981   C     0.31997   0.56996   0.75001   0.00000  Uiso   1.00
C982   C     0.18000   0.93008   0.25002   0.00000  Uiso   1.00
C983   C     0.07001   0.68008   0.75018   0.00000  Uiso   1.00
C984   C     0.42983   0.81980   0.24975   0.00000  Uiso   1.00
C985   C     0.15091   0.87646   0.21917   0.00000  Uiso   1.00
C986   C     0.37539   0.59730   0.72094   0.00000  Uiso   1.00
C987   C     0.09679   0.62414   0.27858   0.00000  Uiso   1.00
C988   C     0.40066   0.87365   0.71910   0.00000  Uiso   1.00
C989   C     0.35271   0.61965   0.21635   0.00000  Uiso   1.00
C990   C     0.12018   0.90687   0.72739   0.00000  Uiso   1.00
C991   C     0.37674   0.85002   0.21816   0.00000  Uiso   1.00
C992   C     0.12170   0.64858   0.78259   0.00000  Uiso   1.00
C993   C     0.14827   0.62054   0.78279   0.00000  Uiso   1.00
C994   C     0.35002   0.87808   0.21798   0.00000  Uiso   1.00
C995   C     0.09358   0.87888   0.72637   0.00000  Uiso   1.00
C996   C     0.38090   0.64605   0.21580   0.00000  Uiso   1.00
C997   C     0.37315   0.90078   0.71897   0.00000  Uiso   1.00
C998   C     0.12418   0.59687   0.27867   0.00000  Uiso   1.00
C999   C     0.40269   0.62466   0.72094   0.00000  Uiso   1.00
C1000  C     0.12376   0.84897   0.21933   0.00000  Uiso   1.00
C1001  C     0.37443   0.65284   0.77899   0.00000  Uiso   1.00
C1002  C     0.09868   0.87400   0.28060   0.00000  Uiso   1.00
C1003  C     0.34897   0.87640   0.78097   0.00000  Uiso   1.00
C1004  C     0.15310   0.62576   0.22132   0.00000  Uiso   1.00
C1005  C     0.12953   0.84330   0.77409   0.00000  Uiso   1.00
C1006  C     0.39808   0.62904   0.28314   0.00000  Uiso   1.00
C1007  C     0.13054   0.60403   0.71557   0.00000  Uiso   1.00
C1008  C     0.37298   0.90003   0.28163   0.00000  Uiso   1.00
C1009  C     0.40034   0.87276   0.28127   0.00000  Uiso   1.00
C1010  C     0.10062   0.62833   0.71773   0.00000  Uiso   1.00
C1011  C     0.37086   0.60159   0.28304   0.00000  Uiso   1.00
C1012  C     0.15704   0.87048   0.77368   0.00000  Uiso   1.00
C1013  C     0.12586   0.65318   0.22142   0.00000  Uiso   1.00
C1014  C     0.37616   0.84894   0.78080   0.00000  Uiso   1.00
C1015  C     0.12606   0.90129   0.28063   0.00000  Uiso   1.00
C1016  C     0.34716   0.62544   0.77906   0.00000  Uiso   1.00
C1017  C     0.46649   0.75065   0.45924   0.00000  Uiso   1.00
C1018  C     0.03348   0.74926   0.54074   0.00000  Uiso   1.00
C1019  C     0.25125   0.53346   0.45926   0.00000  Uiso   1.00
C1020  C     0.24951   0.96652   0.54073   0.00000  Uiso   1.00
C1021  C     0.03351   0.74922   0.45933   0.00000  Uiso   1.00
C1022  C     0.46646   0.75053   0.54066   0.00000  Uiso   1.00
C1023  C     0.24938   0.96651   0.45931   0.00000  Uiso   1.00
C1024  C     0.25120   0.53347   0.54068   0.00000  Uiso   1.00
C1025  C     0.21650   0.50032   0.95925   0.00000  Uiso   1.00
C1026  C     0.28351   0.99998   0.04076   0.00000  Uiso   1.00
C1027  C     0.00077   0.78345   0.95927   0.00000  Uiso   1.00
C1028  C     0.49934   0.71651   0.04074   0.00000  Uiso   1.00
C1029  C     0.28353   0.99989   0.95934   0.00000  Uiso   1.00
C1030  C     0.21648   0.50017   0.04067   0.00000  Uiso   1.00
C1031  C     0.49925   0.71650   0.95931   0.00000  Uiso   1.00
C1032  C     0.00078   0.78346   0.04068   0.00000  Uiso   1.00
C1033  C     0.09804   0.84814   0.25003   0.00000  Uiso   1.00
C1034  C     0.40184   0.65199   0.75000   0.00000  Uiso   1.00
C1035  C     0.15188   0.59804   0.24999   0.00000  Uiso   1.00
C1036  C     0.34792   0.90191   0.75007   0.00000  Uiso   1.00
C1037  C     0.40225   0.65139   0.24978   0.00000  Uiso   1.00
C1038  C     0.09833   0.84779   0.75020   0.00000  Uiso   1.00
C1039  C     0.34821   0.90216   0.25008   0.00000  Uiso   1.00
C1040  C     0.15224   0.59846   0.74928   0.00000  Uiso   1.00
C1041  C     0.09785   0.65168   0.75030   0.00000  Uiso   1.00
C1042  C     0.40170   0.84797   0.24971   0.00000  Uiso   1.00
C1043  C     0.15196   0.90190   0.75028   0.00000  Uiso   1.00
C1044  C     0.34815   0.59781   0.24994   0.00000  Uiso   1.00
C1045  C     0.40176   0.84805   0.74996   0.00000  Uiso   1.00
C1046  C     0.09810   0.65195   0.25003   0.00000  Uiso   1.00
C1047  C     0.34806   0.59808   0.75003   0.00000  Uiso   1.00
C1048  C     0.15182   0.90206   0.24997   0.00000  Uiso   1.00
C1049  C     0.49999   0.74992   0.47963   0.00000  Uiso   1.00
C1050  C     0.49998   0.74990   0.52036   0.00000  Uiso   1.00
C1051  C     0.25034   0.99999   0.47963   0.00000  Uiso   1.00
C1052  C     0.25036   0.99999   0.52036   0.00000  Uiso   1.00
C1053  C     0.25001   0.50010   0.97964   0.00000  Uiso   1.00
C1054  C     0.25000   0.50009   0.02037   0.00000  Uiso   1.00
C1055  C     0.00002   0.74997   0.97963   0.00000  Uiso   1.00
C1056  C     0.00005   0.74998   0.02036   0.00000  Uiso   1.00
H1057  H     0.40743   0.75185   0.46431   0.00000  Uiso   1.00
H1058  H     0.09254   0.74807   0.53567   0.00000  Uiso   1.00
H1059  H     0.25289   0.59245   0.46437   0.00000  Uiso   1.00
H1060  H     0.24798   0.90753   0.53562   0.00000  Uiso   1.00
H1061  H     0.09256   0.74800   0.46457   0.00000  Uiso   1.00
H1062  H     0.40741   0.75171   0.53542   0.00000  Uiso   1.00
H1063  H     0.24781   0.90752   0.46451   0.00000  Uiso   1.00
H1064  H     0.25279   0.59246   0.53547   0.00000  Uiso   1.00
H1065  H     0.15743   0.50063   0.96433   0.00000  Uiso   1.00
H1066  H     0.34258   0.99975   0.03568   0.00000  Uiso   1.00
H1067  H     0.00210   0.84245   0.96437   0.00000  Uiso   1.00
H1068  H     0.49803   0.65751   0.03563   0.00000  Uiso   1.00
H1069  H     0.34260   0.99960   0.96458   0.00000  Uiso   1.00
H1070  H     0.15741   0.50043   0.03543   0.00000  Uiso   1.00
H1071  H     0.49793   0.65750   0.96452   0.00000  Uiso   1.00
H1072  H     0.00209   0.84246   0.03547   0.00000  Uiso   1.00
H1073  H     0.05904   0.74864   0.40326   0.00000  Uiso   1.00
H1074  H     0.44093   0.75096   0.59674   0.00000  Uiso   1.00
H1075  H     0.24842   0.94102   0.40322   0.00000  Uiso   1.00
H1076  H     0.25166   0.55898   0.59676   0.00000  Uiso   1.00
H1077  H     0.44098   0.75132   0.40311   0.00000  Uiso   1.00
H1078  H     0.05900   0.74884   0.59687   0.00000  Uiso   1.00
H1079  H     0.25197   0.55895   0.40314   0.00000  Uiso   1.00
H1080  H     0.24887   0.94103   0.59685   0.00000  Uiso   1.00
H1081  H     0.30907   0.99958   0.90326   0.00000  Uiso   1.00
H1082  H     0.19094   0.50008   0.09674   0.00000  Uiso   1.00
H1083  H     0.49857   0.69100   0.90322   0.00000  Uiso   1.00
H1084  H     0.00131   0.80897   0.09676   0.00000  Uiso   1.00
H1085  H     0.19098   0.50060   0.90312   0.00000  Uiso   1.00
H1086  H     0.30903   0.99999   0.09689   0.00000  Uiso   1.00
H1087  H     0.00137   0.80894   0.90315   0.00000  Uiso   1.00
H1088  H     0.49884   0.69102   0.09686   0.00000  Uiso   1.00
O1089  O     0.25000   0.50000   0.25000   0.00000  Uiso   1.00
O1090  O     0.25000   0.50000   0.75000   0.00000  Uiso   1.00
O1091  O     0.00000   0.75000   0.25000   0.00000  Uiso   1.00
O1092  O     0.00000   0.75000   0.75000   0.00000  Uiso   1.00
O1093  O     0.25000   0.96963   0.33755   0.00000  Uiso   1.00
O1094  O     0.25000   0.53037   0.66245   0.00000  Uiso   1.00
O1095  O     0.03037   0.75000   0.33755   0.00000  Uiso   1.00
O1096  O     0.46964   0.75000   0.66245   0.00000  Uiso   1.00
O1097  O     0.25000   0.53037   0.33755   0.00000  Uiso   1.00
O1098  O     0.25000   0.96963   0.66245   0.00000  Uiso   1.00
O1099  O     0.46964   0.75000   0.33755   0.00000  Uiso   1.00
O1100  O     0.03037   0.75000   0.66245   0.00000  Uiso   1.00
O1101  O     0.00000   0.71963   0.83755   0.00000  Uiso   1.00
O1102  O     0.00000   0.78037   0.16245   0.00000  Uiso   1.00
O1103  O     0.28037   0.50000   0.83755   0.00000  Uiso   1.00
O1104  O     0.21964   0.50000   0.16245   0.00000  Uiso   1.00
O1105  O     0.00000   0.78037   0.83755   0.00000  Uiso   1.00
O1106  O     0.00000   0.71963   0.16245   0.00000  Uiso   1.00
O1107  O     0.21964   0.50000   0.83755   0.00000  Uiso   1.00
O1108  O     0.28037   0.50000   0.16245   0.00000  Uiso   1.00
O1109  O     0.20725   0.57308   0.27302   0.00000  Uiso   1.00
O1110  O     0.29276   0.92693   0.72698   0.00000  Uiso   1.00
O1111  O     0.42693   0.70725   0.27302   0.00000  Uiso   1.00
O1112  O     0.07308   0.79275   0.72698   0.00000  Uiso   1.00
O1113  O     0.29276   0.92693   0.27302   0.00000  Uiso   1.00
O1114  O     0.20725   0.57308   0.72698   0.00000  Uiso   1.00
O1115  O     0.07308   0.79275   0.27302   0.00000  Uiso   1.00
O1116  O     0.42693   0.70725   0.72698   0.00000  Uiso   1.00
O1117  O     0.20725   0.92692   0.72698   0.00000  Uiso   1.00
O1118  O     0.29276   0.57308   0.27302   0.00000  Uiso   1.00
O1119  O     0.42693   0.79276   0.72698   0.00000  Uiso   1.00
O1120  O     0.07308   0.70724   0.27302   0.00000  Uiso   1.00
O1121  O     0.29276   0.57308   0.72698   0.00000  Uiso   1.00
O1122  O     0.20725   0.92692   0.27302   0.00000  Uiso   1.00
O1123  O     0.07308   0.70724   0.72698   0.00000  Uiso   1.00
O1124  O     0.42693   0.79276   0.27302   0.00000  Uiso   1.00
O1125  O     0.45725   0.82308   0.77302   0.00000  Uiso   1.00
O1126  O     0.04276   0.67692   0.22698   0.00000  Uiso   1.00
O1127  O     0.17693   0.95724   0.77302   0.00000  Uiso   1.00
O1128  O     0.32308   0.54276   0.22698   0.00000  Uiso   1.00
O1129  O     0.04276   0.67692   0.77302   0.00000  Uiso   1.00
O1130  O     0.45725   0.82308   0.22698   0.00000  Uiso   1.00
O1131  O     0.32308   0.54276   0.77302   0.00000  Uiso   1.00
O1132  O     0.17693   0.95724   0.22698   0.00000  Uiso   1.00
O1133  O     0.45725   0.67693   0.22698   0.00000  Uiso   1.00
O1134  O     0.04276   0.82307   0.77302   0.00000  Uiso   1.00
O1135  O     0.17693   0.54276   0.22698   0.00000  Uiso   1.00
O1136  O     0.32308   0.95725   0.77302   0.00000  Uiso   1.00
O1137  O     0.04276   0.82307   0.22698   0.00000  Uiso   1.00
O1138  O     0.45725   0.67693   0.77302   0.00000  Uiso   1.00
O1139  O     0.32308   0.95725   0.22698   0.00000  Uiso   1.00
O1140  O     0.17693   0.54276   0.77302   0.00000  Uiso   1.00
Zn1141 Zn    0.20660   0.50000   0.21735   0.00000  Uiso   1.00
Zn1142 Zn    0.29341   0.50000   0.78265   0.00000  Uiso   1.00
Zn1143 Zn    0.00000   0.70660   0.21735   0.00000  Uiso   1.00
Zn1144 Zn    0.00000   0.79340   0.78265   0.00000  Uiso   1.00
Zn1145 Zn    0.29341   0.50000   0.21735   0.00000  Uiso   1.00
Zn1146 Zn    0.20660   0.50000   0.78265   0.00000  Uiso   1.00
Zn1147 Zn    0.00000   0.79341   0.21735   0.00000  Uiso   1.00
Zn1148 Zn    0.00000   0.70659   0.78265   0.00000  Uiso   1.00
Zn1149 Zn    0.45660   0.75000   0.71735   0.00000  Uiso   1.00
Zn1150 Zn    0.04341   0.75000   0.28265   0.00000  Uiso   1.00
Zn1151 Zn    0.25000   0.95659   0.71735   0.00000  Uiso   1.00
Zn1152 Zn    0.25000   0.54341   0.28265   0.00000  Uiso   1.00
Zn1153 Zn    0.04341   0.75000   0.71735   0.00000  Uiso   1.00
Zn1154 Zn    0.45660   0.75000   0.28265   0.00000  Uiso   1.00
Zn1155 Zn    0.25000   0.54341   0.71735   0.00000  Uiso   1.00
Zn1156 Zn    0.25000   0.95659   0.28265   0.00000  Uiso   1.00
C1157  C     0.17939   0.87840   0.18673   0.00000  Uiso   1.00
C1158  C     0.16544   0.90059   0.15213   0.00000  Uiso   1.00
H1159  H     0.16014   0.92932   0.16074   0.00000  Uiso   1.00
H1160  H     0.18640   0.90060   0.12881   0.00000  Uiso   1.00
H1161  H     0.13974   0.88885   0.14035   0.00000  Uiso   1.00
H1162  H     0.20525   0.89088   0.19702   0.00000  Uiso   1.00
H1163  H     0.18792   0.85081   0.17706   0.00000  Uiso   1.00
C1164  C     0.37570   0.56649   0.69094   0.00000  Uiso   1.00
C1165  C     0.39639   0.53313   0.70612   0.00000  Uiso   1.00
H1166  H     0.38214   0.52121   0.73159   0.00000  Uiso   1.00
H1167  H     0.39787   0.51206   0.68300   0.00000  Uiso   1.00
H1168  H     0.42469   0.54069   0.71472   0.00000  Uiso   1.00
H1169  H     0.34752   0.55817   0.68280   0.00000  Uiso   1.00
H1170  H     0.38785   0.57520   0.66302   0.00000  Uiso   1.00
C1171  C     0.06575   0.62362   0.30833   0.00000  Uiso   1.00
C1172  C     0.07607   0.64457   0.34513   0.00000  Uiso   1.00
H1173  H     0.10118   0.63313   0.35855   0.00000  Uiso   1.00
H1174  H     0.08090   0.67385   0.33850   0.00000  Uiso   1.00
H1175  H     0.05336   0.64268   0.36643   0.00000  Uiso   1.00
H1176  H     0.04037   0.63568   0.29619   0.00000  Uiso   1.00
H1177  H     0.05753   0.59535   0.31593   0.00000  Uiso   1.00
C1178  C     0.43023   0.87311   0.68777   0.00000  Uiso   1.00
C1179  C     0.46292   0.89644   0.69988   0.00000  Uiso   1.00
H1180  H     0.45446   0.92507   0.70560   0.00000  Uiso   1.00
H1181  H     0.47559   0.88516   0.72662   0.00000  Uiso   1.00
H1182  H     0.48350   0.89653   0.67621   0.00000  Uiso   1.00
H1183  H     0.43984   0.84498   0.68158   0.00000  Uiso   1.00
H1184  H     0.41987   0.88270   0.65935   0.00000  Uiso   1.00
C1185  C     0.32587   0.61623   0.18234   0.00000  Uiso   1.00
C1186  C     0.33981   0.59028   0.15073   0.00000  Uiso   1.00
H1187  H     0.33952   0.56156   0.16090   0.00000  Uiso   1.00
H1188  H     0.32173   0.59222   0.12489   0.00000  Uiso   1.00
H1189  H     0.36817   0.59699   0.14182   0.00000  Uiso   1.00
H1190  H     0.29860   0.60657   0.19213   0.00000  Uiso   1.00
H1191  H     0.31988   0.64347   0.16965   0.00000  Uiso   1.00
C1192  C     0.11377   0.94282   0.70587   0.00000  Uiso   1.00
C1193  C     0.08973   0.96829   0.73012   0.00000  Uiso   1.00
H1194  H     0.06562   0.95366   0.74208   0.00000  Uiso   1.00
H1195  H     0.10577   0.97976   0.75465   0.00000  Uiso   1.00
H1196  H     0.07956   0.99107   0.71184   0.00000  Uiso   1.00
H1197  H     0.13969   0.95719   0.69893   0.00000  Uiso   1.00
H1198  H     0.10113   0.93813   0.67705   0.00000  Uiso   1.00
C1199  C     0.37842   0.82193   0.18523   0.00000  Uiso   1.00
C1200  C     0.34628   0.79524   0.18693   0.00000  Uiso   1.00
H1201  H     0.34707   0.77714   0.16116   0.00000  Uiso   1.00
H1202  H     0.34802   0.77848   0.21376   0.00000  Uiso   1.00
H1203  H     0.31957   0.80930   0.18658   0.00000  Uiso   1.00
H1204  H     0.37988   0.83572   0.15661   0.00000  Uiso   1.00
H1205  H     0.40355   0.80508   0.18576   0.00000  Uiso   1.00
C1206  C     0.12005   0.67671   0.81537   0.00000  Uiso   1.00
C1207  C     0.14420   0.70958   0.80597   0.00000  Uiso   1.00
H1208  H     0.13504   0.72262   0.77853   0.00000  Uiso   1.00
H1209  H     0.14240   0.72988   0.82983   0.00000  Uiso   1.00
H1210  H     0.17320   0.70112   0.80272   0.00000  Uiso   1.00
H1211  H     0.09179   0.68636   0.82070   0.00000  Uiso   1.00
H1212  H     0.12831   0.66515   0.84372   0.00000  Uiso   1.00
C1213  C     0.17383   0.61532   0.81762   0.00000  Uiso   1.00
C1214  C     0.15600   0.59182   0.84910   0.00000  Uiso   1.00
H1215  H     0.13013   0.60428   0.85947   0.00000  Uiso   1.00
H1216  H     0.14981   0.56409   0.83784   0.00000  Uiso   1.00
H1217  H     0.17500   0.58908   0.87411   0.00000  Uiso   1.00
H1218  H     0.20012   0.60245   0.80919   0.00000  Uiso   1.00
H1219  H     0.18254   0.64188   0.83001   0.00000  Uiso   1.00
C1220  C     0.32385   0.88358   0.18346   0.00000  Uiso   1.00
C1221  C     0.28381   0.87547   0.19368   0.00000  Uiso   1.00
H1222  H     0.28163   0.85312   0.21538   0.00000  Uiso   1.00
H1223  H     0.27018   0.90020   0.20530   0.00000  Uiso   1.00
H1224  H     0.26866   0.86723   0.16711   0.00000  Uiso   1.00
H1225  H     0.32619   0.91201   0.17244   0.00000  Uiso   1.00
H1226  H     0.33083   0.86674   0.15799   0.00000  Uiso   1.00
C1227  C     0.06067   0.88123   0.69904   0.00000  Uiso   1.00
C1228  C     0.06987   0.86538   0.65923   0.00000  Uiso   1.00
H1229  H     0.09315   0.88030   0.64591   0.00000  Uiso   1.00
H1230  H     0.07718   0.83602   0.66185   0.00000  Uiso   1.00
H1231  H     0.04572   0.86781   0.63981   0.00000  Uiso   1.00
H1232  H     0.03679   0.86624   0.71078   0.00000  Uiso   1.00
H1233  H     0.05052   0.90956   0.69569   0.00000  Uiso   1.00
C1234  C     0.38850   0.66856   0.17917   0.00000  Uiso   1.00
C1235  C     0.37371   0.70732   0.18244   0.00000  Uiso   1.00
H1236  H     0.34377   0.70680   0.18791   0.00000  Uiso   1.00
H1237  H     0.38747   0.72260   0.20608   0.00000  Uiso   1.00
H1238  H     0.37894   0.72188   0.15471   0.00000  Uiso   1.00
H1239  H     0.41812   0.66927   0.17254   0.00000  Uiso   1.00
H1240  H     0.37668   0.65638   0.15268   0.00000  Uiso   1.00
C1241  C     0.37072   0.92894   0.68616   0.00000  Uiso   1.00
C1242  C     0.34812   0.91454   0.65205   0.00000  Uiso   1.00
H1243  H     0.35993   0.88888   0.64037   0.00000  Uiso   1.00
H1244  H     0.31954   0.90905   0.66113   0.00000  Uiso   1.00
H1245  H     0.34764   0.93530   0.62851   0.00000  Uiso   1.00
H1246  H     0.35841   0.95498   0.69623   0.00000  Uiso   1.00
H1247  H     0.39817   0.93733   0.67586   0.00000  Uiso   1.00
C1248  C     0.12361   0.56582   0.30841   0.00000  Uiso   1.00
C1249  C     0.10291   0.53264   0.29281   0.00000  Uiso   1.00
H1250  H     0.07488   0.54039   0.28347   0.00000  Uiso   1.00
H1251  H     0.11762   0.52056   0.26773   0.00000  Uiso   1.00
H1252  H     0.10070   0.51165   0.31596   0.00000  Uiso   1.00
H1253  H     0.15171   0.55737   0.31668   0.00000  Uiso   1.00
H1254  H     0.11130   0.57439   0.33628   0.00000  Uiso   1.00
C1255  C     0.43311   0.62478   0.69050   0.00000  Uiso   1.00
C1256  C     0.42174   0.64581   0.65408   0.00000  Uiso   1.00
H1257  H     0.39648   0.63414   0.64119   0.00000  Uiso   1.00
H1258  H     0.41668   0.67498   0.66102   0.00000  Uiso   1.00
H1259  H     0.44400   0.64437   0.63222   0.00000  Uiso   1.00
H1260  H     0.45856   0.63720   0.70206   0.00000  Uiso   1.00
H1261  H     0.44155   0.59666   0.68262   0.00000  Uiso   1.00
C1262  C     0.12301   0.81932   0.18803   0.00000  Uiso   1.00
C1263  C     0.14499   0.78589   0.20071   0.00000  Uiso   1.00
H1264  H     0.17363   0.79361   0.20768   0.00000  Uiso   1.00
H1265  H     0.13240   0.77312   0.22671   0.00000  Uiso   1.00
H1266  H     0.14539   0.76554   0.17682   0.00000  Uiso   1.00
H1267  H     0.09467   0.81073   0.18106   0.00000  Uiso   1.00
H1268  H     0.13361   0.82921   0.15986   0.00000  Uiso   1.00
C1269  C     0.37425   0.68347   0.80917   0.00000  Uiso   1.00
C1270  C     0.39534   0.67260   0.84573   0.00000  Uiso   1.00
H1271  H     0.38390   0.64734   0.85878   0.00000  Uiso   1.00
H1272  H     0.42461   0.66781   0.83892   0.00000  Uiso   1.00
H1273  H     0.39362   0.69498   0.86742   0.00000  Uiso   1.00
H1274  H     0.38647   0.70891   0.79739   0.00000  Uiso   1.00
H1275  H     0.34601   0.69172   0.81690   0.00000  Uiso   1.00
C1276  C     0.06912   0.87297   0.31201   0.00000  Uiso   1.00
C1277  C     0.03487   0.89358   0.29908   0.00000  Uiso   1.00
H1278  H     0.04166   0.92234   0.29167   0.00000  Uiso   1.00
H1279  H     0.02237   0.88024   0.27335   0.00000  Uiso   1.00
H1280  H     0.01451   0.89362   0.32298   0.00000  Uiso   1.00
H1281  H     0.06155   0.84449   0.31960   0.00000  Uiso   1.00
H1282  H     0.07872   0.88444   0.33992   0.00000  Uiso   1.00
C1283  C     0.32044   0.87829   0.81341   0.00000  Uiso   1.00
C1284  C     0.33431   0.90066   0.84790   0.00000  Uiso   1.00
H1285  H     0.36010   0.88912   0.85967   0.00000  Uiso   1.00
H1286  H     0.33942   0.92940   0.83920   0.00000  Uiso   1.00
H1287  H     0.31339   0.90056   0.87126   0.00000  Uiso   1.00
H1288  H     0.29439   0.89050   0.80309   0.00000  Uiso   1.00
H1289  H     0.31218   0.85066   0.82326   0.00000  Uiso   1.00
C1290  C     0.18412   0.62619   0.19153   0.00000  Uiso   1.00
C1291  C     0.21773   0.64619   0.20723   0.00000  Uiso   1.00
H1292  H     0.22908   0.63170   0.23285   0.00000  Uiso   1.00
H1293  H     0.23917   0.64729   0.18445   0.00000  Uiso   1.00
H1294  H     0.21061   0.67457   0.21574   0.00000  Uiso   1.00
H1295  H     0.19208   0.59805   0.18301   0.00000  Uiso   1.00
H1296  H     0.17572   0.63888   0.16376   0.00000  Uiso   1.00
C1297  C     0.13269   0.80971   0.80026   0.00000  Uiso   1.00
C1298  C     0.11512   0.81662   0.83979   0.00000  Uiso   1.00
H1299  H     0.08542   0.82217   0.83647   0.00000  Uiso   1.00
H1300  H     0.11850   0.79209   0.85846   0.00000  Uiso   1.00
H1301  H     0.12815   0.84031   0.85444   0.00000  Uiso   1.00
H1302  H     0.11939   0.78562   0.78682   0.00000  Uiso   1.00
H1303  H     0.16144   0.80093   0.80427   0.00000  Uiso   1.00
C1304  C     0.42475   0.63286   0.31723   0.00000  Uiso   1.00
C1305  C     0.46058   0.61284   0.30903   0.00000  Uiso   1.00
H1306  H     0.45540   0.58326   0.30430   0.00000  Uiso   1.00
H1307  H     0.47415   0.62427   0.28290   0.00000  Uiso   1.00
H1308  H     0.47936   0.61596   0.33418   0.00000  Uiso   1.00
H1309  H     0.43061   0.66190   0.32381   0.00000  Uiso   1.00
H1310  H     0.41340   0.62248   0.34483   0.00000  Uiso   1.00
C1311  C     0.13988   0.58468   0.67749   0.00000  Uiso   1.00
C1312  C     0.12260   0.54686   0.67508   0.00000  Uiso   1.00
H1313  H     0.12984   0.53392   0.64697   0.00000  Uiso   1.00
H1314  H     0.13310   0.52933   0.69890   0.00000  Uiso   1.00
H1315  H     0.09238   0.54881   0.67705   0.00000  Uiso   1.00
H1316  H     0.13228   0.60128   0.65184   0.00000  Uiso   1.00
H1317  H     0.16974   0.58210   0.67337   0.00000  Uiso   1.00
C1318  C     0.37108   0.92836   0.31429   0.00000  Uiso   1.00
C1319  C     0.39079   0.96365   0.30301   0.00000  Uiso   1.00
H1320  H     0.37753   0.97657   0.27747   0.00000  Uiso   1.00
H1321  H     0.38975   0.98325   0.32759   0.00000  Uiso   1.00
H1322  H     0.41990   0.95800   0.29602   0.00000  Uiso   1.00
H1323  H     0.34233   0.93472   0.32200   0.00000  Uiso   1.00
H1324  H     0.38276   0.91820   0.34186   0.00000  Uiso   1.00
C1325  C     0.42901   0.87068   0.31363   0.00000  Uiso   1.00
C1326  C     0.41555   0.84781   0.34797   0.00000  Uiso   1.00
H1327  H     0.38952   0.85870   0.35976   0.00000  Uiso   1.00
H1328  H     0.41100   0.81903   0.33911   0.00000  Uiso   1.00
H1329  H     0.43646   0.84817   0.37137   0.00000  Uiso   1.00
H1330  H     0.45511   0.85883   0.30310   0.00000  Uiso   1.00
H1331  H     0.43712   0.89832   0.32365   0.00000  Uiso   1.00
C1332  C     0.07001   0.62800   0.68724   0.00000  Uiso   1.00
C1333  C     0.03597   0.60856   0.70267   0.00000  Uiso   1.00
H1334  H     0.04304   0.58062   0.71284   0.00000  Uiso   1.00
H1335  H     0.02350   0.62391   0.72700   0.00000  Uiso   1.00
H1336  H     0.01540   0.60619   0.67906   0.00000  Uiso   1.00
H1337  H     0.06289   0.65621   0.67811   0.00000  Uiso   1.00
H1338  H     0.07733   0.61393   0.66006   0.00000  Uiso   1.00
C1339  C     0.36686   0.57517   0.31729   0.00000  Uiso   1.00
C1340  C     0.34260   0.59106   0.34929   0.00000  Uiso   1.00
H1341  H     0.35330   0.61764   0.35981   0.00000  Uiso   1.00
H1342  H     0.31432   0.59537   0.33857   0.00000  Uiso   1.00
H1343  H     0.34154   0.57171   0.37412   0.00000  Uiso   1.00
H1344  H     0.35518   0.54853   0.30811   0.00000  Uiso   1.00
H1345  H     0.39393   0.56747   0.32932   0.00000  Uiso   1.00
C1346  C     0.19170   0.86641   0.79821   0.00000  Uiso   1.00
C1347  C     0.22143   0.84575   0.77609   0.00000  Uiso   1.00
H1348  H     0.21114   0.81896   0.76562   0.00000  Uiso   1.00
H1349  H     0.23086   0.86197   0.75076   0.00000  Uiso   1.00
H1350  H     0.24516   0.84083   0.79552   0.00000  Uiso   1.00
H1351  H     0.20276   0.89335   0.80726   0.00000  Uiso   1.00
H1352  H     0.18607   0.85244   0.82611   0.00000  Uiso   1.00
C1353  C     0.12632   0.68412   0.19158   0.00000  Uiso   1.00
C1354  C     0.10544   0.67366   0.15474   0.00000  Uiso   1.00
H1355  H     0.11692   0.64852   0.14151   0.00000  Uiso   1.00
H1356  H     0.07612   0.66884   0.16129   0.00000  Uiso   1.00
H1357  H     0.10736   0.69627   0.13331   0.00000  Uiso   1.00
H1358  H     0.11407   0.70943   0.20354   0.00000  Uiso   1.00
H1359  H     0.15462   0.69240   0.18412   0.00000  Uiso   1.00
C1360  C     0.37714   0.81944   0.81227   0.00000  Uiso   1.00
C1361  C     0.35534   0.78580   0.79984   0.00000  Uiso   1.00
H1362  H     0.32662   0.79329   0.79294   0.00000  Uiso   1.00
H1363  H     0.36792   0.77303   0.77386   0.00000  Uiso   1.00
H1364  H     0.35516   0.76551   0.82382   0.00000  Uiso   1.00
H1365  H     0.40555   0.81108   0.81922   0.00000  Uiso   1.00
H1366  H     0.36654   0.82938   0.84040   0.00000  Uiso   1.00
C1367  C     0.12752   0.93029   0.31258   0.00000  Uiso   1.00
C1368  C     0.14967   0.91714   0.34759   0.00000  Uiso   1.00
H1369  H     0.13826   0.89141   0.35959   0.00000  Uiso   1.00
H1370  H     0.17858   0.91224   0.33934   0.00000  Uiso   1.00
H1371  H     0.14911   0.93836   0.37062   0.00000  Uiso   1.00
H1372  H     0.13976   0.95617   0.30193   0.00000  Uiso   1.00
H1373  H     0.09970   0.93855   0.32188   0.00000  Uiso   1.00
C1374  C     0.31640   0.62551   0.80917   0.00000  Uiso   1.00
C1375  C     0.28255   0.64540   0.79393   0.00000  Uiso   1.00
H1376  H     0.28940   0.67397   0.78582   0.00000  Uiso   1.00
H1377  H     0.27121   0.63118   0.76814   0.00000  Uiso   1.00
H1378  H     0.26118   0.64596   0.81681   0.00000  Uiso   1.00
H1379  H     0.30868   0.59728   0.81762   0.00000  Uiso   1.00
H1380  H     0.32496   0.63809   0.83693   0.00000  Uiso   1.00
C1381  C     0.53329   0.74923   0.41885   0.00000  Uiso   1.00
C1382  C     0.96669   0.75050   0.58114   0.00000  Uiso   1.00
C1383  C     0.74925   0.96674   0.41883   0.00000  Uiso   1.00
C1384  C     0.75107   0.53325   0.58115   0.00000  Uiso   1.00
C1385  C     0.96673   0.75070   0.41877   0.00000  Uiso   1.00
C1386  C     0.53325   0.74931   0.58122   0.00000  Uiso   1.00
C1387  C     0.75120   0.53322   0.41878   0.00000  Uiso   1.00
C1388  C     0.74950   0.96676   0.58121   0.00000  Uiso   1.00
C1389  C     0.78331   0.99982   0.91886   0.00000  Uiso   1.00
C1390  C     0.71670   0.50008   0.08115   0.00000  Uiso   1.00
C1391  C     0.99921   0.71673   0.91883   0.00000  Uiso   1.00
C1392  C     0.50076   0.78324   0.08116   0.00000  Uiso   1.00
C1393  C     0.71674   0.50036   0.91878   0.00000  Uiso   1.00
C1394  C     0.78327   0.50001   0.08123   0.00000  Uiso   1.00
C1395  C     0.50075   0.78321   0.91879   0.00000  Uiso   1.00
C1396  C     0.99938   0.71675   0.08121   0.00000  Uiso   1.00
C1397  C     0.50002   0.74998   0.39848   0.00000  Uiso   1.00
C1398  C     0.99997   0.74993   0.60151   0.00000  Uiso   1.00
C1399  C     0.75015   0.99998   0.39847   0.00000  Uiso   1.00
C1400  C     0.75020   0.50001   0.60152   0.00000  Uiso   1.00
C1401  C     0.75003   0.50006   0.89849   0.00000  Uiso   1.00
C1402  C     0.74998   0.50002   0.10152   0.00000  Uiso   1.00
C1403  C     0.99998   0.74997   0.89848   0.00000  Uiso   1.00
C1404  C     0.50005   0.75000   0.10152   0.00000  Uiso   1.00
C1405  C     0.93333   0.75130   0.47966   0.00000  Uiso   1.00
C1406  C     0.56664   0.74858   0.52033   0.00000  Uiso   1.00
C1407  C     0.75218   0.56658   0.47969   0.00000  Uiso   1.00
C1408  C     0.74864   0.93340   0.52029   0.00000  Uiso   1.00
C1409  C     0.56665   0.74854   0.47984   0.00000  Uiso   1.00
C1410  C     0.93332   0.75122   0.52015   0.00000  Uiso   1.00
C1411  C     0.74854   0.93340   0.47980   0.00000  Uiso   1.00
C1412  C     0.75212   0.56658   0.52018   0.00000  Uiso   1.00
C1413  C     0.68333   0.50047   0.97967   0.00000  Uiso   1.00
C1414  C     0.81668   0.99983   0.02034   0.00000  Uiso   1.00
C1415  C     0.50152   0.81657   0.97970   0.00000  Uiso   1.00
C1416  C     0.99859   0.68338   0.02030   0.00000  Uiso   1.00
C1417  C     0.81669   0.99975   0.97985   0.00000  Uiso   1.00
C1418  C     0.68332   0.50035   0.02016   0.00000  Uiso   1.00
C1419  C     0.99853   0.68338   0.97981   0.00000  Uiso   1.00
C1420  C     0.50151   0.81658   0.02019   0.00000  Uiso   1.00
C1421  C     0.75003   0.99999   0.35601   0.00000  Uiso   1.00
C1422  C     0.75005   0.50001   0.64399   0.00000  Uiso   1.00
C1423  C     0.50001   0.75000   0.35602   0.00000  Uiso   1.00
C1424  C     0.99998   0.74998   0.64398   0.00000  Uiso   1.00
C1425  C     0.99999   0.74999   0.85601   0.00000  Uiso   1.00
C1426  C     0.50002   0.75000   0.14399   0.00000  Uiso   1.00
C1427  C     0.75001   0.50002   0.85602   0.00000  Uiso   1.00
C1428  C     0.74999   0.50000   0.14398   0.00000  Uiso   1.00
C1429  C     0.68000   0.56993   0.25002   0.00000  Uiso   1.00
C1430  C     0.81988   0.93000   0.75010   0.00000  Uiso   1.00
C1431  C     0.93010   0.67990   0.25000   0.00000  Uiso   1.00
C1432  C     0.57016   0.81974   0.75027   0.00000  Uiso   1.00
C1433  C     0.82025   0.93036   0.25039   0.00000  Uiso   1.00
C1434  C     0.67970   0.56967   0.74930   0.00000  Uiso   1.00
C1435  C     0.56996   0.81998   0.25003   0.00000  Uiso   1.00
C1436  C     0.92999   0.68008   0.75004   0.00000  Uiso   1.00
C1437  C     0.68006   0.93003   0.75006   0.00000  Uiso   1.00
C1438  C     0.81992   0.56994   0.24995   0.00000  Uiso   1.00
C1439  C     0.93000   0.81998   0.74997   0.00000  Uiso   1.00
C1440  C     0.56998   0.68005   0.25001   0.00000  Uiso   1.00
C1441  C     0.81997   0.56996   0.75001   0.00000  Uiso   1.00
C1442  C     0.68000   0.93008   0.25002   0.00000  Uiso   1.00
C1443  C     0.57001   0.68008   0.75018   0.00000  Uiso   1.00
C1444  C     0.92983   0.81980   0.24975   0.00000  Uiso   1.00
C1445  C     0.65091   0.87646   0.21917   0.00000  Uiso   1.00
C1446  C     0.87539   0.59730   0.72094   0.00000  Uiso   1.00
C1447  C     0.59679   0.62414   0.27858   0.00000  Uiso   1.00
C1448  C     0.90066   0.87365   0.71910   0.00000  Uiso   1.00
C1449  C     0.85271   0.61965   0.21635   0.00000  Uiso   1.00
C1450  C     0.62018   0.90687   0.72739   0.00000  Uiso   1.00
C1451  C     0.87674   0.85002   0.21816   0.00000  Uiso   1.00
C1452  C     0.62170   0.64858   0.78259   0.00000  Uiso   1.00
C1453  C     0.64827   0.62054   0.78279   0.00000  Uiso   1.00
C1454  C     0.85002   0.87808   0.21798   0.00000  Uiso   1.00
C1455  C     0.59358   0.87888   0.72637   0.00000  Uiso   1.00
C1456  C     0.88090   0.64605   0.21580   0.00000  Uiso   1.00
C1457  C     0.87315   0.90078   0.71897   0.00000  Uiso   1.00
C1458  C     0.62418   0.59687   0.27867   0.00000  Uiso   1.00
C1459  C     0.90269   0.62466   0.72094   0.00000  Uiso   1.00
C1460  C     0.62376   0.84897   0.21933   0.00000  Uiso   1.00
C1461  C     0.87443   0.65284   0.77899   0.00000  Uiso   1.00
C1462  C     0.59868   0.87400   0.28060   0.00000  Uiso   1.00
C1463  C     0.84897   0.87640   0.78097   0.00000  Uiso   1.00
C1464  C     0.65310   0.62576   0.22132   0.00000  Uiso   1.00
C1465  C     0.62953   0.84330   0.77409   0.00000  Uiso   1.00
C1466  C     0.89808   0.62904   0.28314   0.00000  Uiso   1.00
C1467  C     0.63054   0.60403   0.71557   0.00000  Uiso   1.00
C1468  C     0.87298   0.90003   0.28163   0.00000  Uiso   1.00
C1469  C     0.90034   0.87276   0.28127   0.00000  Uiso   1.00
C1470  C     0.60062   0.62833   0.71773   0.00000  Uiso   1.00
C1471  C     0.87086   0.60159   0.28304   0.00000  Uiso   1.00
C1472  C     0.65704   0.87048   0.77368   0.00000  Uiso   1.00
C1473  C     0.62586   0.65318   0.22142   0.00000  Uiso   1.00
C1474  C     0.87616   0.84894   0.78080   0.00000  Uiso   1.00
C1475  C     0.62606   0.90129   0.28063   0.00000  Uiso   1.00
C1476  C     0.84716   0.62544   0.77906   0.00000  Uiso   1.00
C1477  C     0.96649   0.75065   0.45924   0.00000  Uiso   1.00
C1478  C     0.53348   0.74926   0.54074   0.00000  Uiso   1.00
C1479  C     0.75125   0.53346   0.45926   0.00000  Uiso   1.00
C1480  C     0.74951   0.96652   0.54073   0.00000  Uiso   1.00
C1481  C     0.53351   0.74922   0.45933   0.00000  Uiso   1.00
C1482  C     0.96646   0.75053   0.54066   0.00000  Uiso   1.00
C1483  C     0.74938   0.96651   0.45931   0.00000  Uiso   1.00
C1484  C     0.75120   0.53347   0.54068   0.00000  Uiso   1.00
C1485  C     0.71650   0.50032   0.95925   0.00000  Uiso   1.00
C1486  C     0.78351   0.99998   0.04076   0.00000  Uiso   1.00
C1487  C     0.50077   0.78345   0.95927   0.00000  Uiso   1.00
C1488  C     0.99934   0.71651   0.04074   0.00000  Uiso   1.00
C1489  C     0.78353   0.99989   0.95934   0.00000  Uiso   1.00
C1490  C     0.71648   0.50017   0.04067   0.00000  Uiso   1.00
C1491  C     0.99925   0.71650   0.95931   0.00000  Uiso   1.00
C1492  C     0.50078   0.78346   0.04068   0.00000  Uiso   1.00
C1493  C     0.59804   0.84814   0.25003   0.00000  Uiso   1.00
C1494  C     0.90184   0.65199   0.75000   0.00000  Uiso   1.00
C1495  C     0.65188   0.59804   0.24999   0.00000  Uiso   1.00
C1496  C     0.84792   0.90191   0.75007   0.00000  Uiso   1.00
C1497  C     0.90225   0.65139   0.24978   0.00000  Uiso   1.00
C1498  C     0.59833   0.84779   0.75020   0.00000  Uiso   1.00
C1499  C     0.84821   0.90216   0.25008   0.00000  Uiso   1.00
C1500  C     0.65224   0.59846   0.74928   0.00000  Uiso   1.00
C1501  C     0.59785   0.65168   0.75030   0.00000  Uiso   1.00
C1502  C     0.90170   0.84797   0.24971   0.00000  Uiso   1.00
C1503  C     0.65196   0.90190   0.75028   0.00000  Uiso   1.00
C1504  C     0.84815   0.59781   0.24994   0.00000  Uiso   1.00
C1505  C     0.90176   0.84805   0.74996   0.00000  Uiso   1.00
C1506  C     0.59810   0.65195   0.25003   0.00000  Uiso   1.00
C1507  C     0.84806   0.59808   0.75003   0.00000  Uiso   1.00
C1508  C     0.65182   0.90206   0.24997   0.00000  Uiso   1.00
C1509  C     0.99999   0.74992   0.47963   0.00000  Uiso   1.00
C1510  C     0.99998   0.74990   0.52036   0.00000  Uiso   1.00
C1511  C     0.75034   0.99999   0.47963   0.00000  Uiso   1.00
C1512  C     0.75036   0.99999   0.52036   0.00000  Uiso   1.00
C1513  C     0.75001   0.50010   0.97964   0.00000  Uiso   1.00
C1514  C     0.75000   0.50009   0.02037   0.00000  Uiso   1.00
C1515  C     0.50002   0.74997   0.97963   0.00000  Uiso   1.00
C1516  C     0.50005   0.74998   0.02036   0.00000  Uiso   1.00
H1517  H     0.90743   0.75185   0.46431   0.00000  Uiso   1.00
H1518  H     0.59254   0.74807   0.53567   0.00000  Uiso   1.00
H1519  H     0.75289   0.59245   0.46437   0.00000  Uiso   1.00
H1520  H     0.74798   0.90753   0.53562   0.00000  Uiso   1.00
H1521  H     0.59256   0.74800   0.46457   0.00000  Uiso   1.00
H1522  H     0.90741   0.75171   0.53542   0.00000  Uiso   1.00
H1523  H     0.74781   0.90752   0.46451   0.00000  Uiso   1.00
H1524  H     0.75279   0.59246   0.53547   0.00000  Uiso   1.00
H1525  H     0.65743   0.50063   0.96433   0.00000  Uiso   1.00
H1526  H     0.84258   0.99975   0.03568   0.00000  Uiso   1.00
H1527  H     0.50210   0.84245   0.96437   0.00000  Uiso   1.00
H1528  H     0.99803   0.65751   0.03563   0.00000  Uiso   1.00
H1529  H     0.84260   0.99960   0.96458   0.00000  Uiso   1.00
H1530  H     0.65741   0.50043   0.03543   0.00000  Uiso   1.00
H1531  H     0.99793   0.65750   0.96452   0.00000  Uiso   1.00
H1532  H     0.50209   0.84246   0.03547   0.00000  Uiso   1.00
H1533  H     0.55904   0.74864   0.40326   0.00000  Uiso   1.00
H1534  H     0.94093   0.75096   0.59674   0.00000  Uiso   1.00
H1535  H     0.74842   0.94102   0.40322   0.00000  Uiso   1.00
H1536  H     0.75166   0.55898   0.59676   0.00000  Uiso   1.00
H1537  H     0.94098   0.75132   0.40311   0.00000  Uiso   1.00
H1538  H     0.55900   0.74884   0.59687   0.00000  Uiso   1.00
H1539  H     0.75197   0.55895   0.40314   0.00000  Uiso   1.00
H1540  H     0.74887   0.94103   0.59685   0.00000  Uiso   1.00
H1541  H     0.80907   0.99958   0.90326   0.00000  Uiso   1.00
H1542  H     0.69094   0.50008   0.09674   0.00000  Uiso   1.00
H1543  H     0.99857   0.69100   0.90322   0.00000  Uiso   1.00
H1544  H     0.50131   0.80897   0.09676   0.00000  Uiso   1.00
H1545  H     0.69098   0.50060   0.90312   0.00000  Uiso   1.00
H1546  H     0.80903   0.99999   0.09689   0.00000  Uiso   1.00
H1547  H     0.50137   0.80894   0.90315   0.00000  Uiso   1.00
H1548  H     0.99884   0.69102   0.09686   0.00000  Uiso   1.00
O1549  O     0.75000   0.50000   0.25000   0.00000  Uiso   1.00
O1550  O     0.75000   0.50000   0.75000   0.00000  Uiso   1.00
O1551  O     0.50000   0.75000   0.25000   0.00000  Uiso   1.00
O1552  O     0.50000   0.75000   0.75000   0.00000  Uiso   1.00
O1553  O     0.75000   0.96963   0.33755   0.00000  Uiso   1.00
O1554  O     0.75000   0.53037   0.66245   0.00000  Uiso   1.00
O1555  O     0.53037   0.75000   0.33755   0.00000  Uiso   1.00
O1556  O     0.96964   0.75000   0.66245   0.00000  Uiso   1.00
O1557  O     0.75000   0.53037   0.33755   0.00000  Uiso   1.00
O1558  O     0.75000   0.96963   0.66245   0.00000  Uiso   1.00
O1559  O     0.96964   0.75000   0.33755   0.00000  Uiso   1.00
O1560  O     0.53037   0.75000   0.66245   0.00000  Uiso   1.00
O1561  O     0.50000   0.71963   0.83755   0.00000  Uiso   1.00
O1562  O     0.50000   0.78037   0.16245   0.00000  Uiso   1.00
O1563  O     0.78037   0.50000   0.83755   0.00000  Uiso   1.00
O1564  O     0.71964   0.50000   0.16245   0.00000  Uiso   1.00
O1565  O     0.50000   0.78037   0.83755   0.00000  Uiso   1.00
O1566  O     0.50000   0.71963   0.16245   0.00000  Uiso   1.00
O1567  O     0.71964   0.50000   0.83755   0.00000  Uiso   1.00
O1568  O     0.78037   0.50000   0.16245   0.00000  Uiso   1.00
O1569  O     0.70725   0.57308   0.27302   0.00000  Uiso   1.00
O1570  O     0.79276   0.92693   0.72698   0.00000  Uiso   1.00
O1571  O     0.92693   0.70725   0.27302   0.00000  Uiso   1.00
O1572  O     0.57308   0.79275   0.72698   0.00000  Uiso   1.00
O1573  O     0.79276   0.92693   0.27302   0.00000  Uiso   1.00
O1574  O     0.70725   0.57308   0.72698   0.00000  Uiso   1.00
O1575  O     0.57308   0.79275   0.27302   0.00000  Uiso   1.00
O1576  O     0.92693   0.70725   0.72698   0.00000  Uiso   1.00
O1577  O     0.70725   0.92692   0.72698   0.00000  Uiso   1.00
O1578  O     0.79276   0.57308   0.27302   0.00000  Uiso   1.00
O1579  O     0.92693   0.79276   0.72698   0.00000  Uiso   1.00
O1580  O     0.57308   0.70724   0.27302   0.00000  Uiso   1.00
O1581  O     0.79276   0.57308   0.72698   0.00000  Uiso   1.00
O1582  O     0.70725   0.92692   0.27302   0.00000  Uiso   1.00
O1583  O     0.57308   0.70724   0.72698   0.00000  Uiso   1.00
O1584  O     0.92693   0.79276   0.27302   0.00000  Uiso   1.00
O1585  O     0.95725   0.82308   0.77302   0.00000  Uiso   1.00
O1586  O     0.54276   0.67692   0.22698   0.00000  Uiso   1.00
O1587  O     0.67693   0.95724   0.77302   0.00000  Uiso   1.00
O1588  O     0.82308   0.54276   0.22698   0.00000  Uiso   1.00
O1589  O     0.54276   0.67692   0.77302   0.00000  Uiso   1.00
O1590  O     0.95725   0.82308   0.22698   0.00000  Uiso   1.00
O1591  O     0.82308   0.54276   0.77302   0.00000  Uiso   1.00
O1592  O     0.67693   0.95724   0.22698   0.00000  Uiso   1.00
O1593  O     0.95725   0.67693   0.22698   0.00000  Uiso   1.00
O1594  O     0.54276   0.82307   0.77302   0.00000  Uiso   1.00
O1595  O     0.67693   0.54276   0.22698   0.00000  Uiso   1.00
O1596  O     0.82308   0.95725   0.77302   0.00000  Uiso   1.00
O1597  O     0.54276   0.82307   0.22698   0.00000  Uiso   1.00
O1598  O     0.95725   0.67693   0.77302   0.00000  Uiso   1.00
O1599  O     0.82308   0.95725   0.22698   0.00000  Uiso   1.00
O1600  O     0.67693   0.54276   0.77302   0.00000  Uiso   1.00
Zn1601 Zn    0.70660   0.50000   0.21735   0.00000  Uiso   1.00
Zn1602 Zn    0.79341   0.50000   0.78265   0.00000  Uiso   1.00
Zn1603 Zn    0.50000   0.70660   0.21735   0.00000  Uiso   1.00
Zn1604 Zn    0.50000   0.79340   0.78265   0.00000  Uiso   1.00
Zn1605 Zn    0.79341   0.50000   0.21735   0.00000  Uiso   1.00
Zn1606 Zn    0.70660   0.50000   0.78265   0.00000  Uiso   1.00
Zn1607 Zn    0.50000   0.79341   0.21735   0.00000  Uiso   1.00
Zn1608 Zn    0.50000   0.70659   0.78265   0.00000  Uiso   1.00
Zn1609 Zn    0.95660   0.75000   0.71735   0.00000  Uiso   1.00
Zn1610 Zn    0.54341   0.75000   0.28265   0.00000  Uiso   1.00
Zn1611 Zn    0.75000   0.95659   0.71735   0.00000  Uiso   1.00
Zn1612 Zn    0.75000   0.54341   0.28265   0.00000  Uiso   1.00
Zn1613 Zn    0.54341   0.75000   0.71735   0.00000  Uiso   1.00
Zn1614 Zn    0.95660   0.75000   0.28265   0.00000  Uiso   1.00
Zn1615 Zn    0.75000   0.54341   0.71735   0.00000  Uiso   1.00
Zn1616 Zn    0.75000   0.95659   0.28265   0.00000  Uiso   1.00
C1617  C     0.67939   0.87840   0.18673   0.00000  Uiso   1.00
C1618  C     0.66544   0.90059   0.15213   0.00000  Uiso   1.00
H1619  H     0.66014   0.92932   0.16074   0.00000  Uiso   1.00
H1620  H     0.68640   0.90060   0.12881   0.00000  Uiso   1.00
H1621  H     0.63974   0.88885   0.14035   0.00000  Uiso   1.00
H1622  H     0.70525   0.89088   0.19702   0.00000  Uiso   1.00
H1623  H     0.68792   0.85081   0.17706   0.00000  Uiso   1.00
C1624  C     0.87570   0.56649   0.69094   0.00000  Uiso   1.00
C1625  C     0.89639   0.53313   0.70612   0.00000  Uiso   1.00
H1626  H     0.88214   0.52121   0.73159   0.00000  Uiso   1.00
H1627  H     0.89787   0.51206   0.68300   0.00000  Uiso   1.00
H1628  H     0.92469   0.54069   0.71472   0.00000  Uiso   1.00
H1629  H     0.84752   0.55817   0.68280   0.00000  Uiso   1.00
H1630  H     0.88785   0.57520   0.66302   0.00000  Uiso   1.00
C1631  C     0.56575   0.62362   0.30833   0.00000  Uiso   1.00
C1632  C     0.57607   0.64457   0.34513   0.00000  Uiso   1.00
H1633  H     0.60118   0.63313   0.35855   0.00000  Uiso   1.00
H1634  H     0.58090   0.67385   0.33850   0.00000  Uiso   1.00
H1635  H     0.55336   0.64268   0.36643   0.00000  Uiso   1.00
H1636  H     0.54037   0.63568   0.29619   0.00000  Uiso   1.00
H1637  H     0.55753   0.59535   0.31593   0.00000  Uiso   1.00
C1638  C     0.93023   0.87311   0.68777   0.00000  Uiso   1.00
C1639  C     0.96292   0.89644   0.69988   0.00000  Uiso   1.00
H1640  H     0.95446   0.92507   0.70560   0.00000  Uiso   1.00
H1641  H     0.97559   0.88516   0.72662   0.00000  Uiso   1.00
H1642  H     0.98350   0.89653   0.67621   0.00000  Uiso   1.00
H1643  H     0.93984   0.84498   0.68158   0.00000  Uiso   1.00
H1644  H     0.91987   0.88270   0.65935   0.00000  Uiso   1.00
C1645  C     0.82587   0.61623   0.18234   0.00000  Uiso   1.00
C1646  C     0.83981   0.59028   0.15073   0.00000  Uiso   1.00
H1647  H     0.83952   0.56156   0.16090   0.00000  Uiso   1.00
H1648  H     0.82173   0.59222   0.12489   0.00000  Uiso   1.00
H1649  H     0.86817   0.59699   0.14182   0.00000  Uiso   1.00
H1650  H     0.79860   0.60657   0.19213   0.00000  Uiso   1.00
H1651  H     0.81988   0.64347   0.16965   0.00000  Uiso   1.00
C1652  C     0.61377   0.94282   0.70587   0.00000  Uiso   1.00
C1653  C     0.58973   0.96829   0.73012   0.00000  Uiso   1.00
H1654  H     0.56562   0.95366   0.74208   0.00000  Uiso   1.00
H1655  H     0.60577   0.97976   0.75465   0.00000  Uiso   1.00
H1656  H     0.57956   0.99107   0.71184   0.00000  Uiso   1.00
H1657  H     0.63969   0.95719   0.69893   0.00000  Uiso   1.00
H1658  H     0.60113   0.93813   0.67705   0.00000  Uiso   1.00
C1659  C     0.87842   0.82193   0.18523   0.00000  Uiso   1.00
C1660  C     0.84628   0.79524   0.18693   0.00000  Uiso   1.00
H1661  H     0.84707   0.77714   0.16116   0.00000  Uiso   1.00
H1662  H     0.84802   0.77848   0.21376   0.00000  Uiso   1.00
H1663  H     0.81957   0.80930   0.18658   0.00000  Uiso   1.00
H1664  H     0.87988   0.83572   0.15661   0.00000  Uiso   1.00
H1665  H     0.90355   0.80508   0.18576   0.00000  Uiso   1.00
C1666  C     0.62005   0.67671   0.81537   0.00000  Uiso   1.00
C1667  C     0.64420   0.70958   0.80597   0.00000  Uiso   1.00
H1668  H     0.63504   0.72262   0.77853   0.00000  Uiso   1.00
H1669  H     0.64240   0.72988   0.82983   0.00000  Uiso   1.00
H1670  H     0.67320   0.70112   0.80272   0.00000  Uiso   1.00
H1671  H     0.59179   0.68636   0.82070   0.00000  Uiso   1.00
H1672  H     0.62831   0.66515   0.84372   0.00000  Uiso   1.00
C1673  C     0.67383   0.61532   0.81762   0.00000  Uiso   1.00
C1674  C     0.65600   0.59182   0.84910   0.00000  Uiso   1.00
H1675  H     0.63013   0.60428   0.85947   0.00000  Uiso   1.00
H1676  H     0.64981   0.56409   0.83784   0.00000  Uiso   1.00
H1677  H     0.67500   0.58908   0.87411   0.00000  Uiso   1.00
H1678  H     0.70012   0.60245   0.80919   0.00000  Uiso   1.00
H1679  H     0.68254   0.64188   0.83001   0.00000  Uiso   1.00
C1680  C     0.82385   0.88358   0.18346   0.00000  Uiso   1.00
C1681  C     0.78381   0.87547   0.19368   0.00000  Uiso   1.00
H1682  H     0.78163   0.85312   0.21538   0.00000  Uiso   1.00
H1683  H     0.77018   0.90020   0.20530   0.00000  Uiso   1.00
H1684  H     0.76866   0.86723   0.16711   0.00000  Uiso   1.00
H1685  H     0.82619   0.91201   0.17244   0.00000  Uiso   1.00
H1686  H     0.83083   0.86674   0.15799   0.00000  Uiso   1.00
C1687  C     0.56067   0.88123   0.69904   0.00000  Uiso   1.00
C1688  C     0.56987   0.86538   0.65923   0.00000  Uiso   1.00
H1689  H     0.59315   0.88030   0.64591   0.00000  Uiso   1.00
H1690  H     0.57718   0.83602   0.66185   0.00000  Uiso   1.00
H1691  H     0.54572   0.86781   0.63981   0.00000  Uiso   1.00
H1692  H     0.53679   0.86624   0.71078   0.00000  Uiso   1.00
H1693  H     0.55052   0.90956   0.69569   0.00000  Uiso   1.00
C1694  C     0.88850   0.66856   0.17917   0.00000  Uiso   1.00
C1695  C     0.87371   0.70732   0.18244   0.00000  Uiso   1.00
H1696  H     0.84377   0.70680   0.18791   0.00000  Uiso   1.00
H1697  H     0.88747   0.72260   0.20608   0.00000  Uiso   1.00
H1698  H     0.87894   0.72188   0.15471   0.00000  Uiso   1.00
H1699  H     0.91812   0.66927   0.17254   0.00000  Uiso   1.00
H1700  H     0.87668   0.65638   0.15268   0.00000  Uiso   1.00
C1701  C     0.87072   0.92894   0.68616   0.00000  Uiso   1.00
C1702  C     0.84812   0.91454   0.65205   0.00000  Uiso   1.00
H1703  H     0.85993   0.88888   0.64037   0.00000  Uiso   1.00
H1704  H     0.81954   0.90905   0.66113   0.00000  Uiso   1.00
H1705  H     0.84764   0.93530   0.62851   0.00000  Uiso   1.00
H1706  H     0.85841   0.95498   0.69623   0.00000  Uiso   1.00
H1707  H     0.89817   0.93733   0.67586   0.00000  Uiso   1.00
C1708  C     0.62361   0.56582   0.30841   0.00000  Uiso   1.00
C1709  C     0.60291   0.53264   0.29281   0.00000  Uiso   1.00
H1710  H     0.57488   0.54039   0.28347   0.00000  Uiso   1.00
H1711  H     0.61762   0.52056   0.26773   0.00000  Uiso   1.00
H1712  H     0.60070   0.51165   0.31596   0.00000  Uiso   1.00
H1713  H     0.65171   0.55737   0.31668   0.00000  Uiso   1.00
H1714  H     0.61130   0.57439   0.33628   0.00000  Uiso   1.00
C1715  C     0.93311   0.62478   0.69050   0.00000  Uiso   1.00
C1716  C     0.92174   0.64581   0.65408   0.00000  Uiso   1.00
H1717  H     0.89648   0.63414   0.64119   0.00000  Uiso   1.00
H1718  H     0.91668   0.67498   0.66102   0.00000  Uiso   1.00
H1719  H     0.94400   0.64437   0.63222   0.00000  Uiso   1.00
H1720  H     0.95856   0.63720   0.70206   0.00000  Uiso   1.00
H1721  H     0.94155   0.59666   0.68262   0.00000  Uiso   1.00
C1722  C     0.62301   0.81932   0.18803   0.00000  Uiso   1.00
C1723  C     0.64499   0.78589   0.20071   0.00000  Uiso   1.00
H1724  H     0.67363   0.79361   0.20768   0.00000  Uiso   1.00
H1725  H     0.63240   0.77312   0.22671   0.00000  Uiso   1.00
H1726  H     0.64539   0.76554   0.17682   0.00000  Uiso   1.00
H1727  H     0.59467   0.81073   0.18106   0.00000  Uiso   1.00
H1728  H     0.63361   0.82921   0.15986   0.00000  Uiso   1.00
C1729  C     0.87425   0.68347   0.80917   0.00000  Uiso   1.00
C1730  C     0.89534   0.67260   0.84573   0.00000  Uiso   1.00
H1731  H     0.88390   0.64734   0.85878   0.00000  Uiso   1.00
H1732  H     0.92461   0.66781   0.83892   0.00000  Uiso   1.00
H1733  H     0.89362   0.69498   0.86742   0.00000  Uiso   1.00
H1734  H     0.88647   0.70891   0.79739   0.00000  Uiso   1.00
H1735  H     0.84601   0.69172   0.81690   0.00000  Uiso   1.00
C1736  C     0.56912   0.87297   0.31201   0.00000  Uiso   1.00
C1737  C     0.53487   0.89358   0.29908   0.00000  Uiso   1.00
H1738  H     0.54166   0.92234   0.29167   0.00000  Uiso   1.00
H1739  H     0.52237   0.88024   0.27335   0.00000  Uiso   1.00
H1740  H     0.51451   0.89362   0.32298   0.00000  Uiso   1.00
H1741  H     0.56155   0.84449   0.31960   0.00000  Uiso   1.00
H1742  H     0.57872   0.88444   0.33992   0.00000  Uiso   1.00
C1743  C     0.82044   0.87829   0.81341   0.00000  Uiso   1.00
C1744  C     0.83431   0.90066   0.84790   0.00000  Uiso   1.00
H1745  H     0.86010   0.88912   0.85967   0.00000  Uiso   1.00
H1746  H     0.83942   0.92940   0.83920   0.00000  Uiso   1.00
H1747  H     0.81339   0.90056   0.87126   0.00000  Uiso   1.00
H1748  H     0.79439   0.89050   0.80309   0.00000  Uiso   1.00
H1749  H     0.81218   0.85066   0.82326   0.00000  Uiso   1.00
C1750  C     0.68412   0.62619   0.19153   0.00000  Uiso   1.00
C1751  C     0.71773   0.64619   0.20723   0.00000  Uiso   1.00
H1752  H     0.72908   0.63170   0.23285   0.00000  Uiso   1.00
H1753  H     0.73917   0.64729   0.18445   0.00000  Uiso   1.00
H1754  H     0.71061   0.67457   0.21574   0.00000  Uiso   1.00
H1755  H     0.69208   0.59805   0.18301   0.00000  Uiso   1.00
H1756  H     0.67572   0.63888   0.16376   0.00000  Uiso   1.00
C1757  C     0.63269   0.80971   0.80026   0.00000  Uiso   1.00
C1758  C     0.61512   0.81662   0.83979   0.00000  Uiso   1.00
H1759  H     0.58542   0.82217   0.83647   0.00000  Uiso   1.00
H1760  H     0.61850   0.79209   0.85846   0.00000  Uiso   1.00
H1761  H     0.62815   0.84031   0.85444   0.00000  Uiso   1.00
H1762  H     0.61939   0.78562   0.78682   0.00000  Uiso   1.00
H1763  H     0.66144   0.80093   0.80427   0.00000  Uiso   1.00
C1764  C     0.92475   0.63286   0.31723   0.00000  Uiso   1.00
C1765  C     0.96058   0.61284   0.30903   0.00000  Uiso   1.00
H1766  H     0.95540   0.58326   0.30430   0.00000  Uiso   1.00
H1767  H     0.97415   0.62427   0.28290   0.00000  Uiso   1.00
H1768  H     0.97936   0.61596   0.33418   0.00000  Uiso   1.00
H1769  H     0.93061   0.66190   0.32381   0.00000  Uiso   1.00
H1770  H     0.91340   0.62248   0.34483   0.00000  Uiso   1.00
C1771  C     0.63988   0.58468   0.67749   0.00000  Uiso   1.00
C1772  C     0.62260   0.54686   0.67508   0.00000  Uiso   1.00
H1773  H     0.62984   0.53392   0.64697   0.00000  Uiso   1.00
H1774  H     0.63310   0.52933   0.69890   0.00000  Uiso   1.00
H1775  H     0.59238   0.54881   0.67705   0.00000  Uiso   1.00
H1776  H     0.63228   0.60128   0.65184   0.00000  Uiso   1.00
H1777  H     0.66974   0.58210   0.67337   0.00000  Uiso   1.00
C1778  C     0.87108   0.92836   0.31429   0.00000  Uiso   1.00
C1779  C     0.89079   0.96365   0.30301   0.00000  Uiso   1.00
H1780  H     0.87753   0.97657   0.27747   0.00000  Uiso   1.00
H1781  H     0.88975   0.98325   0.32759   0.00000  Uiso   1.00
H1782  H     0.91990   0.95800   0.29602   0.00000  Uiso   1.00
H1783  H     0.84233   0.93472   0.32200   0.00000  Uiso   1.00
H1784  H     0.88276   0.91820   0.34186   0.00000  Uiso   1.00
C1785  C     0.92901   0.87068   0.31363   0.00000  Uiso   1.00
C1786  C     0.91555   0.84781   0.34797   0.00000  Uiso   1.00
H1787  H     0.88952   0.85870   0.35976   0.00000  Uiso   1.00
H1788  H     0.91100   0.81903   0.33911   0.00000  Uiso   1.00
H1789  H     0.93646   0.84817   0.37137   0.00000  Uiso   1.00
H1790  H     0.95511   0.85883   0.30310   0.00000  Uiso   1.00
H1791  H     0.93712   0.89832   0.32365   0.00000  Uiso   1.00
C1792  C     0.57001   0.62800   0.68724   0.00000  Uiso   1.00
C1793  C     0.53597   0.60856   0.70267   0.00000  Uiso   1.00
H1794  H     0.54304   0.58062   0.71284   0.00000  Uiso   1.00
H1795  H     0.52350   0.62391   0.72700   0.00000  Uiso   1.00
H1796  H     0.51540   0.60619   0.67906   0.00000  Uiso   1.00
H1797  H     0.56289   0.65621   0.67811   0.00000  Uiso   1.00
H1798  H     0.57733   0.61393   0.66006   0.00000  Uiso   1.00
C1799  C     0.86686   0.57517   0.31729   0.00000  Uiso   1.00
C1800  C     0.84260   0.59106   0.34929   0.00000  Uiso   1.00
H1801  H     0.85330   0.61764   0.35981   0.00000  Uiso   1.00
H1802  H     0.81432   0.59537   0.33857   0.00000  Uiso   1.00
H1803  H     0.84154   0.57171   0.37412   0.00000  Uiso   1.00
H1804  H     0.85518   0.54853   0.30811   0.00000  Uiso   1.00
H1805  H     0.89393   0.56747   0.32932   0.00000  Uiso   1.00
C1806  C     0.69170   0.86641   0.79821   0.00000  Uiso   1.00
C1807  C     0.72143   0.84575   0.77609   0.00000  Uiso   1.00
H1808  H     0.71114   0.81896   0.76562   0.00000  Uiso   1.00
H1809  H     0.73086   0.86197   0.75076   0.00000  Uiso   1.00
H1810  H     0.74516   0.84083   0.79552   0.00000  Uiso   1.00
H1811  H     0.70276   0.89335   0.80726   0.00000  Uiso   1.00
H1812  H     0.68607   0.85244   0.82611   0.00000  Uiso   1.00
C1813  C     0.62632   0.68412   0.19158   0.00000  Uiso   1.00
C1814  C     0.60544   0.67366   0.15474   0.00000  Uiso   1.00
H1815  H     0.61692   0.64852   0.14151   0.00000  Uiso   1.00
H1816  H     0.57612   0.66884   0.16129   0.00000  Uiso   1.00
H1817  H     0.60736   0.69627   0.13331   0.00000  Uiso   1.00
H1818  H     0.61407   0.70943   0.20354   0.00000  Uiso   1.00
H1819  H     0.65462   0.69240   0.18412   0.00000  Uiso   1.00
C1820  C     0.87714   0.81944   0.81227   0.00000  Uiso   1.00
C1821  C     0.85534   0.78580   0.79984   0.00000  Uiso   1.00
H1822  H     0.82662   0.79329   0.79294   0.00000  Uiso   1.00
H1823  H     0.86792   0.77303   0.77386   0.00000  Uiso   1.00
H1824  H     0.85516   0.76551   0.82382   0.00000  Uiso   1.00
H1825  H     0.90555   0.81108   0.81922   0.00000  Uiso   1.00
H1826  H     0.86654   0.82938   0.84040   0.00000  Uiso   1.00
C1827  C     0.62752   0.93029   0.31258   0.00000  Uiso   1.00
C1828  C     0.64967   0.91714   0.34759   0.00000  Uiso   1.00
H1829  H     0.63826   0.89141   0.35959   0.00000  Uiso   1.00
H1830  H     0.67858   0.91224   0.33934   0.00000  Uiso   1.00
H1831  H     0.64911   0.93836   0.37062   0.00000  Uiso   1.00
H1832  H     0.63976   0.95617   0.30193   0.00000  Uiso   1.00
H1833  H     0.59970   0.93855   0.32188   0.00000  Uiso   1.00
C1834  C     0.81640   0.62551   0.80917   0.00000  Uiso   1.00
C1835  C     0.78255   0.64540   0.79393   0.00000  Uiso   1.00
H1836  H     0.78940   0.67397   0.78582   0.00000  Uiso   1.00
H1837  H     0.77121   0.63118   0.76814   0.00000  Uiso   1.00
H1838  H     0.76118   0.64596   0.81681   0.00000  Uiso   1.00
H1839  H     0.80868   0.59728   0.81762   0.00000  Uiso   1.00
H1840  H     0.82496   0.63809   0.83693   0.00000  Uiso   1.00
loop_
_geom_bond_atom_site_label_1
_geom_bond_atom_site_label_2
_geom_bond_distance
_geom_bond_site_symmetry_2
_ccdc_geom_bond_type
C1     C101    1.394   .     A
C1     C17     1.403   .     A
C1     H153    1.084   .     S
C2     C102    1.394   .     A
C2     H154    1.084   .     S
C2     C18     1.403   .     A
C3     C19     1.403   .     A
C3     C103    1.394   .     A
C3     H155    1.084   .     S
C4     C104    1.394   .     A
C4     C20     1.403   .     A
C4     H156    1.084   .     S
C5     C97     1.394   .     A
C5     H157    1.084   .     S
C5     C477    1.404   .     S
C6     H158    1.084   .     S
C6     C98     1.394   .     A
C6     C478    1.403   1_455 S
C7     C99     1.394   .     A
C7     H159    1.084   .     S
C7     C939    1.404   1_545 S
C8     C100    1.394   .     A
C8     H160    1.084   .     S
C8     C940    1.404   .     S
C9     H161    1.084   .     S
C9     C109    1.394   .     A
C9     C941    1.403   .     S
C10    H162    1.084   .     S
C10    C22     1.403   .     A
C10    C110    1.394   .     A
C11    C23     1.404   .     A
C11    H163    1.084   .     S
C11    C111    1.394   .     A
C12    C24     1.403   .     A
C12    C112    1.394   .     A
C12    H164    1.084   .     S
C13    C21     1.404   .     A
C13    C105    1.394   .     A
C13    H165    1.084   .     S
C14    C22     1.404   .     A
C14    C1026   1.394   1_545 S
C14    H1086   1.084   1_545 S
C15    H167    1.084   .     S
C15    C107    1.394   .     A
C15    C483    1.403   1_455 S
C16    H168    1.084   .     S
C16    C108    1.394   .     A
C16    C484    1.404   .     S
C17    C43     1.463   .     S
C17    C465    1.404   1_455 S
C18    C44     1.463   .     S
C18    C466    1.403   .     S
C19    C41     1.463   .     S
C19    C927    1.404   .     S
C20    C42     1.463   .     S
C20    C928    1.404   1_545 S
C21    C47     1.463   .     S
C21    C929    1.403   1_545 S
C22    C48     1.463   .     S
C23    C45     1.463   .     S
C23    C475    1.403   .     S
C24    C46     1.463   .     S
C24    C476    1.404   1_455 S
C25    H137    1.084   .     S
C25    C97     1.402   .     A
C25    C30     1.395   .     A
C26    H138    1.084   .     S
C26    C98     1.402   .     A
C26    C29     1.395   .     A
C27    C99     1.402   .     A
C27    H139    1.084   .     S
C27    C32     1.395   .     A
C28    C31     1.395   .     A
C28    H140    1.084   .     S
C28    C100    1.402   .     A
C29    H141    1.084   .     S
C29    C101    1.402   .     A
C30    C102    1.402   .     A
C30    H142    1.084   .     S
C31    H143    1.084   .     S
C31    C103    1.402   .     A
C32    C104    1.402   .     A
C32    H144    1.084   .     S
C33    C105    1.402   .     A
C33    H145    1.084   .     S
C33    C38     1.395   1_556 S
C34    C106    1.402   .     A
C34    H146    1.084   .     S
C34    C37     1.395   1_554 S
C35    C107    1.402   .     A
C35    H147    1.084   .     S
C35    C40     1.395   1_556 S
C36    H148    1.084   .     S
C36    C108    1.402   .     A
C36    C39     1.395   1_554 S
C37    C109    1.402   .     A
C37    H149    1.084   .     S
C37    C34     1.395   1_556 S
C38    C110    1.402   .     A
C38    H150    1.084   .     S
C38    C33     1.395   1_554 S
C39    C111    1.402   .     A
C39    H151    1.084   .     S
C39    C36     1.395   1_556 S
C40    C112    1.402   .     A
C40    H152    1.084   .     S
C40    C35     1.395   1_554 S
C41    O173    1.280   .     A
C41    O1097   1.280   .     S
C42    O174    1.280   .     A
C42    O1098   1.280   1_545 S
C43    O175    1.279   .     A
C43    O639    1.279   1_455 S
C44    O176    1.279   .     A
C44    O640    1.279   .     S
C45    O645    1.280   .     A
C45    O641    1.280   .     S
C46    O186    1.280   .     A
C46    O182    1.280   .     S
C47    O187    1.279   .     A
C47    O183    1.279   .     A
C48    O188    1.279   .     A
C48    O184    1.279   .     A
C49    C115    1.454   .     S
C49    O215    1.277   .     A
C49    O189    1.277   .     A
C50    O216    1.277   .     A
C50    O190    1.276   .     A
C50    C116    1.451   .     S
C51    O191    1.282   .     A
C51    C117    1.457   .     S
C51    O213    1.275   .     A
C52    O214    1.278   .     A
C52    C118    1.453   .     S
C52    O192    1.277   .     A
C53    O219    1.276   .     A
C53    O193    1.278   .     A
C53    C119    1.452   .     S
C54    O194    1.273   .     A
C54    C120    1.455   .     S
C54    O220    1.283   .     A
C55    O217    1.277   .     A
C55    O195    1.277   .     A
C55    C113    1.453   .     S
C56    O218    1.277   .     A
C56    O196    1.277   .     A
C56    C114    1.453   .     S
C57    C123    1.453   .     S
C57    O197    1.278   .     A
C57    O207    1.277   .     A
C58    O208    1.276   .     A
C58    O198    1.277   .     A
C58    C124    1.450   .     S
C59    C125    1.456   .     S
C59    O205    1.278   .     A
C59    O199    1.278   .     A
C60    O200    1.277   .     A
C60    O206    1.277   .     A
C60    C126    1.454   .     S
C61    C127    1.453   .     S
C61    O211    1.277   .     A
C61    O201    1.276   .     A
C62    O212    1.276   .     A
C62    O202    1.277   .     A
C62    C128    1.453   .     S
C63    O209    1.275   .     A
C63    O203    1.280   .     A
C63    C121    1.454   .     S
C64    O204    1.277   .     A
C64    O210    1.279   .     A
C64    C122    1.456   .     S
C65    C128    1.416   .     A
C65    C80     1.412   .     A
C65    C237    1.530   .     S
C66    C79     1.413   .     A
C66    C244    1.530   .     S
C66    C127    1.415   .     A
C67    C126    1.415   .     A
C67    C78     1.413   .     A
C67    C251    1.529   .     S
C68    C77     1.413   .     A
C68    C125    1.417   .     A
C68    C258    1.528   .     S
C69    C265    1.532   .     S
C69    C76     1.412   .     A
C69    C124    1.415   .     A
C70    C75     1.412   .     A
C70    C123    1.415   .     A
C70    C272    1.527   .     S
C71    C122    1.420   .     A
C71    C279    1.532   .     S
C71    C74     1.417   .     A
C72    C73     1.413   .     A
C72    C121    1.417   .     A
C72    C286    1.529   .     S
C73    C120    1.417   .     A
C73    C293    1.532   .     S
C74    C300    1.538   .     S
C74    C119    1.416   .     A
C75    C118    1.413   .     A
C75    C307    1.529   .     S
C76    C314    1.532   .     S
C76    C117    1.420   .     A
C77    C321    1.531   .     S
C77    C116    1.415   .     A
C78    C115    1.416   .     A
C78    C328    1.529   .     S
C79    C335    1.529   .     S
C79    C114    1.415   .     A
C80    C113    1.416   .     A
C80    C342    1.530   .     S
C81    C349    1.529   .     S
C81    C114    1.416   .     A
C81    C96     1.413   .     A
C82    C95     1.413   .     A
C82    C113    1.416   .     A
C82    C356    1.530   .     S
C83    C363    1.530   .     S
C83    C94     1.413   .     A
C83    C116    1.415   .     A
C84    C93     1.413   .     A
C84    C370    1.530   .     S
C84    C115    1.416   .     A
C85    C92     1.413   .     A
C85    C377    1.528   .     S
C85    C118    1.415   .     A
C86    C117    1.418   .     A
C86    C384    1.532   .     S
C86    C91     1.413   .     A
C87    C391    1.530   .     S
C87    C90     1.411   .     A
C87    C120    1.420   .     A
C88    C119    1.416   .     A
C88    C89     1.412   .     A
C88    C398    1.532   .     S
C89    C405    1.531   .     S
C89    C122    1.417   .     A
C90    C412    1.534   .     S
C90    C121    1.414   .     A
C91    C419    1.531   .     S
C91    C124    1.416   .     A
C92    C123    1.416   .     A
C92    C426    1.529   .     S
C93    C126    1.416   .     A
C93    C433    1.529   .     S
C94    C440    1.530   .     S
C94    C125    1.417   .     A
C95    C447    1.530   .     S
C95    C128    1.416   .     A
C96    C127    1.416   .     A
C96    C454    1.530   .     S
C97    C129    1.411   .     A
C98    C590    1.411   1_455 S
C99    C1051   1.411   1_545 S
C100   C132    1.411   .     A
C101   C589    1.411   1_455 S
C102   C130    1.411   .     A
C103   C131    1.411   .     A
C104   C1052   1.411   1_545 S
C105   C133    1.411   .     A
C106   C934    1.394   .     S
C106   C1054   1.411   .     S
C107   C135    1.411   .     A
C108   C596    1.411   .     S
C109   C1053   1.411   .     S
C110   C134    1.411   .     A
C111   C595    1.411   .     S
C112   C136    1.411   .     A
C129   C130    1.403   .     A
C129   C561    1.411   .     S
C130   C558    1.411   .     S
C131   C132    1.403   .     A
C131   C1019   1.411   .     S
C132   C1024   1.411   .     S
C133   C1029   1.411   1_545 S
C133   C134    1.403   1_556 S
C134   C1026   1.411   1_545 S
C134   C133    1.403   1_554 S
C135   C571    1.411   1_455 S
C135   C136    1.403   1_556 S
C136   C568    1.411   1_455 S
C136   C135    1.403   1_554 S
H166   C934    1.084   .     S
O169   Zn1156  1.945   1_545 S
O169   Zn221   1.943   .     S
O169   Zn225   1.945   .     S
O169   Zn232   1.946   .     S
O170   Zn235   1.945   .     S
O170   Zn222   1.943   .     S
O170   Zn226   1.945   .     S
O170   Zn1151  1.946   1_545 S
O171   Zn230   1.943   .     S
O171   Zn223   1.946   .     S
O171   Zn227   1.945   .     S
O171   Zn694   1.945   1_455 S
O172   Zn228   1.945   .     S
O172   Zn233   1.945   .     S
O172   Zn224   1.946   .     S
O172   Zn689   1.943   1_455 S
O173   Zn236   1.951   .     S
O174   Zn235   1.951   .     S
O175   Zn230   1.951   .     S
O176   Zn229   1.951   .     S
O177   Zn232   1.950   .     S
O177   C961    1.280   1_545 S
O178   Zn231   1.950   .     S
O178   C962    1.280   .     S
O179   Zn234   1.950   .     S
O179   C503    1.279   .     S
O180   Zn233   1.950   .     S
O180   C504    1.279   1_455 S
O181   Zn228   1.951   .     S
O181   C505    1.280   1_455 S
O182   Zn227   1.951   .     S
O183   Zn222   1.951   .     S
O184   Zn221   1.951   .     S
O185   C505    1.280   1_455 A
O185   Zn224   1.950   .     S
O186   Zn223   1.950   .     S
O187   Zn226   1.950   .     S
O188   Zn225   1.950   .     S
O189   Zn232   1.931   .     S
O190   Zn231   1.931   .     S
O191   Zn234   1.931   .     S
O192   Zn233   1.931   .     S
O193   Zn236   1.932   .     S
O194   Zn235   1.932   .     S
O195   Zn230   1.931   .     S
O196   Zn229   1.931   .     S
O197   Zn231   1.931   .     S
O198   Zn232   1.931   .     S
O199   Zn229   1.932   .     S
O200   Zn230   1.932   .     S
O201   Zn235   1.930   .     S
O202   Zn236   1.930   .     S
O203   Zn233   1.932   .     S
O204   Zn234   1.932   .     S
O205   Zn684   1.931   .     S
O206   Zn223   1.931   .     S
O207   Zn1146  1.931   .     S
O208   Zn225   1.931   .     S
O209   Zn228   1.932   .     S
O210   Zn687   1.932   .     S
O211   Zn222   1.931   .     S
O212   Zn1141  1.931   .     S
O213   Zn683   1.931   .     S
O214   Zn224   1.931   .     S
O215   Zn221   1.932   .     S
O216   Zn1142  1.932   .     S
O217   Zn227   1.930   .     S
O218   Zn688   1.930   .     S
O219   Zn1145  1.932   .     S
O220   Zn226   1.932   .     S
Zn221  O1132   1.931   1_545 S
Zn222  O1136   1.932   1_545 S
Zn223  O673    1.931   1_455 S
Zn224  O665    1.931   1_455 S
Zn225  O1139   1.932   1_545 S
Zn226  O1127   1.931   1_545 S
Zn227  O670    1.932   1_455 S
Zn228  O678    1.930   1_455 S
Zn229  O632    1.943   .     S
Zn231  O1090   1.946   .     S
Zn234  O631    1.945   .     S
Zn236  O1089   1.945   .     S
C237   H242    1.107   .     S
C237   C238    1.529   .     S
C237   H243    1.108   .     S
C238   H240    1.110   .     S
C238   H241    1.109   .     S
C238   H239    1.109   .     S
C244   C245    1.527   .     S
C244   H249    1.109   .     S
C244   H250    1.106   .     S
C245   H246    1.110   .     S
C245   H248    1.110   .     S
C245   H247    1.110   .     S
C251   C252    1.528   .     S
C251   H256    1.109   .     S
C251   H257    1.108   .     S
C252   H253    1.109   .     S
C252   H255    1.110   .     S
C252   H254    1.109   .     S
C258   H264    1.106   .     S
C258   C259    1.525   .     S
C258   H263    1.108   .     S
C259   H261    1.110   .     S
C259   H262    1.110   .     S
C259   H260    1.110   .     S
C265   H270    1.110   .     S
C265   H271    1.110   .     S
C265   C266    1.533   .     S
C266   H268    1.110   .     S
C266   H269    1.108   .     S
C266   H267    1.107   .     S
C272   C273    1.530   .     S
C272   H278    1.108   .     S
C272   H277    1.109   .     S
C273   H276    1.108   .     S
C273   H275    1.110   .     S
C273   H274    1.110   .     S
C279   H285    1.106   .     S
C279   C280    1.528   .     S
C279   H284    1.109   .     S
C280   H281    1.108   .     S
C280   H283    1.103   .     S
C280   H282    1.110   .     S
C286   H291    1.107   .     S
C286   H292    1.106   .     S
C286   C287    1.526   .     S
C287   H288    1.110   .     S
C287   H290    1.110   .     S
C287   H289    1.110   .     S
C293   H298    1.109   .     S
C293   C294    1.529   .     S
C293   H299    1.108   .     S
C294   H296    1.109   .     S
C294   H295    1.109   .     S
C294   H297    1.111   .     S
C300   C301    1.534   .     S
C300   H305    1.110   .     S
C300   H306    1.103   .     S
C301   H302    1.110   .     S
C301   H304    1.111   .     S
C301   H303    1.108   .     S
C307   H312    1.107   .     S
C307   H313    1.107   .     S
C307   C308    1.527   .     S
C308   H311    1.110   .     S
C308   H310    1.110   .     S
C308   H309    1.110   .     S
C314   C315    1.522   .     S
C314   H319    1.107   .     S
C314   H320    1.103   .     S
C315   H318    1.110   .     S
C315   H316    1.111   .     S
C315   H317    1.108   .     S
C321   H327    1.107   .     S
C321   C322    1.529   .     S
C321   H326    1.109   .     S
C322   H324    1.109   .     S
C322   H325    1.110   .     S
C322   H323    1.109   .     S
C328   H333    1.109   .     S
C328   C329    1.527   .     S
C328   H334    1.106   .     S
C329   H331    1.110   .     S
C329   H330    1.110   .     S
C329   H332    1.110   .     S
C335   H340    1.108   .     S
C335   C336    1.529   .     S
C335   H341    1.108   .     S
C336   H337    1.109   .     S
C336   H339    1.110   .     S
C336   H338    1.109   .     S
C342   H347    1.108   .     S
C342   C343    1.526   .     S
C342   H348    1.106   .     S
C343   H345    1.110   .     S
C343   H344    1.110   .     S
C343   H346    1.110   .     S
C349   H355    1.108   .     S
C349   C350    1.529   .     S
C349   H354    1.109   .     S
C350   H351    1.109   .     S
C350   H353    1.110   .     S
C350   H352    1.109   .     S
C356   H361    1.109   .     S
C356   H362    1.106   .     S
C356   C357    1.527   .     S
C357   H358    1.110   .     S
C357   H360    1.110   .     S
C357   H359    1.110   .     S
C363   H368    1.110   .     S
C363   H369    1.108   .     S
C363   C364    1.529   .     S
C364   H365    1.109   .     S
C364   H367    1.110   .     S
C364   H366    1.109   .     S
C370   C371    1.528   .     S
C370   H375    1.109   .     S
C370   H376    1.106   .     S
C371   H374    1.110   .     S
C371   H372    1.109   .     S
C371   H373    1.110   .     S
C377   H382    1.108   .     S
C377   H383    1.107   .     S
C377   C378    1.528   .     S
C378   H379    1.110   .     S
C378   H380    1.110   .     S
C378   H381    1.110   .     S
C384   H389    1.107   .     S
C384   C385    1.527   .     S
C384   H390    1.105   .     S
C385   H387    1.109   .     S
C385   H386    1.110   .     S
C385   H388    1.111   .     S
C391   H397    1.104   .     S
C391   C392    1.523   .     S
C391   H396    1.107   .     S
C392   H394    1.109   .     S
C392   H393    1.110   .     S
C392   H395    1.109   .     S
C398   H404    1.105   .     S
C398   H403    1.108   .     S
C398   C399    1.528   .     S
C399   H401    1.110   .     S
C399   H400    1.110   .     S
C399   H402    1.110   .     S
C405   C406    1.530   .     S
C405   H411    1.109   .     S
C405   H410    1.109   .     S
C406   H408    1.109   .     S
C406   H407    1.109   .     S
C406   H409    1.110   .     S
C412   C413    1.528   .     S
C412   H418    1.102   .     S
C412   H417    1.109   .     S
C413   H415    1.108   .     S
C413   H414    1.111   .     S
C413   H416    1.110   .     S
C419   H425    1.109   .     S
C419   C420    1.530   .     S
C419   H424    1.110   .     S
C420   H421    1.109   .     S
C420   H423    1.110   .     S
C420   H422    1.108   .     S
C426   H431    1.110   .     S
C426   H432    1.107   .     S
C426   C427    1.528   .     S
C427   H428    1.110   .     S
C427   H429    1.110   .     S
C427   H430    1.110   .     S
C433   H438    1.109   .     S
C433   H439    1.108   .     S
C433   C434    1.529   .     S
C434   H435    1.109   .     S
C434   H436    1.109   .     S
C434   H437    1.110   .     S
C440   H445    1.108   .     S
C440   C441    1.527   .     S
C440   H446    1.106   .     S
C441   H444    1.110   .     S
C441   H443    1.110   .     S
C441   H442    1.110   .     S
C447   H452    1.109   .     S
C447   C448    1.529   .     S
C447   H453    1.108   .     S
C448   H449    1.109   .     S
C448   H451    1.110   .     S
C448   H450    1.109   .     S
C454   H459    1.109   .     S
C454   C455    1.528   .     S
C454   H460    1.106   .     S
C455   H457    1.109   .     S
C455   H456    1.110   .     S
C455   H458    1.110   .     S
C461   C561    1.394   .     A
C461   C477    1.403   .     A
C461   H613    1.084   .     S
C462   C562    1.394   .     A
C462   H614    1.084   .     S
C462   C478    1.403   .     A
C463   C479    1.403   .     A
C463   C563    1.394   .     A
C463   H615    1.084   .     S
C464   C564    1.394   .     A
C464   C480    1.403   .     A
C464   H616    1.084   .     S
C465   C557    1.394   .     A
C465   H617    1.084   .     S
C465   C17     1.404   1_655 S
C466   H618    1.084   .     S
C466   C558    1.394   .     A
C467   C559    1.394   .     A
C467   H619    1.084   .     S
C467   C1399   1.404   1_545 S
C468   C560    1.394   .     A
C468   H620    1.084   .     S
C468   C1400   1.404   .     S
C469   H621    1.084   .     S
C469   C569    1.394   .     A
C469   C1401   1.403   .     S
C470   H622    1.084   .     S
C470   C482    1.403   .     A
C470   C570    1.394   .     A
C471   C483    1.404   .     A
C471   H623    1.084   .     S
C471   C571    1.394   .     A
C472   C484    1.403   .     A
C472   C572    1.394   .     A
C472   H624    1.084   .     S
C473   C481    1.404   .     A
C473   C565    1.394   .     A
C473   H625    1.084   .     S
C474   C482    1.404   .     A
C474   C1486   1.394   1_545 S
C474   H1546   1.084   1_545 S
C475   H627    1.084   .     S
C475   C567    1.394   .     A
C476   H628    1.084   .     S
C476   C568    1.394   .     A
C476   C24     1.404   1_655 S
C477   C503    1.463   .     S
C478   C504    1.463   .     S
C478   C6      1.403   1_655 S
C479   C501    1.463   .     S
C479   C1387   1.404   .     S
C480   C502    1.463   .     S
C480   C1388   1.404   1_545 S
C481   C507    1.463   .     S
C481   C1389   1.403   1_545 S
C482   C508    1.463   .     S
C483   C505    1.463   .     S
C483   C15     1.403   1_655 S
C484   C506    1.463   .     S
C485   H597    1.084   .     S
C485   C557    1.402   .     A
C485   C490    1.395   .     A
C486   H598    1.084   .     S
C486   C558    1.402   .     A
C486   C489    1.395   .     A
C487   C559    1.402   .     A
C487   H599    1.084   .     S
C487   C492    1.395   .     A
C488   C491    1.395   .     A
C488   H600    1.084   .     S
C488   C560    1.402   .     A
C489   H601    1.084   .     S
C489   C561    1.402   .     A
C490   C562    1.402   .     A
C490   H602    1.084   .     S
C491   H603    1.084   .     S
C491   C563    1.402   .     A
C492   C564    1.402   .     A
C492   H604    1.084   .     S
C493   C565    1.402   .     A
C493   H605    1.084   .     S
C493   C498    1.395   1_556 S
C494   C566    1.402   .     A
C494   H606    1.084   .     S
C494   C497    1.395   1_554 S
C495   C567    1.402   .     A
C495   H607    1.084   .     S
C495   C500    1.395   1_556 S
C496   H608    1.084   .     S
C496   C568    1.402   .     A
C496   C499    1.395   1_554 S
C497   C569    1.402   .     A
C497   H609    1.084   .     S
C497   C494    1.395   1_556 S
C498   C570    1.402   .     A
C498   H610    1.084   .     S
C498   C493    1.395   1_554 S
C499   C571    1.402   .     A
C499   H611    1.084   .     S
C499   C496    1.395   1_556 S
C500   C572    1.402   .     A
C500   H612    1.084   .     S
C500   C495    1.395   1_554 S
C501   O633    1.280   .     A
C501   O1557   1.280   .     S
C502   O634    1.280   .     A
C502   O1558   1.280   1_545 S
C503   O635    1.279   .     A
C504   O636    1.279   .     A
C504   O180    1.279   1_655 S
C505   O185    1.280   1_655 A
C505   O181    1.280   1_655 S
C506   O646    1.280   .     A
C506   O642    1.280   .     S
C507   O647    1.279   .     A
C507   O643    1.279   .     A
C508   O648    1.279   .     A
C508   O644    1.279   .     A
C509   C575    1.454   .     S
C509   O675    1.277   .     A
C509   O649    1.277   .     A
C510   O676    1.277   .     A
C510   O650    1.276   .     A
C510   C576    1.451   .     S
C511   O651    1.282   .     A
C511   C577    1.457   .     S
C511   O673    1.275   .     A
C512   O674    1.278   .     A
C512   C578    1.453   .     S
C512   O652    1.277   .     A
C513   O679    1.276   .     A
C513   O653    1.278   .     A
C513   C579    1.452   .     S
C514   O654    1.273   .     A
C514   C580    1.455   .     S
C514   O680    1.283   .     A
C515   O677    1.277   .     A
C515   O655    1.277   .     A
C515   C573    1.453   .     S
C516   O678    1.277   .     A
C516   O656    1.277   .     A
C516   C574    1.453   .     S
C517   C583    1.453   .     S
C517   O657    1.278   .     A
C517   O667    1.277   .     A
C518   O668    1.276   .     A
C518   O658    1.277   .     A
C518   C584    1.450   .     S
C519   C585    1.456   .     S
C519   O665    1.278   .     A
C519   O659    1.278   .     A
C520   O660    1.277   .     A
C520   O666    1.277   .     A
C520   C586    1.454   .     S
C521   C587    1.453   .     S
C521   O671    1.277   .     A
C521   O661    1.276   .     A
C522   O672    1.276   .     A
C522   O662    1.277   .     A
C522   C588    1.453   .     S
C523   O669    1.275   .     A
C523   O663    1.280   .     A
C523   C581    1.454   .     S
C524   O664    1.277   .     A
C524   O670    1.279   .     A
C524   C582    1.456   .     S
C525   C588    1.416   .     A
C525   C540    1.412   .     A
C525   C697    1.530   .     S
C526   C539    1.413   .     A
C526   C704    1.530   .     S
C526   C587    1.415   .     A
C527   C586    1.415   .     A
C527   C538    1.413   .     A
C527   C711    1.529   .     S
C528   C537    1.413   .     A
C528   C585    1.417   .     A
C528   C718    1.528   .     S
C529   C725    1.532   .     S
C529   C536    1.412   .     A
C529   C584    1.415   .     A
C530   C535    1.412   .     A
C530   C583    1.415   .     A
C530   C732    1.527   .     S
C531   C582    1.420   .     A
C531   C739    1.532   .     S
C531   C534    1.417   .     A
C532   C533    1.413   .     A
C532   C581    1.417   .     A
C532   C746    1.529   .     S
C533   C580    1.417   .     A
C533   C753    1.532   .     S
C534   C760    1.538   .     S
C534   C579    1.416   .     A
C535   C578    1.413   .     A
C535   C767    1.529   .     S
C536   C774    1.532   .     S
C536   C577    1.420   .     A
C537   C781    1.531   .     S
C537   C576    1.415   .     A
C538   C575    1.416   .     A
C538   C788    1.529   .     S
C539   C795    1.529   .     S
C539   C574    1.415   .     A
C540   C573    1.416   .     A
C540   C802    1.530   .     S
C541   C809    1.529   .     S
C541   C574    1.416   .     A
C541   C556    1.413   .     A
C542   C555    1.413   .     A
C542   C573    1.416   .     A
C542   C816    1.530   .     S
C543   C823    1.530   .     S
C543   C554    1.413   .     A
C543   C576    1.415   .     A
C544   C553    1.413   .     A
C544   C830    1.530   .     S
C544   C575    1.416   .     A
C545   C552    1.413   .     A
C545   C837    1.528   .     S
C545   C578    1.415   .     A
C546   C577    1.418   .     A
C546   C844    1.532   .     S
C546   C551    1.413   .     A
C547   C851    1.530   .     S
C547   C550    1.411   .     A
C547   C580    1.420   .     A
C548   C579    1.416   .     A
C548   C549    1.412   .     A
C548   C858    1.532   .     S
C549   C865    1.531   .     S
C549   C582    1.417   .     A
C550   C872    1.534   .     S
C550   C581    1.414   .     A
C551   C879    1.531   .     S
C551   C584    1.416   .     A
C552   C583    1.416   .     A
C552   C886    1.529   .     S
C553   C586    1.416   .     A
C553   C893    1.529   .     S
C554   C900    1.530   .     S
C554   C585    1.417   .     A
C555   C907    1.530   .     S
C555   C588    1.416   .     A
C556   C587    1.416   .     A
C556   C914    1.530   .     S
C557   C589    1.411   .     A
C559   C1511   1.411   1_545 S
C560   C592    1.411   .     A
C562   C590    1.411   .     A
C563   C591    1.411   .     A
C564   C1512   1.411   1_545 S
C565   C593    1.411   .     A
C566   C1394   1.394   .     S
C566   C1514   1.411   .     S
C567   C595    1.411   .     A
C568   C136    1.411   1_655 S
C569   C1513   1.411   .     S
C570   C594    1.411   .     A
C571   C135    1.411   1_655 S
C572   C596    1.411   .     A
C589   C590    1.403   .     A
C589   C101    1.411   1_655 S
C590   C98     1.411   1_655 S
C591   C592    1.403   .     A
C591   C1479   1.411   .     S
C592   C1484   1.411   .     S
C593   C1489   1.411   1_545 S
C593   C594    1.403   1_556 S
C594   C1486   1.411   1_545 S
C594   C593    1.403   1_554 S
C595   C596    1.403   1_556 S
C596   C595    1.403   1_554 S
H626   C1394   1.084   .     S
O629   Zn1616  1.945   1_545 S
O629   Zn681   1.943   .     S
O629   Zn685   1.945   .     S
O629   Zn692   1.946   .     S
O630   Zn695   1.945   .     S
O630   Zn682   1.943   .     S
O630   Zn686   1.945   .     S
O630   Zn1611  1.946   1_545 S
O631   Zn690   1.943   .     S
O631   Zn683   1.946   .     S
O631   Zn687   1.945   .     S
O632   Zn688   1.945   .     S
O632   Zn693   1.945   .     S
O632   Zn684   1.946   .     S
O633   Zn696   1.951   .     S
O634   Zn695   1.951   .     S
O635   Zn690   1.951   .     S
O636   Zn689   1.951   .     S
O637   Zn692   1.950   .     S
O637   C1421   1.280   1_545 S
O638   Zn691   1.950   .     S
O638   C1422   1.280   .     S
O639   Zn694   1.950   .     S
O639   C43     1.279   1_655 S
O640   Zn693   1.950   .     S
O641   Zn688   1.951   .     S
O642   Zn687   1.951   .     S
O643   Zn682   1.951   .     S
O644   Zn681   1.951   .     S
O645   Zn684   1.950   .     S
O646   Zn683   1.950   .     S
O647   Zn686   1.950   .     S
O648   Zn685   1.950   .     S
O649   Zn692   1.931   .     S
O650   Zn691   1.931   .     S
O651   Zn694   1.931   .     S
O652   Zn693   1.931   .     S
O653   Zn696   1.932   .     S
O654   Zn695   1.932   .     S
O655   Zn690   1.931   .     S
O656   Zn689   1.931   .     S
O657   Zn691   1.931   .     S
O658   Zn692   1.931   .     S
O659   Zn689   1.932   .     S
O660   Zn690   1.932   .     S
O661   Zn695   1.930   .     S
O662   Zn696   1.930   .     S
O663   Zn693   1.932   .     S
O664   Zn694   1.932   .     S
O665   Zn224   1.931   1_655 S
O666   Zn683   1.931   .     S
O667   Zn1606  1.931   .     S
O668   Zn685   1.931   .     S
O669   Zn688   1.932   .     S
O670   Zn227   1.932   1_655 S
O671   Zn682   1.931   .     S
O672   Zn1601  1.931   .     S
O673   Zn223   1.931   1_655 S
O674   Zn684   1.931   .     S
O675   Zn681   1.932   .     S
O676   Zn1602  1.932   .     S
O677   Zn687   1.930   .     S
O678   Zn228   1.930   1_655 S
O679   Zn1605  1.932   .     S
O680   Zn686   1.932   .     S
Zn681  O1592   1.931   1_545 S
Zn682  O1596   1.932   1_545 S
Zn685  O1599   1.932   1_545 S
Zn686  O1587   1.931   1_545 S
Zn689  O172    1.943   1_655 S
Zn691  O1550   1.946   .     S
Zn694  O171    1.945   1_655 S
Zn696  O1549   1.945   .     S
C697   H702    1.107   .     S
C697   C698    1.529   .     S
C697   H703    1.108   .     S
C698   H700    1.110   .     S
C698   H701    1.109   .     S
C698   H699    1.109   .     S
C704   C705    1.527   .     S
C704   H709    1.109   .     S
C704   H710    1.106   .     S
C705   H706    1.110   .     S
C705   H708    1.110   .     S
C705   H707    1.110   .     S
C711   C712    1.528   .     S
C711   H716    1.109   .     S
C711   H717    1.108   .     S
C712   H713    1.109   .     S
C712   H715    1.110   .     S
C712   H714    1.109   .     S
C718   H724    1.106   .     S
C718   C719    1.525   .     S
C718   H723    1.108   .     S
C719   H721    1.110   .     S
C719   H722    1.110   .     S
C719   H720    1.110   .     S
C725   H730    1.110   .     S
C725   H731    1.110   .     S
C725   C726    1.533   .     S
C726   H728    1.110   .     S
C726   H729    1.108   .     S
C726   H727    1.107   .     S
C732   C733    1.530   .     S
C732   H738    1.108   .     S
C732   H737    1.109   .     S
C733   H736    1.108   .     S
C733   H735    1.110   .     S
C733   H734    1.110   .     S
C739   H745    1.106   .     S
C739   C740    1.528   .     S
C739   H744    1.109   .     S
C740   H741    1.108   .     S
C740   H743    1.103   .     S
C740   H742    1.110   .     S
C746   H751    1.107   .     S
C746   H752    1.106   .     S
C746   C747    1.526   .     S
C747   H748    1.110   .     S
C747   H750    1.110   .     S
C747   H749    1.110   .     S
C753   H758    1.109   .     S
C753   C754    1.529   .     S
C753   H759    1.108   .     S
C754   H756    1.109   .     S
C754   H755    1.109   .     S
C754   H757    1.111   .     S
C760   C761    1.534   .     S
C760   H765    1.110   .     S
C760   H766    1.103   .     S
C761   H762    1.110   .     S
C761   H764    1.111   .     S
C761   H763    1.108   .     S
C767   H772    1.107   .     S
C767   H773    1.107   .     S
C767   C768    1.527   .     S
C768   H771    1.110   .     S
C768   H770    1.110   .     S
C768   H769    1.110   .     S
C774   C775    1.522   .     S
C774   H779    1.107   .     S
C774   H780    1.103   .     S
C775   H778    1.110   .     S
C775   H776    1.111   .     S
C775   H777    1.108   .     S
C781   H787    1.107   .     S
C781   C782    1.529   .     S
C781   H786    1.109   .     S
C782   H784    1.109   .     S
C782   H785    1.110   .     S
C782   H783    1.109   .     S
C788   H793    1.109   .     S
C788   C789    1.527   .     S
C788   H794    1.106   .     S
C789   H791    1.110   .     S
C789   H790    1.110   .     S
C789   H792    1.110   .     S
C795   H800    1.108   .     S
C795   C796    1.529   .     S
C795   H801    1.108   .     S
C796   H797    1.109   .     S
C796   H799    1.110   .     S
C796   H798    1.109   .     S
C802   H807    1.108   .     S
C802   C803    1.526   .     S
C802   H808    1.106   .     S
C803   H805    1.110   .     S
C803   H804    1.110   .     S
C803   H806    1.110   .     S
C809   H815    1.108   .     S
C809   C810    1.529   .     S
C809   H814    1.109   .     S
C810   H811    1.109   .     S
C810   H813    1.110   .     S
C810   H812    1.109   .     S
C816   H821    1.109   .     S
C816   H822    1.106   .     S
C816   C817    1.527   .     S
C817   H818    1.110   .     S
C817   H820    1.110   .     S
C817   H819    1.110   .     S
C823   H828    1.110   .     S
C823   H829    1.108   .     S
C823   C824    1.529   .     S
C824   H825    1.109   .     S
C824   H827    1.110   .     S
C824   H826    1.109   .     S
C830   C831    1.528   .     S
C830   H835    1.109   .     S
C830   H836    1.106   .     S
C831   H834    1.110   .     S
C831   H832    1.109   .     S
C831   H833    1.110   .     S
C837   H842    1.108   .     S
C837   H843    1.107   .     S
C837   C838    1.528   .     S
C838   H839    1.110   .     S
C838   H840    1.110   .     S
C838   H841    1.110   .     S
C844   H849    1.107   .     S
C844   C845    1.527   .     S
C844   H850    1.105   .     S
C845   H847    1.109   .     S
C845   H846    1.110   .     S
C845   H848    1.111   .     S
C851   H857    1.104   .     S
C851   C852    1.523   .     S
C851   H856    1.107   .     S
C852   H854    1.109   .     S
C852   H853    1.110   .     S
C852   H855    1.109   .     S
C858   H864    1.105   .     S
C858   H863    1.108   .     S
C858   C859    1.528   .     S
C859   H861    1.110   .     S
C859   H860    1.110   .     S
C859   H862    1.110   .     S
C865   C866    1.530   .     S
C865   H871    1.109   .     S
C865   H870    1.109   .     S
C866   H868    1.109   .     S
C866   H867    1.109   .     S
C866   H869    1.110   .     S
C872   C873    1.528   .     S
C872   H878    1.102   .     S
C872   H877    1.109   .     S
C873   H875    1.108   .     S
C873   H874    1.111   .     S
C873   H876    1.110   .     S
C879   H885    1.109   .     S
C879   C880    1.530   .     S
C879   H884    1.110   .     S
C880   H881    1.109   .     S
C880   H883    1.110   .     S
C880   H882    1.108   .     S
C886   H891    1.110   .     S
C886   H892    1.107   .     S
C886   C887    1.528   .     S
C887   H888    1.110   .     S
C887   H889    1.110   .     S
C887   H890    1.110   .     S
C893   H898    1.109   .     S
C893   H899    1.108   .     S
C893   C894    1.529   .     S
C894   H895    1.109   .     S
C894   H896    1.109   .     S
C894   H897    1.110   .     S
C900   H905    1.108   .     S
C900   C901    1.527   .     S
C900   H906    1.106   .     S
C901   H904    1.110   .     S
C901   H903    1.110   .     S
C901   H902    1.110   .     S
C907   H912    1.109   .     S
C907   C908    1.529   .     S
C907   H913    1.108   .     S
C908   H909    1.109   .     S
C908   H911    1.110   .     S
C908   H910    1.109   .     S
C914   H919    1.109   .     S
C914   C915    1.528   .     S
C914   H920    1.106   .     S
C915   H917    1.109   .     S
C915   H916    1.110   .     S
C915   H918    1.110   .     S
C921   C1021   1.394   .     A
C921   C937    1.403   .     A
C921   H1073   1.084   .     S
C922   C1022   1.394   .     A
C922   H1074   1.084   .     S
C922   C938    1.403   .     A
C923   C939    1.403   .     A
C923   C1023   1.394   .     A
C923   H1075   1.084   .     S
C924   C1024   1.394   .     A
C924   C940    1.403   .     A
C924   H1076   1.084   .     S
C925   C1017   1.394   .     A
C925   H1077   1.084   .     S
C925   C1397   1.404   .     S
C926   H1078   1.084   .     S
C926   C1018   1.394   .     A
C926   C1398   1.403   1_455 S
C927   C1019   1.394   .     A
C927   H1079   1.084   .     S
C928   C1020   1.394   .     A
C928   H1080   1.084   .     S
C928   C20     1.404   1_565 S
C929   H1081   1.084   .     S
C929   C1029   1.394   .     A
C929   C21     1.403   1_565 S
C930   H1082   1.084   .     S
C930   C942    1.403   .     A
C930   C1030   1.394   .     A
C931   C943    1.404   .     A
C931   H1083   1.084   .     S
C931   C1031   1.394   .     A
C932   C944    1.403   .     A
C932   C1032   1.394   .     A
C932   H1084   1.084   .     S
C933   C941    1.404   .     A
C933   C1025   1.394   .     A
C933   H1085   1.084   .     S
C934   C942    1.404   .     A
C935   H1087   1.084   .     S
C935   C1027   1.394   .     A
C935   C1403   1.403   1_455 S
C936   H1088   1.084   .     S
C936   C1028   1.394   .     A
C936   C1404   1.404   .     S
C937   C963    1.463   .     S
C937   C1385   1.404   1_455 S
C938   C964    1.463   .     S
C938   C1386   1.403   .     S
C939   C961    1.463   .     S
C939   C7      1.404   1_565 S
C940   C962    1.463   .     S
C941   C967    1.463   .     S
C942   C968    1.463   .     S
C943   C965    1.463   .     S
C943   C1395   1.403   .     S
C944   C966    1.463   .     S
C944   C1396   1.404   1_455 S
C945   H1057   1.084   .     S
C945   C1017   1.402   .     A
C945   C950    1.395   .     A
C946   H1058   1.084   .     S
C946   C1018   1.402   .     A
C946   C949    1.395   .     A
C947   C1019   1.402   .     A
C947   H1059   1.084   .     S
C947   C952    1.395   .     A
C948   C951    1.395   .     A
C948   H1060   1.084   .     S
C948   C1020   1.402   .     A
C949   H1061   1.084   .     S
C949   C1021   1.402   .     A
C950   C1022   1.402   .     A
C950   H1062   1.084   .     S
C951   H1063   1.084   .     S
C951   C1023   1.402   .     A
C952   C1024   1.402   .     A
C952   H1064   1.084   .     S
C953   C1025   1.402   .     A
C953   H1065   1.084   .     S
C953   C958    1.395   1_556 S
C954   C1026   1.402   .     A
C954   H1066   1.084   .     S
C954   C957    1.395   1_554 S
C955   C1027   1.402   .     A
C955   H1067   1.084   .     S
C955   C960    1.395   1_556 S
C956   H1068   1.084   .     S
C956   C1028   1.402   .     A
C956   C959    1.395   1_554 S
C957   C1029   1.402   .     A
C957   H1069   1.084   .     S
C957   C954    1.395   1_556 S
C958   C1030   1.402   .     A
C958   H1070   1.084   .     S
C958   C953    1.395   1_554 S
C959   C1031   1.402   .     A
C959   H1071   1.084   .     S
C959   C956    1.395   1_556 S
C960   C1032   1.402   .     A
C960   H1072   1.084   .     S
C960   C955    1.395   1_554 S
C961   O1093   1.280   .     A
C961   O177    1.280   1_565 S
C962   O1094   1.280   .     A
C963   O1095   1.279   .     A
C963   O1559   1.279   1_455 S
C964   O1096   1.279   .     A
C964   O1560   1.279   .     S
C965   O1565   1.280   .     A
C965   O1561   1.280   .     S
C966   O1106   1.280   .     A
C966   O1102   1.280   .     S
C967   O1107   1.279   .     A
C967   O1103   1.279   .     A
C968   O1108   1.279   .     A
C968   O1104   1.279   .     A
C969   C1035   1.454   .     S
C969   O1135   1.277   .     A
C969   O1109   1.277   .     A
C970   O1136   1.277   .     A
C970   O1110   1.276   .     A
C970   C1036   1.451   .     S
C971   O1111   1.282   .     A
C971   C1037   1.457   .     S
C971   O1133   1.275   .     A
C972   O1134   1.278   .     A
C972   C1038   1.453   .     S
C972   O1112   1.277   .     A
C973   O1139   1.276   .     A
C973   O1113   1.278   .     A
C973   C1039   1.452   .     S
C974   O1114   1.273   .     A
C974   C1040   1.455   .     S
C974   O1140   1.283   .     A
C975   O1137   1.277   .     A
C975   O1115   1.277   .     A
C975   C1033   1.453   .     S
C976   O1138   1.277   .     A
C976   O1116   1.277   .     A
C976   C1034   1.453   .     S
C977   C1043   1.453   .     S
C977   O1117   1.278   .     A
C977   O1127   1.277   .     A
C978   O1128   1.276   .     A
C978   O1118   1.277   .     A
C978   C1044   1.450   .     S
C979   C1045   1.456   .     S
C979   O1125   1.278   .     A
C979   O1119   1.278   .     A
C980   O1120   1.277   .     A
C980   O1126   1.277   .     A
C980   C1046   1.454   .     S
C981   C1047   1.453   .     S
C981   O1131   1.277   .     A
C981   O1121   1.276   .     A
C982   O1132   1.276   .     A
C982   O1122   1.277   .     A
C982   C1048   1.453   .     S
C983   O1129   1.275   .     A
C983   O1123   1.280   .     A
C983   C1041   1.454   .     S
C984   O1124   1.277   .     A
C984   O1130   1.279   .     A
C984   C1042   1.456   .     S
C985   C1048   1.416   .     A
C985   C1000   1.412   .     A
C985   C1157   1.530   .     S
C986   C999    1.413   .     A
C986   C1164   1.530   .     S
C986   C1047   1.415   .     A
C987   C1046   1.415   .     A
C987   C998    1.413   .     A
C987   C1171   1.529   .     S
C988   C997    1.413   .     A
C988   C1045   1.417   .     A
C988   C1178   1.528   .     S
C989   C1185   1.532   .     S
C989   C996    1.412   .     A
C989   C1044   1.415   .     A
C990   C995    1.412   .     A
C990   C1043   1.415   .     A
C990   C1192   1.527   .     S
C991   C1042   1.420   .     A
C991   C1199   1.532   .     S
C991   C994    1.417   .     A
C992   C993    1.413   .     A
C992   C1041   1.417   .     A
C992   C1206   1.529   .     S
C993   C1040   1.417   .     A
C993   C1213   1.532   .     S
C994   C1220   1.538   .     S
C994   C1039   1.416   .     A
C995   C1038   1.413   .     A
C995   C1227   1.529   .     S
C996   C1234   1.532   .     S
C996   C1037   1.420   .     A
C997   C1241   1.531   .     S
C997   C1036   1.415   .     A
C998   C1035   1.416   .     A
C998   C1248   1.529   .     S
C999   C1255   1.529   .     S
C999   C1034   1.415   .     A
C1000  C1033   1.416   .     A
C1000  C1262   1.530   .     S
C1001  C1269   1.529   .     S
C1001  C1034   1.416   .     A
C1001  C1016   1.413   .     A
C1002  C1015   1.413   .     A
C1002  C1033   1.416   .     A
C1002  C1276   1.530   .     S
C1003  C1283   1.530   .     S
C1003  C1014   1.413   .     A
C1003  C1036   1.415   .     A
C1004  C1013   1.413   .     A
C1004  C1290   1.530   .     S
C1004  C1035   1.416   .     A
C1005  C1012   1.413   .     A
C1005  C1297   1.528   .     S
C1005  C1038   1.415   .     A
C1006  C1037   1.418   .     A
C1006  C1304   1.532   .     S
C1006  C1011   1.413   .     A
C1007  C1311   1.530   .     S
C1007  C1010   1.411   .     A
C1007  C1040   1.420   .     A
C1008  C1039   1.416   .     A
C1008  C1009   1.412   .     A
C1008  C1318   1.532   .     S
C1009  C1325   1.531   .     S
C1009  C1042   1.417   .     A
C1010  C1332   1.534   .     S
C1010  C1041   1.414   .     A
C1011  C1339   1.531   .     S
C1011  C1044   1.416   .     A
C1012  C1043   1.416   .     A
C1012  C1346   1.529   .     S
C1013  C1046   1.416   .     A
C1013  C1353   1.529   .     S
C1014  C1360   1.530   .     S
C1014  C1045   1.417   .     A
C1015  C1367   1.530   .     S
C1015  C1048   1.416   .     A
C1016  C1047   1.416   .     A
C1016  C1374   1.530   .     S
C1017  C1049   1.411   .     A
C1018  C1510   1.411   1_455 S
C1020  C1052   1.411   .     A
C1021  C1509   1.411   1_455 S
C1022  C1050   1.411   .     A
C1023  C1051   1.411   .     A
C1025  C1053   1.411   .     A
C1026  C14     1.394   1_565 S
C1026  C134    1.411   1_565 S
C1027  C1055   1.411   .     A
C1028  C1516   1.411   .     S
C1029  C133    1.411   1_565 S
C1030  C1054   1.411   .     A
C1031  C1515   1.411   .     S
C1032  C1056   1.411   .     A
C1049  C1050   1.403   .     A
C1049  C1481   1.411   .     S
C1050  C1478   1.411   .     S
C1051  C1052   1.403   .     A
C1051  C99     1.411   1_565 S
C1052  C104    1.411   1_565 S
C1053  C1054   1.403   1_556 S
C1054  C1053   1.403   1_554 S
C1055  C1491   1.411   1_455 S
C1055  C1056   1.403   1_556 S
C1056  C1488   1.411   1_455 S
C1056  C1055   1.403   1_554 S
H1086  C14     1.084   1_565 S
O1089  Zn1141  1.943   .     S
O1089  Zn1145  1.945   .     S
O1089  Zn1152  1.946   .     S
O1090  Zn1155  1.945   .     S
O1090  Zn1142  1.943   .     S
O1090  Zn1146  1.945   .     S
O1091  Zn1150  1.943   .     S
O1091  Zn1143  1.946   .     S
O1091  Zn1147  1.945   .     S
O1091  Zn1614  1.945   1_455 S
O1092  Zn1148  1.945   .     S
O1092  Zn1153  1.945   .     S
O1092  Zn1144  1.946   .     S
O1092  Zn1609  1.943   1_455 S
O1093  Zn1156  1.951   .     S
O1094  Zn1155  1.951   .     S
O1095  Zn1150  1.951   .     S
O1096  Zn1149  1.951   .     S
O1097  Zn1152  1.950   .     S
O1098  Zn1151  1.950   .     S
O1098  C42     1.280   1_565 S
O1099  Zn1154  1.950   .     S
O1099  C1423   1.279   .     S
O1100  Zn1153  1.950   .     S
O1100  C1424   1.279   1_455 S
O1101  Zn1148  1.951   .     S
O1101  C1425   1.280   1_455 S
O1102  Zn1147  1.951   .     S
O1103  Zn1142  1.951   .     S
O1104  Zn1141  1.951   .     S
O1105  C1425   1.280   1_455 A
O1105  Zn1144  1.950   .     S
O1106  Zn1143  1.950   .     S
O1107  Zn1146  1.950   .     S
O1108  Zn1145  1.950   .     S
O1109  Zn1152  1.931   .     S
O1110  Zn1151  1.931   .     S
O1111  Zn1154  1.931   .     S
O1112  Zn1153  1.931   .     S
O1113  Zn1156  1.932   .     S
O1114  Zn1155  1.932   .     S
O1115  Zn1150  1.931   .     S
O1116  Zn1149  1.931   .     S
O1117  Zn1151  1.931   .     S
O1118  Zn1152  1.931   .     S
O1119  Zn1149  1.932   .     S
O1120  Zn1150  1.932   .     S
O1121  Zn1155  1.930   .     S
O1122  Zn1156  1.930   .     S
O1123  Zn1153  1.932   .     S
O1124  Zn1154  1.932   .     S
O1125  Zn1604  1.931   .     S
O1126  Zn1143  1.931   .     S
O1127  Zn226   1.931   1_565 S
O1128  Zn1145  1.931   .     S
O1129  Zn1148  1.932   .     S
O1130  Zn1607  1.932   .     S
O1131  Zn1142  1.931   .     S
O1132  Zn221   1.931   1_565 S
O1133  Zn1603  1.931   .     S
O1134  Zn1144  1.931   .     S
O1135  Zn1141  1.932   .     S
O1136  Zn222   1.932   1_565 S
O1137  Zn1147  1.930   .     S
O1138  Zn1608  1.930   .     S
O1139  Zn225   1.932   1_565 S
O1140  Zn1146  1.932   .     S
Zn1143 O1593   1.931   1_455 S
Zn1144 O1585   1.931   1_455 S
Zn1147 O1590   1.932   1_455 S
Zn1148 O1598   1.930   1_455 S
Zn1149 O1552   1.943   .     S
Zn1151 O170    1.946   1_565 S
Zn1154 O1551   1.945   .     S
Zn1156 O169    1.945   1_565 S
C1157  H1162   1.107   .     S
C1157  C1158   1.529   .     S
C1157  H1163   1.108   .     S
C1158  H1160   1.110   .     S
C1158  H1161   1.109   .     S
C1158  H1159   1.109   .     S
C1164  C1165   1.527   .     S
C1164  H1169   1.109   .     S
C1164  H1170   1.106   .     S
C1165  H1166   1.110   .     S
C1165  H1168   1.110   .     S
C1165  H1167   1.110   .     S
C1171  C1172   1.528   .     S
C1171  H1176   1.109   .     S
C1171  H1177   1.108   .     S
C1172  H1173   1.109   .     S
C1172  H1175   1.110   .     S
C1172  H1174   1.109   .     S
C1178  H1184   1.106   .     S
C1178  C1179   1.525   .     S
C1178  H1183   1.108   .     S
C1179  H1181   1.110   .     S
C1179  H1182   1.110   .     S
C1179  H1180   1.110   .     S
C1185  H1190   1.110   .     S
C1185  H1191   1.110   .     S
C1185  C1186   1.533   .     S
C1186  H1188   1.110   .     S
C1186  H1189   1.108   .     S
C1186  H1187   1.107   .     S
C1192  C1193   1.530   .     S
C1192  H1198   1.108   .     S
C1192  H1197   1.109   .     S
C1193  H1196   1.108   .     S
C1193  H1195   1.110   .     S
C1193  H1194   1.110   .     S
C1199  H1205   1.106   .     S
C1199  C1200   1.528   .     S
C1199  H1204   1.109   .     S
C1200  H1201   1.108   .     S
C1200  H1203   1.103   .     S
C1200  H1202   1.110   .     S
C1206  H1211   1.107   .     S
C1206  H1212   1.106   .     S
C1206  C1207   1.526   .     S
C1207  H1208   1.110   .     S
C1207  H1210   1.110   .     S
C1207  H1209   1.110   .     S
C1213  H1218   1.109   .     S
C1213  C1214   1.529   .     S
C1213  H1219   1.108   .     S
C1214  H1216   1.109   .     S
C1214  H1215   1.109   .     S
C1214  H1217   1.111   .     S
C1220  C1221   1.534   .     S
C1220  H1225   1.110   .     S
C1220  H1226   1.103   .     S
C1221  H1222   1.110   .     S
C1221  H1224   1.111   .     S
C1221  H1223   1.108   .     S
C1227  H1232   1.107   .     S
C1227  H1233   1.107   .     S
C1227  C1228   1.527   .     S
C1228  H1231   1.110   .     S
C1228  H1230   1.110   .     S
C1228  H1229   1.110   .     S
C1234  C1235   1.522   .     S
C1234  H1239   1.107   .     S
C1234  H1240   1.103   .     S
C1235  H1238   1.110   .     S
C1235  H1236   1.111   .     S
C1235  H1237   1.108   .     S
C1241  H1247   1.107   .     S
C1241  C1242   1.529   .     S
C1241  H1246   1.109   .     S
C1242  H1244   1.109   .     S
C1242  H1245   1.110   .     S
C1242  H1243   1.109   .     S
C1248  H1253   1.109   .     S
C1248  C1249   1.527   .     S
C1248  H1254   1.106   .     S
C1249  H1251   1.110   .     S
C1249  H1250   1.110   .     S
C1249  H1252   1.110   .     S
C1255  H1260   1.108   .     S
C1255  C1256   1.529   .     S
C1255  H1261   1.108   .     S
C1256  H1257   1.109   .     S
C1256  H1259   1.110   .     S
C1256  H1258   1.109   .     S
C1262  H1267   1.108   .     S
C1262  C1263   1.526   .     S
C1262  H1268   1.106   .     S
C1263  H1265   1.110   .     S
C1263  H1264   1.110   .     S
C1263  H1266   1.110   .     S
C1269  H1275   1.108   .     S
C1269  C1270   1.529   .     S
C1269  H1274   1.109   .     S
C1270  H1271   1.109   .     S
C1270  H1273   1.110   .     S
C1270  H1272   1.109   .     S
C1276  H1281   1.109   .     S
C1276  H1282   1.106   .     S
C1276  C1277   1.527   .     S
C1277  H1278   1.110   .     S
C1277  H1280   1.110   .     S
C1277  H1279   1.110   .     S
C1283  H1288   1.110   .     S
C1283  H1289   1.108   .     S
C1283  C1284   1.529   .     S
C1284  H1285   1.109   .     S
C1284  H1287   1.110   .     S
C1284  H1286   1.109   .     S
C1290  C1291   1.528   .     S
C1290  H1295   1.109   .     S
C1290  H1296   1.106   .     S
C1291  H1294   1.110   .     S
C1291  H1292   1.109   .     S
C1291  H1293   1.110   .     S
C1297  H1302   1.108   .     S
C1297  H1303   1.107   .     S
C1297  C1298   1.528   .     S
C1298  H1299   1.110   .     S
C1298  H1300   1.110   .     S
C1298  H1301   1.110   .     S
C1304  H1309   1.107   .     S
C1304  C1305   1.527   .     S
C1304  H1310   1.105   .     S
C1305  H1307   1.109   .     S
C1305  H1306   1.110   .     S
C1305  H1308   1.111   .     S
C1311  H1317   1.104   .     S
C1311  C1312   1.523   .     S
C1311  H1316   1.107   .     S
C1312  H1314   1.109   .     S
C1312  H1313   1.110   .     S
C1312  H1315   1.109   .     S
C1318  H1324   1.105   .     S
C1318  H1323   1.108   .     S
C1318  C1319   1.528   .     S
C1319  H1321   1.110   .     S
C1319  H1320   1.110   .     S
C1319  H1322   1.110   .     S
C1325  C1326   1.530   .     S
C1325  H1331   1.109   .     S
C1325  H1330   1.109   .     S
C1326  H1328   1.109   .     S
C1326  H1327   1.109   .     S
C1326  H1329   1.110   .     S
C1332  C1333   1.528   .     S
C1332  H1338   1.102   .     S
C1332  H1337   1.109   .     S
C1333  H1335   1.108   .     S
C1333  H1334   1.111   .     S
C1333  H1336   1.110   .     S
C1339  H1345   1.109   .     S
C1339  C1340   1.530   .     S
C1339  H1344   1.110   .     S
C1340  H1341   1.109   .     S
C1340  H1343   1.110   .     S
C1340  H1342   1.108   .     S
C1346  H1351   1.110   .     S
C1346  H1352   1.107   .     S
C1346  C1347   1.528   .     S
C1347  H1348   1.110   .     S
C1347  H1349   1.110   .     S
C1347  H1350   1.110   .     S
C1353  H1358   1.109   .     S
C1353  H1359   1.108   .     S
C1353  C1354   1.529   .     S
C1354  H1355   1.109   .     S
C1354  H1356   1.109   .     S
C1354  H1357   1.110   .     S
C1360  H1365   1.108   .     S
C1360  C1361   1.527   .     S
C1360  H1366   1.106   .     S
C1361  H1364   1.110   .     S
C1361  H1363   1.110   .     S
C1361  H1362   1.110   .     S
C1367  H1372   1.109   .     S
C1367  C1368   1.529   .     S
C1367  H1373   1.108   .     S
C1368  H1369   1.109   .     S
C1368  H1371   1.110   .     S
C1368  H1370   1.109   .     S
C1374  H1379   1.109   .     S
C1374  C1375   1.528   .     S
C1374  H1380   1.106   .     S
C1375  H1377   1.109   .     S
C1375  H1376   1.110   .     S
C1375  H1378   1.110   .     S
C1381  C1481   1.394   .     A
C1381  C1397   1.403   .     A
C1381  H1533   1.084   .     S
C1382  C1482   1.394   .     A
C1382  H1534   1.084   .     S
C1382  C1398   1.403   .     A
C1383  C1399   1.403   .     A
C1383  C1483   1.394   .     A
C1383  H1535   1.084   .     S
C1384  C1484   1.394   .     A
C1384  C1400   1.403   .     A
C1384  H1536   1.084   .     S
C1385  C1477   1.394   .     A
C1385  H1537   1.084   .     S
C1385  C937    1.404   1_655 S
C1386  H1538   1.084   .     S
C1386  C1478   1.394   .     A
C1387  C1479   1.394   .     A
C1387  H1539   1.084   .     S
C1388  C1480   1.394   .     A
C1388  H1540   1.084   .     S
C1388  C480    1.404   1_565 S
C1389  H1541   1.084   .     S
C1389  C1489   1.394   .     A
C1389  C481    1.403   1_565 S
C1390  H1542   1.084   .     S
C1390  C1402   1.403   .     A
C1390  C1490   1.394   .     A
C1391  C1403   1.404   .     A
C1391  H1543   1.084   .     S
C1391  C1491   1.394   .     A
C1392  C1404   1.403   .     A
C1392  C1492   1.394   .     A
C1392  H1544   1.084   .     S
C1393  C1401   1.404   .     A
C1393  C1485   1.394   .     A
C1393  H1545   1.084   .     S
C1394  C1402   1.404   .     A
C1395  H1547   1.084   .     S
C1395  C1487   1.394   .     A
C1396  H1548   1.084   .     S
C1396  C1488   1.394   .     A
C1396  C944    1.404   1_655 S
C1397  C1423   1.463   .     S
C1398  C1424   1.463   .     S
C1398  C926    1.403   1_655 S
C1399  C1421   1.463   .     S
C1399  C467    1.404   1_565 S
C1400  C1422   1.463   .     S
C1401  C1427   1.463   .     S
C1402  C1428   1.463   .     S
C1403  C1425   1.463   .     S
C1403  C935    1.403   1_655 S
C1404  C1426   1.463   .     S
C1405  H1517   1.084   .     S
C1405  C1477   1.402   .     A
C1405  C1410   1.395   .     A
C1406  H1518   1.084   .     S
C1406  C1478   1.402   .     A
C1406  C1409   1.395   .     A
C1407  C1479   1.402   .     A
C1407  H1519   1.084   .     S
C1407  C1412   1.395   .     A
C1408  C1411   1.395   .     A
C1408  H1520   1.084   .     S
C1408  C1480   1.402   .     A
C1409  H1521   1.084   .     S
C1409  C1481   1.402   .     A
C1410  C1482   1.402   .     A
C1410  H1522   1.084   .     S
C1411  H1523   1.084   .     S
C1411  C1483   1.402   .     A
C1412  C1484   1.402   .     A
C1412  H1524   1.084   .     S
C1413  C1485   1.402   .     A
C1413  H1525   1.084   .     S
C1413  C1418   1.395   1_556 S
C1414  C1486   1.402   .     A
C1414  H1526   1.084   .     S
C1414  C1417   1.395   1_554 S
C1415  C1487   1.402   .     A
C1415  H1527   1.084   .     S
C1415  C1420   1.395   1_556 S
C1416  H1528   1.084   .     S
C1416  C1488   1.402   .     A
C1416  C1419   1.395   1_554 S
C1417  C1489   1.402   .     A
C1417  H1529   1.084   .     S
C1417  C1414   1.395   1_556 S
C1418  C1490   1.402   .     A
C1418  H1530   1.084   .     S
C1418  C1413   1.395   1_554 S
C1419  C1491   1.402   .     A
C1419  H1531   1.084   .     S
C1419  C1416   1.395   1_556 S
C1420  C1492   1.402   .     A
C1420  H1532   1.084   .     S
C1420  C1415   1.395   1_554 S
C1421  O1553   1.280   .     A
C1421  O637    1.280   1_565 S
C1422  O1554   1.280   .     A
C1423  O1555   1.279   .     A
C1424  O1556   1.279   .     A
C1424  O1100   1.279   1_655 S
C1425  O1105   1.280   1_655 A
C1425  O1101   1.280   1_655 S
C1426  O1566   1.280   .     A
C1426  O1562   1.280   .     S
C1427  O1567   1.279   .     A
C1427  O1563   1.279   .     A
C1428  O1568   1.279   .     A
C1428  O1564   1.279   .     A
C1429  C1495   1.454   .     S
C1429  O1595   1.277   .     A
C1429  O1569   1.277   .     A
C1430  O1596   1.277   .     A
C1430  O1570   1.276   .     A
C1430  C1496   1.451   .     S
C1431  O1571   1.282   .     A
C1431  C1497   1.457   .     S
C1431  O1593   1.275   .     A
C1432  O1594   1.278   .     A
C1432  C1498   1.453   .     S
C1432  O1572   1.277   .     A
C1433  O1599   1.276   .     A
C1433  O1573   1.278   .     A
C1433  C1499   1.452   .     S
C1434  O1574   1.273   .     A
C1434  C1500   1.455   .     S
C1434  O1600   1.283   .     A
C1435  O1597   1.277   .     A
C1435  O1575   1.277   .     A
C1435  C1493   1.453   .     S
C1436  O1598   1.277   .     A
C1436  O1576   1.277   .     A
C1436  C1494   1.453   .     S
C1437  C1503   1.453   .     S
C1437  O1577   1.278   .     A
C1437  O1587   1.277   .     A
C1438  O1588   1.276   .     A
C1438  O1578   1.277   .     A
C1438  C1504   1.450   .     S
C1439  C1505   1.456   .     S
C1439  O1585   1.278   .     A
C1439  O1579   1.278   .     A
C1440  O1580   1.277   .     A
C1440  O1586   1.277   .     A
C1440  C1506   1.454   .     S
C1441  C1507   1.453   .     S
C1441  O1591   1.277   .     A
C1441  O1581   1.276   .     A
C1442  O1592   1.276   .     A
C1442  O1582   1.277   .     A
C1442  C1508   1.453   .     S
C1443  O1589   1.275   .     A
C1443  O1583   1.280   .     A
C1443  C1501   1.454   .     S
C1444  O1584   1.277   .     A
C1444  O1590   1.279   .     A
C1444  C1502   1.456   .     S
C1445  C1508   1.416   .     A
C1445  C1460   1.412   .     A
C1445  C1617   1.530   .     S
C1446  C1459   1.413   .     A
C1446  C1624   1.530   .     S
C1446  C1507   1.415   .     A
C1447  C1506   1.415   .     A
C1447  C1458   1.413   .     A
C1447  C1631   1.529   .     S
C1448  C1457   1.413   .     A
C1448  C1505   1.417   .     A
C1448  C1638   1.528   .     S
C1449  C1645   1.532   .     S
C1449  C1456   1.412   .     A
C1449  C1504   1.415   .     A
C1450  C1455   1.412   .     A
C1450  C1503   1.415   .     A
C1450  C1652   1.527   .     S
C1451  C1502   1.420   .     A
C1451  C1659   1.532   .     S
C1451  C1454   1.417   .     A
C1452  C1453   1.413   .     A
C1452  C1501   1.417   .     A
C1452  C1666   1.529   .     S
C1453  C1500   1.417   .     A
C1453  C1673   1.532   .     S
C1454  C1680   1.538   .     S
C1454  C1499   1.416   .     A
C1455  C1498   1.413   .     A
C1455  C1687   1.529   .     S
C1456  C1694   1.532   .     S
C1456  C1497   1.420   .     A
C1457  C1701   1.531   .     S
C1457  C1496   1.415   .     A
C1458  C1495   1.416   .     A
C1458  C1708   1.529   .     S
C1459  C1715   1.529   .     S
C1459  C1494   1.415   .     A
C1460  C1493   1.416   .     A
C1460  C1722   1.530   .     S
C1461  C1729   1.529   .     S
C1461  C1494   1.416   .     A
C1461  C1476   1.413   .     A
C1462  C1475   1.413   .     A
C1462  C1493   1.416   .     A
C1462  C1736   1.530   .     S
C1463  C1743   1.530   .     S
C1463  C1474   1.413   .     A
C1463  C1496   1.415   .     A
C1464  C1473   1.413   .     A
C1464  C1750   1.530   .     S
C1464  C1495   1.416   .     A
C1465  C1472   1.413   .     A
C1465  C1757   1.528   .     S
C1465  C1498   1.415   .     A
C1466  C1497   1.418   .     A
C1466  C1764   1.532   .     S
C1466  C1471   1.413   .     A
C1467  C1771   1.530   .     S
C1467  C1470   1.411   .     A
C1467  C1500   1.420   .     A
C1468  C1499   1.416   .     A
C1468  C1469   1.412   .     A
C1468  C1778   1.532   .     S
C1469  C1785   1.531   .     S
C1469  C1502   1.417   .     A
C1470  C1792   1.534   .     S
C1470  C1501   1.414   .     A
C1471  C1799   1.531   .     S
C1471  C1504   1.416   .     A
C1472  C1503   1.416   .     A
C1472  C1806   1.529   .     S
C1473  C1506   1.416   .     A
C1473  C1813   1.529   .     S
C1474  C1820   1.530   .     S
C1474  C1505   1.417   .     A
C1475  C1827   1.530   .     S
C1475  C1508   1.416   .     A
C1476  C1507   1.416   .     A
C1476  C1834   1.530   .     S
C1477  C1509   1.411   .     A
C1480  C1512   1.411   .     A
C1482  C1510   1.411   .     A
C1483  C1511   1.411   .     A
C1485  C1513   1.411   .     A
C1486  C474    1.394   1_565 S
C1486  C594    1.411   1_565 S
C1487  C1515   1.411   .     A
C1488  C1056   1.411   1_655 S
C1489  C593    1.411   1_565 S
C1490  C1514   1.411   .     A
C1491  C1055   1.411   1_655 S
C1492  C1516   1.411   .     A
C1509  C1510   1.403   .     A
C1509  C1021   1.411   1_655 S
C1510  C1018   1.411   1_655 S
C1511  C1512   1.403   .     A
C1511  C559    1.411   1_565 S
C1512  C564    1.411   1_565 S
C1513  C1514   1.403   1_556 S
C1514  C1513   1.403   1_554 S
C1515  C1516   1.403   1_556 S
C1516  C1515   1.403   1_554 S
H1546  C474    1.084   1_565 S
O1549  Zn1601  1.943   .     S
O1549  Zn1605  1.945   .     S
O1549  Zn1612  1.946   .     S
O1550  Zn1615  1.945   .     S
O1550  Zn1602  1.943   .     S
O1550  Zn1606  1.945   .     S
O1551  Zn1610  1.943   .     S
O1551  Zn1603  1.946   .     S
O1551  Zn1607  1.945   .     S
O1552  Zn1608  1.945   .     S
O1552  Zn1613  1.945   .     S
O1552  Zn1604  1.946   .     S
O1553  Zn1616  1.951   .     S
O1554  Zn1615  1.951   .     S
O1555  Zn1610  1.951   .     S
O1556  Zn1609  1.951   .     S
O1557  Zn1612  1.950   .     S
O1558  Zn1611  1.950   .     S
O1558  C502    1.280   1_565 S
O1559  Zn1614  1.950   .     S
O1559  C963    1.279   1_655 S
O1560  Zn1613  1.950   .     S
O1561  Zn1608  1.951   .     S
O1562  Zn1607  1.951   .     S
O1563  Zn1602  1.951   .     S
O1564  Zn1601  1.951   .     S
O1565  Zn1604  1.950   .     S
O1566  Zn1603  1.950   .     S
O1567  Zn1606  1.950   .     S
O1568  Zn1605  1.950   .     S
O1569  Zn1612  1.931   .     S
O1570  Zn1611  1.931   .     S
O1571  Zn1614  1.931   .     S
O1572  Zn1613  1.931   .     S
O1573  Zn1616  1.932   .     S
O1574  Zn1615  1.932   .     S
O1575  Zn1610  1.931   .     S
O1576  Zn1609  1.931   .     S
O1577  Zn1611  1.931   .     S
O1578  Zn1612  1.931   .     S
O1579  Zn1609  1.932   .     S
O1580  Zn1610  1.932   .     S
O1581  Zn1615  1.930   .     S
O1582  Zn1616  1.930   .     S
O1583  Zn1613  1.932   .     S
O1584  Zn1614  1.932   .     S
O1585  Zn1144  1.931   1_655 S
O1586  Zn1603  1.931   .     S
O1587  Zn686   1.931   1_565 S
O1588  Zn1605  1.931   .     S
O1589  Zn1608  1.932   .     S
O1590  Zn1147  1.932   1_655 S
O1591  Zn1602  1.931   .     S
O1592  Zn681   1.931   1_565 S
O1593  Zn1143  1.931   1_655 S
O1594  Zn1604  1.931   .     S
O1595  Zn1601  1.932   .     S
O1596  Zn682   1.932   1_565 S
O1597  Zn1607  1.930   .     S
O1598  Zn1148  1.930   1_655 S
O1599  Zn685   1.932   1_565 S
O1600  Zn1606  1.932   .     S
Zn1609 O1092   1.943   1_655 S
Zn1611 O630    1.946   1_565 S
Zn1614 O1091   1.945   1_655 S
Zn1616 O629    1.945   1_565 S
C1617  H1622   1.107   .     S
C1617  C1618   1.529   .     S
C1617  H1623   1.108   .     S
C1618  H1620   1.110   .     S
C1618  H1621   1.109   .     S
C1618  H1619   1.109   .     S
C1624  C1625   1.527   .     S
C1624  H1629   1.109   .     S
C1624  H1630   1.106   .     S
C1625  H1626   1.110   .     S
C1625  H1628   1.110   .     S
C1625  H1627   1.110   .     S
C1631  C1632   1.528   .     S
C1631  H1636   1.109   .     S
C1631  H1637   1.108   .     S
C1632  H1633   1.109   .     S
C1632  H1635   1.110   .     S
C1632  H1634   1.109   .     S
C1638  H1644   1.106   .     S
C1638  C1639   1.525   .     S
C1638  H1643   1.108   .     S
C1639  H1641   1.110   .     S
C1639  H1642   1.110   .     S
C1639  H1640   1.110   .     S
C1645  H1650   1.110   .     S
C1645  H1651   1.110   .     S
C1645  C1646   1.533   .     S
C1646  H1648   1.110   .     S
C1646  H1649   1.108   .     S
C1646  H1647   1.107   .     S
C1652  C1653   1.530   .     S
C1652  H1658   1.108   .     S
C1652  H1657   1.109   .     S
C1653  H1656   1.108   .     S
C1653  H1655   1.110   .     S
C1653  H1654   1.110   .     S
C1659  H1665   1.106   .     S
C1659  C1660   1.528   .     S
C1659  H1664   1.109   .     S
C1660  H1661   1.108   .     S
C1660  H1663   1.103   .     S
C1660  H1662   1.110   .     S
C1666  H1671   1.107   .     S
C1666  H1672   1.106   .     S
C1666  C1667   1.526   .     S
C1667  H1668   1.110   .     S
C1667  H1670   1.110   .     S
C1667  H1669   1.110   .     S
C1673  H1678   1.109   .     S
C1673  C1674   1.529   .     S
C1673  H1679   1.108   .     S
C1674  H1676   1.109   .     S
C1674  H1675   1.109   .     S
C1674  H1677   1.111   .     S
C1680  C1681   1.534   .     S
C1680  H1685   1.110   .     S
C1680  H1686   1.103   .     S
C1681  H1682   1.110   .     S
C1681  H1684   1.111   .     S
C1681  H1683   1.108   .     S
C1687  H1692   1.107   .     S
C1687  H1693   1.107   .     S
C1687  C1688   1.527   .     S
C1688  H1691   1.110   .     S
C1688  H1690   1.110   .     S
C1688  H1689   1.110   .     S
C1694  C1695   1.522   .     S
C1694  H1699   1.107   .     S
C1694  H1700   1.103   .     S
C1695  H1698   1.110   .     S
C1695  H1696   1.111   .     S
C1695  H1697   1.108   .     S
C1701  H1707   1.107   .     S
C1701  C1702   1.529   .     S
C1701  H1706   1.109   .     S
C1702  H1704   1.109   .     S
C1702  H1705   1.110   .     S
C1702  H1703   1.109   .     S
C1708  H1713   1.109   .     S
C1708  C1709   1.527   .     S
C1708  H1714   1.106   .     S
C1709  H1711   1.110   .     S
C1709  H1710   1.110   .     S
C1709  H1712   1.110   .     S
C1715  H1720   1.108   .     S
C1715  C1716   1.529   .     S
C1715  H1721   1.108   .     S
C1716  H1717   1.109   .     S
C1716  H1719   1.110   .     S
C1716  H1718   1.109   .     S
C1722  H1727   1.108   .     S
C1722  C1723   1.526   .     S
C1722  H1728   1.106   .     S
C1723  H1725   1.110   .     S
C1723  H1724   1.110   .     S
C1723  H1726   1.110   .     S
C1729  H1735   1.108   .     S
C1729  C1730   1.529   .     S
C1729  H1734   1.109   .     S
C1730  H1731   1.109   .     S
C1730  H1733   1.110   .     S
C1730  H1732   1.109   .     S
C1736  H1741   1.109   .     S
C1736  H1742   1.106   .     S
C1736  C1737   1.527   .     S
C1737  H1738   1.110   .     S
C1737  H1740   1.110   .     S
C1737  H1739   1.110   .     S
C1743  H1748   1.110   .     S
C1743  H1749   1.108   .     S
C1743  C1744   1.529   .     S
C1744  H1745   1.109   .     S
C1744  H1747   1.110   .     S
C1744  H1746   1.109   .     S
C1750  C1751   1.528   .     S
C1750  H1755   1.109   .     S
C1750  H1756   1.106   .     S
C1751  H1754   1.110   .     S
C1751  H1752   1.109   .     S
C1751  H1753   1.110   .     S
C1757  H1762   1.108   .     S
C1757  H1763   1.107   .     S
C1757  C1758   1.528   .     S
C1758  H1759   1.110   .     S
C1758  H1760   1.110   .     S
C1758  H1761   1.110   .     S
C1764  H1769   1.107   .     S
C1764  C1765   1.527   .     S
C1764  H1770   1.105   .     S
C1765  H1767   1.109   .     S
C1765  H1766   1.110   .     S
C1765  H1768   1.111   .     S
C1771  H1777   1.104   .     S
C1771  C1772   1.523   .     S
C1771  H1776   1.107   .     S
C1772  H1774   1.109   .     S
C1772  H1773   1.110   .     S
C1772  H1775   1.109   .     S
C1778  H1784   1.105   .     S
C1778  H1783   1.108   .     S
C1778  C1779   1.528   .     S
C1779  H1781   1.110   .     S
C1779  H1780   1.110   .     S
C1779  H1782   1.110   .     S
C1785  C1786   1.530   .     S
C1785  H1791   1.109   .     S
C1785  H1790   1.109   .     S
C1786  H1788   1.109   .     S
C1786  H1787   1.109   .     S
C1786  H1789   1.110   .     S
C1792  C1793   1.528   .     S
C1792  H1798   1.102   .     S
C1792  H1797   1.109   .     S
C1793  H1795   1.108   .     S
C1793  H1794   1.111   .     S
C1793  H1796   1.110   .     S
C1799  H1805   1.109   .     S
C1799  C1800   1.530   .     S
C1799  H1804   1.110   .     S
C1800  H1801   1.109   .     S
C1800  H1803   1.110   .     S
C1800  H1802   1.108   .     S
C1806  H1811   1.110   .     S
C1806  H1812   1.107   .     S
C1806  C1807   1.528   .     S
C1807  H1808   1.110   .     S
C1807  H1809   1.110   .     S
C1807  H1810   1.110   .     S
C1813  H1818   1.109   .     S
C1813  H1819   1.108   .     S
C1813  C1814   1.529   .     S
C1814  H1815   1.109   .     S
C1814  H1816   1.109   .     S
C1814  H1817   1.110   .     S
C1820  H1825   1.108   .     S
C1820  C1821   1.527   .     S
C1820  H1826   1.106   .     S
C1821  H1824   1.110   .     S
C1821  H1823   1.110   .     S
C1821  H1822   1.110   .     S
C1827  H1832   1.109   .     S
C1827  C1828   1.529   .     S
C1827  H1833   1.108   .     S
C1828  H1829   1.109   .     S
C1828  H1831   1.110   .     S
C1828  H1830   1.109   .     S
C1834  H1839   1.109   .     S
C1834  C1835   1.528   .     S
C1834  H1840   1.106   .     S
C1835  H1837   1.109   .     S
C1835  H1836   1.110   .     S
C1835  H1838   1.110   .     S
