data_str_m3_o5_o17_pcu_sym.39
_audit_creation_date              2020-01-03
_audit_creation_method            'Materials Studio'
_symmetry_space_group_name_H-M    'P1'
_symmetry_Int_Tables_number       1
_symmetry_cell_setting            triclinic
loop_
_symmetry_equiv_pos_as_xyz
  x,y,z
_cell_length_a                    29.9259
_cell_length_b                    26.8887
_cell_length_c                    24.3503
_cell_angle_alpha                 90.0613
_cell_angle_beta                  90.0011
_cell_angle_gamma                 89.9881
loop_
_atom_site_label
_atom_site_type_symbol
_atom_site_fract_x
_atom_site_fract_y
_atom_site_fract_z
_atom_site_U_iso_or_equiv
_atom_site_adp_type
_atom_site_occupancy
O1     O     0.25000   0.09512   0.21228   0.00000  Uiso   1.00
O2     O     0.25000   0.23822   0.12105   0.00000  Uiso   1.00
O3     O     0.25000   0.23822   0.21228   0.00000  Uiso   1.00
O4     O     0.25000   0.09512   0.12105   0.00000  Uiso   1.00
H5     H     0.45990   0.04137   0.15071   0.00000  Uiso   1.00
H6     H     0.04007   0.29198   0.18285   0.00000  Uiso   1.00
H7     H     0.45980   0.29195   0.18285   0.00000  Uiso   1.00
H8     H     0.04019   0.04139   0.15076   0.00000  Uiso   1.00
C9     C     0.25001   0.07266   0.16665   0.00000  Uiso   1.00
C10    C     0.25002   0.26067   0.16668   0.00000  Uiso   1.00
O11    O     0.18392   0.16667   0.21230   0.00000  Uiso   1.00
O12    O     0.31607   0.16667   0.12104   0.00000  Uiso   1.00
O13    O     0.31607   0.16667   0.21230   0.00000  Uiso   1.00
O14    O     0.18392   0.16667   0.12104   0.00000  Uiso   1.00
C15    C     0.16341   0.16670   0.16667   0.00000  Uiso   1.00
C16    C     0.33658   0.16665   0.16667   0.00000  Uiso   1.00
Zn17   Zn    0.25000   0.16667   0.22759   0.00000  Uiso   1.00
Zn18   Zn    0.25000   0.16667   0.10574   0.00000  Uiso   1.00
N19    N     0.25000   0.16667   0.02455   0.00000  Uiso   1.00
N20    N     0.25000   0.16667   0.30879   0.00000  Uiso   1.00
C21    C     0.40660   0.21214   0.16987   0.00000  Uiso   1.00
C22    C     0.09339   0.12121   0.16363   0.00000  Uiso   1.00
C23    C     0.40663   0.12117   0.16353   0.00000  Uiso   1.00
C24    C     0.09336   0.21220   0.16974   0.00000  Uiso   1.00
C25    C     0.38413   0.16666   0.16668   0.00000  Uiso   1.00
C26    C     0.11586   0.16671   0.16668   0.00000  Uiso   1.00
C27    C     0.45323   0.12106   0.16252   0.00000  Uiso   1.00
C28    C     0.04675   0.21230   0.17088   0.00000  Uiso   1.00
C29    C     0.45320   0.21227   0.17094   0.00000  Uiso   1.00
C30    C     0.04679   0.12108   0.16257   0.00000  Uiso   1.00
C31    C     0.47658   0.16667   0.16674   0.00000  Uiso   1.00
C32    C     0.02341   0.16668   0.16673   0.00000  Uiso   1.00
C33    C     0.47691   0.07645   0.15635   0.00000  Uiso   1.00
C34    C     0.02307   0.25690   0.17715   0.00000  Uiso   1.00
C35    C     0.47684   0.25688   0.17718   0.00000  Uiso   1.00
C36    C     0.02314   0.07647   0.15638   0.00000  Uiso   1.00
C37    C     0.25001   0.02171   0.16665   0.00000  Uiso   1.00
C38    C     0.25002   0.31162   0.16669   0.00000  Uiso   1.00
N39    N     0.38191   0.25793   0.17074   0.00000  Uiso   1.00
O40    O     0.38378   0.28792   0.12893   0.00000  Uiso   1.00
O41    O     0.35586   0.26843   0.21193   0.00000  Uiso   1.00
N42    N     0.11808   0.07542   0.16287   0.00000  Uiso   1.00
O43    O     0.11611   0.04544   0.20469   0.00000  Uiso   1.00
O44    O     0.14420   0.06489   0.12177   0.00000  Uiso   1.00
N45    N     0.38197   0.07538   0.16264   0.00000  Uiso   1.00
O46    O     0.35593   0.06489   0.12145   0.00000  Uiso   1.00
O47    O     0.38383   0.04539   0.20446   0.00000  Uiso   1.00
N48    N     0.11801   0.25803   0.17030   0.00000  Uiso   1.00
O49    O     0.14468   0.26839   0.21093   0.00000  Uiso   1.00
O50    O     0.11540   0.28825   0.12872   0.00000  Uiso   1.00
O51    O     0.75000   0.09512   0.21228   0.00000  Uiso   1.00
O52    O     0.75000   0.23822   0.12105   0.00000  Uiso   1.00
O53    O     0.75000   0.23822   0.21228   0.00000  Uiso   1.00
O54    O     0.75000   0.09512   0.12105   0.00000  Uiso   1.00
H55    H     0.95990   0.04137   0.15071   0.00000  Uiso   1.00
H56    H     0.54007   0.29198   0.18285   0.00000  Uiso   1.00
H57    H     0.95980   0.29195   0.18285   0.00000  Uiso   1.00
H58    H     0.54019   0.04139   0.15076   0.00000  Uiso   1.00
C59    C     0.75001   0.07266   0.16665   0.00000  Uiso   1.00
C60    C     0.75002   0.26067   0.16668   0.00000  Uiso   1.00
O61    O     0.68392   0.16667   0.21230   0.00000  Uiso   1.00
O62    O     0.81607   0.16667   0.12104   0.00000  Uiso   1.00
O63    O     0.81607   0.16667   0.21230   0.00000  Uiso   1.00
O64    O     0.68392   0.16667   0.12104   0.00000  Uiso   1.00
C65    C     0.66341   0.16670   0.16667   0.00000  Uiso   1.00
C66    C     0.83658   0.16665   0.16667   0.00000  Uiso   1.00
Zn67   Zn    0.75000   0.16667   0.22759   0.00000  Uiso   1.00
Zn68   Zn    0.75000   0.16667   0.10574   0.00000  Uiso   1.00
N69    N     0.75000   0.16667   0.02455   0.00000  Uiso   1.00
N70    N     0.75000   0.16667   0.30879   0.00000  Uiso   1.00
C71    C     0.90660   0.21214   0.16987   0.00000  Uiso   1.00
C72    C     0.59339   0.12121   0.16363   0.00000  Uiso   1.00
C73    C     0.90663   0.12117   0.16353   0.00000  Uiso   1.00
C74    C     0.59336   0.21220   0.16974   0.00000  Uiso   1.00
C75    C     0.88413   0.16666   0.16668   0.00000  Uiso   1.00
C76    C     0.61586   0.16671   0.16668   0.00000  Uiso   1.00
C77    C     0.95323   0.12106   0.16252   0.00000  Uiso   1.00
C78    C     0.54675   0.21230   0.17088   0.00000  Uiso   1.00
C79    C     0.95320   0.21227   0.17094   0.00000  Uiso   1.00
C80    C     0.54679   0.12108   0.16257   0.00000  Uiso   1.00
C81    C     0.97658   0.16667   0.16674   0.00000  Uiso   1.00
C82    C     0.52341   0.16668   0.16673   0.00000  Uiso   1.00
C83    C     0.97691   0.07645   0.15635   0.00000  Uiso   1.00
C84    C     0.52307   0.25690   0.17715   0.00000  Uiso   1.00
C85    C     0.97684   0.25688   0.17718   0.00000  Uiso   1.00
C86    C     0.52314   0.07647   0.15638   0.00000  Uiso   1.00
C87    C     0.75001   0.02171   0.16665   0.00000  Uiso   1.00
C88    C     0.75002   0.31162   0.16669   0.00000  Uiso   1.00
N89    N     0.88191   0.25793   0.17074   0.00000  Uiso   1.00
O90    O     0.88378   0.28792   0.12893   0.00000  Uiso   1.00
O91    O     0.85586   0.26843   0.21193   0.00000  Uiso   1.00
N92    N     0.61808   0.07542   0.16287   0.00000  Uiso   1.00
O93    O     0.61611   0.04544   0.20469   0.00000  Uiso   1.00
O94    O     0.64420   0.06489   0.12177   0.00000  Uiso   1.00
N95    N     0.88197   0.07538   0.16264   0.00000  Uiso   1.00
O96    O     0.85593   0.06489   0.12145   0.00000  Uiso   1.00
O97    O     0.88383   0.04539   0.20446   0.00000  Uiso   1.00
N98    N     0.61801   0.25803   0.17030   0.00000  Uiso   1.00
O99    O     0.64468   0.26839   0.21093   0.00000  Uiso   1.00
O100   O     0.61540   0.28825   0.12872   0.00000  Uiso   1.00
O101   O     0.25000   0.42845   0.21228   0.00000  Uiso   1.00
O102   O     0.25000   0.57155   0.12105   0.00000  Uiso   1.00
O103   O     0.25000   0.57155   0.21228   0.00000  Uiso   1.00
O104   O     0.25000   0.42845   0.12105   0.00000  Uiso   1.00
H105   H     0.45990   0.37470   0.15071   0.00000  Uiso   1.00
H106   H     0.04007   0.62531   0.18285   0.00000  Uiso   1.00
H107   H     0.45980   0.62528   0.18285   0.00000  Uiso   1.00
H108   H     0.04019   0.37472   0.15076   0.00000  Uiso   1.00
C109   C     0.25001   0.40599   0.16665   0.00000  Uiso   1.00
C110   C     0.25002   0.59401   0.16668   0.00000  Uiso   1.00
O111   O     0.18392   0.50000   0.21230   0.00000  Uiso   1.00
O112   O     0.31607   0.50000   0.12104   0.00000  Uiso   1.00
O113   O     0.31607   0.50000   0.21230   0.00000  Uiso   1.00
O114   O     0.18392   0.50000   0.12104   0.00000  Uiso   1.00
C115   C     0.16341   0.50003   0.16667   0.00000  Uiso   1.00
C116   C     0.33658   0.49999   0.16667   0.00000  Uiso   1.00
Zn117  Zn    0.25000   0.50000   0.22759   0.00000  Uiso   1.00
Zn118  Zn    0.25000   0.50000   0.10574   0.00000  Uiso   1.00
N119   N     0.25000   0.50000   0.02455   0.00000  Uiso   1.00
N120   N     0.25000   0.50000   0.30879   0.00000  Uiso   1.00
C121   C     0.40660   0.54547   0.16987   0.00000  Uiso   1.00
C122   C     0.09339   0.45455   0.16363   0.00000  Uiso   1.00
C123   C     0.40663   0.45451   0.16353   0.00000  Uiso   1.00
C124   C     0.09336   0.54554   0.16974   0.00000  Uiso   1.00
C125   C     0.38413   0.49999   0.16668   0.00000  Uiso   1.00
C126   C     0.11586   0.50004   0.16668   0.00000  Uiso   1.00
C127   C     0.45323   0.45439   0.16252   0.00000  Uiso   1.00
C128   C     0.04675   0.54564   0.17088   0.00000  Uiso   1.00
C129   C     0.45320   0.54560   0.17094   0.00000  Uiso   1.00
C130   C     0.04679   0.45441   0.16257   0.00000  Uiso   1.00
C131   C     0.47658   0.50000   0.16674   0.00000  Uiso   1.00
C132   C     0.02341   0.50002   0.16673   0.00000  Uiso   1.00
C133   C     0.47691   0.40979   0.15635   0.00000  Uiso   1.00
C134   C     0.02307   0.59023   0.17715   0.00000  Uiso   1.00
C135   C     0.47684   0.59021   0.17718   0.00000  Uiso   1.00
C136   C     0.02314   0.40980   0.15638   0.00000  Uiso   1.00
C137   C     0.25001   0.35504   0.16665   0.00000  Uiso   1.00
C138   C     0.25002   0.64496   0.16669   0.00000  Uiso   1.00
N139   N     0.38191   0.59126   0.17074   0.00000  Uiso   1.00
O140   O     0.38378   0.62126   0.12893   0.00000  Uiso   1.00
O141   O     0.35586   0.60176   0.21193   0.00000  Uiso   1.00
N142   N     0.11808   0.40875   0.16287   0.00000  Uiso   1.00
O143   O     0.11611   0.37877   0.20469   0.00000  Uiso   1.00
O144   O     0.14420   0.39822   0.12177   0.00000  Uiso   1.00
N145   N     0.38197   0.40871   0.16264   0.00000  Uiso   1.00
O146   O     0.35593   0.39822   0.12145   0.00000  Uiso   1.00
O147   O     0.38383   0.37873   0.20446   0.00000  Uiso   1.00
N148   N     0.11801   0.59136   0.17030   0.00000  Uiso   1.00
O149   O     0.14468   0.60173   0.21093   0.00000  Uiso   1.00
O150   O     0.11540   0.62158   0.12872   0.00000  Uiso   1.00
O151   O     0.75000   0.42845   0.21228   0.00000  Uiso   1.00
O152   O     0.75000   0.57155   0.12105   0.00000  Uiso   1.00
O153   O     0.75000   0.57155   0.21228   0.00000  Uiso   1.00
O154   O     0.75000   0.42845   0.12105   0.00000  Uiso   1.00
H155   H     0.95990   0.37470   0.15071   0.00000  Uiso   1.00
H156   H     0.54007   0.62531   0.18285   0.00000  Uiso   1.00
H157   H     0.95980   0.62528   0.18285   0.00000  Uiso   1.00
H158   H     0.54019   0.37472   0.15076   0.00000  Uiso   1.00
C159   C     0.75001   0.40599   0.16665   0.00000  Uiso   1.00
C160   C     0.75002   0.59401   0.16668   0.00000  Uiso   1.00
O161   O     0.68392   0.50000   0.21230   0.00000  Uiso   1.00
O162   O     0.81607   0.50000   0.12104   0.00000  Uiso   1.00
O163   O     0.81607   0.50000   0.21230   0.00000  Uiso   1.00
O164   O     0.68392   0.50000   0.12104   0.00000  Uiso   1.00
C165   C     0.66341   0.50003   0.16667   0.00000  Uiso   1.00
C166   C     0.83658   0.49999   0.16667   0.00000  Uiso   1.00
Zn167  Zn    0.75000   0.50000   0.22759   0.00000  Uiso   1.00
Zn168  Zn    0.75000   0.50000   0.10574   0.00000  Uiso   1.00
N169   N     0.75000   0.50000   0.02455   0.00000  Uiso   1.00
N170   N     0.75000   0.50000   0.30879   0.00000  Uiso   1.00
C171   C     0.90660   0.54547   0.16987   0.00000  Uiso   1.00
C172   C     0.59339   0.45455   0.16363   0.00000  Uiso   1.00
C173   C     0.90663   0.45451   0.16353   0.00000  Uiso   1.00
C174   C     0.59336   0.54554   0.16974   0.00000  Uiso   1.00
C175   C     0.88413   0.49999   0.16668   0.00000  Uiso   1.00
C176   C     0.61586   0.50004   0.16668   0.00000  Uiso   1.00
C177   C     0.95323   0.45439   0.16252   0.00000  Uiso   1.00
C178   C     0.54675   0.54564   0.17088   0.00000  Uiso   1.00
C179   C     0.95320   0.54560   0.17094   0.00000  Uiso   1.00
C180   C     0.54679   0.45441   0.16257   0.00000  Uiso   1.00
C181   C     0.97658   0.50000   0.16674   0.00000  Uiso   1.00
C182   C     0.52341   0.50002   0.16673   0.00000  Uiso   1.00
C183   C     0.97691   0.40979   0.15635   0.00000  Uiso   1.00
C184   C     0.52307   0.59023   0.17715   0.00000  Uiso   1.00
C185   C     0.97684   0.59021   0.17718   0.00000  Uiso   1.00
C186   C     0.52314   0.40980   0.15638   0.00000  Uiso   1.00
C187   C     0.75001   0.35504   0.16665   0.00000  Uiso   1.00
C188   C     0.75002   0.64496   0.16669   0.00000  Uiso   1.00
N189   N     0.88191   0.59126   0.17074   0.00000  Uiso   1.00
O190   O     0.88378   0.62126   0.12893   0.00000  Uiso   1.00
O191   O     0.85586   0.60176   0.21193   0.00000  Uiso   1.00
N192   N     0.61808   0.40875   0.16287   0.00000  Uiso   1.00
O193   O     0.61611   0.37877   0.20469   0.00000  Uiso   1.00
O194   O     0.64420   0.39822   0.12177   0.00000  Uiso   1.00
N195   N     0.88197   0.40871   0.16264   0.00000  Uiso   1.00
O196   O     0.85593   0.39822   0.12145   0.00000  Uiso   1.00
O197   O     0.88383   0.37873   0.20446   0.00000  Uiso   1.00
N198   N     0.61801   0.59136   0.17030   0.00000  Uiso   1.00
O199   O     0.64468   0.60173   0.21093   0.00000  Uiso   1.00
O200   O     0.61540   0.62158   0.12872   0.00000  Uiso   1.00
O201   O     0.25000   0.76178   0.21228   0.00000  Uiso   1.00
O202   O     0.25000   0.90488   0.12105   0.00000  Uiso   1.00
O203   O     0.25000   0.90488   0.21228   0.00000  Uiso   1.00
O204   O     0.25000   0.76178   0.12105   0.00000  Uiso   1.00
H205   H     0.45990   0.70804   0.15071   0.00000  Uiso   1.00
H206   H     0.04007   0.95864   0.18285   0.00000  Uiso   1.00
H207   H     0.45980   0.95862   0.18285   0.00000  Uiso   1.00
H208   H     0.04019   0.70805   0.15076   0.00000  Uiso   1.00
C209   C     0.25001   0.73933   0.16665   0.00000  Uiso   1.00
C210   C     0.25002   0.92734   0.16668   0.00000  Uiso   1.00
O211   O     0.18392   0.83333   0.21230   0.00000  Uiso   1.00
O212   O     0.31607   0.83333   0.12104   0.00000  Uiso   1.00
O213   O     0.31607   0.83333   0.21230   0.00000  Uiso   1.00
O214   O     0.18392   0.83333   0.12104   0.00000  Uiso   1.00
C215   C     0.16341   0.83336   0.16667   0.00000  Uiso   1.00
C216   C     0.33658   0.83332   0.16667   0.00000  Uiso   1.00
Zn217  Zn    0.25000   0.83333   0.22759   0.00000  Uiso   1.00
Zn218  Zn    0.25000   0.83333   0.10574   0.00000  Uiso   1.00
N219   N     0.25000   0.83333   0.02455   0.00000  Uiso   1.00
N220   N     0.25000   0.83333   0.30879   0.00000  Uiso   1.00
C221   C     0.40660   0.87881   0.16987   0.00000  Uiso   1.00
C222   C     0.09339   0.78788   0.16363   0.00000  Uiso   1.00
C223   C     0.40663   0.78784   0.16353   0.00000  Uiso   1.00
C224   C     0.09336   0.87887   0.16974   0.00000  Uiso   1.00
C225   C     0.38413   0.83332   0.16668   0.00000  Uiso   1.00
C226   C     0.11586   0.83338   0.16668   0.00000  Uiso   1.00
C227   C     0.45323   0.78773   0.16252   0.00000  Uiso   1.00
C228   C     0.04675   0.87897   0.17088   0.00000  Uiso   1.00
C229   C     0.45320   0.87894   0.17094   0.00000  Uiso   1.00
C230   C     0.04679   0.78775   0.16257   0.00000  Uiso   1.00
C231   C     0.47658   0.83334   0.16674   0.00000  Uiso   1.00
C232   C     0.02341   0.83335   0.16673   0.00000  Uiso   1.00
C233   C     0.47691   0.74312   0.15635   0.00000  Uiso   1.00
C234   C     0.02307   0.92356   0.17715   0.00000  Uiso   1.00
C235   C     0.47684   0.92355   0.17718   0.00000  Uiso   1.00
C236   C     0.02314   0.74313   0.15638   0.00000  Uiso   1.00
C237   C     0.25001   0.68838   0.16665   0.00000  Uiso   1.00
C238   C     0.25002   0.97829   0.16669   0.00000  Uiso   1.00
N239   N     0.38191   0.92459   0.17074   0.00000  Uiso   1.00
O240   O     0.38378   0.95459   0.12893   0.00000  Uiso   1.00
O241   O     0.35586   0.93509   0.21193   0.00000  Uiso   1.00
N242   N     0.11808   0.74209   0.16287   0.00000  Uiso   1.00
O243   O     0.11611   0.71211   0.20469   0.00000  Uiso   1.00
O244   O     0.14420   0.73156   0.12177   0.00000  Uiso   1.00
N245   N     0.38197   0.74205   0.16264   0.00000  Uiso   1.00
O246   O     0.35593   0.73156   0.12145   0.00000  Uiso   1.00
O247   O     0.38383   0.71206   0.20446   0.00000  Uiso   1.00
N248   N     0.11801   0.92470   0.17030   0.00000  Uiso   1.00
O249   O     0.14468   0.93506   0.21093   0.00000  Uiso   1.00
O250   O     0.11540   0.95491   0.12872   0.00000  Uiso   1.00
O251   O     0.75000   0.76178   0.21228   0.00000  Uiso   1.00
O252   O     0.75000   0.90488   0.12105   0.00000  Uiso   1.00
O253   O     0.75000   0.90488   0.21228   0.00000  Uiso   1.00
O254   O     0.75000   0.76178   0.12105   0.00000  Uiso   1.00
H255   H     0.95990   0.70804   0.15071   0.00000  Uiso   1.00
H256   H     0.54007   0.95864   0.18285   0.00000  Uiso   1.00
H257   H     0.95980   0.95862   0.18285   0.00000  Uiso   1.00
H258   H     0.54019   0.70805   0.15076   0.00000  Uiso   1.00
C259   C     0.75001   0.73933   0.16665   0.00000  Uiso   1.00
C260   C     0.75002   0.92734   0.16668   0.00000  Uiso   1.00
O261   O     0.68392   0.83333   0.21230   0.00000  Uiso   1.00
O262   O     0.81607   0.83333   0.12104   0.00000  Uiso   1.00
O263   O     0.81607   0.83333   0.21230   0.00000  Uiso   1.00
O264   O     0.68392   0.83333   0.12104   0.00000  Uiso   1.00
C265   C     0.66341   0.83336   0.16667   0.00000  Uiso   1.00
C266   C     0.83658   0.83332   0.16667   0.00000  Uiso   1.00
Zn267  Zn    0.75000   0.83333   0.22759   0.00000  Uiso   1.00
Zn268  Zn    0.75000   0.83333   0.10574   0.00000  Uiso   1.00
N269   N     0.75000   0.83333   0.02455   0.00000  Uiso   1.00
N270   N     0.75000   0.83333   0.30879   0.00000  Uiso   1.00
C271   C     0.90660   0.87881   0.16987   0.00000  Uiso   1.00
C272   C     0.59339   0.78788   0.16363   0.00000  Uiso   1.00
C273   C     0.90663   0.78784   0.16353   0.00000  Uiso   1.00
C274   C     0.59336   0.87887   0.16974   0.00000  Uiso   1.00
C275   C     0.88413   0.83332   0.16668   0.00000  Uiso   1.00
C276   C     0.61586   0.83338   0.16668   0.00000  Uiso   1.00
C277   C     0.95323   0.78773   0.16252   0.00000  Uiso   1.00
C278   C     0.54675   0.87897   0.17088   0.00000  Uiso   1.00
C279   C     0.95320   0.87894   0.17094   0.00000  Uiso   1.00
C280   C     0.54679   0.78775   0.16257   0.00000  Uiso   1.00
C281   C     0.97658   0.83334   0.16674   0.00000  Uiso   1.00
C282   C     0.52341   0.83335   0.16673   0.00000  Uiso   1.00
C283   C     0.97691   0.74312   0.15635   0.00000  Uiso   1.00
C284   C     0.52307   0.92356   0.17715   0.00000  Uiso   1.00
C285   C     0.97684   0.92355   0.17718   0.00000  Uiso   1.00
C286   C     0.52314   0.74313   0.15638   0.00000  Uiso   1.00
C287   C     0.75001   0.68838   0.16665   0.00000  Uiso   1.00
C288   C     0.75002   0.97829   0.16669   0.00000  Uiso   1.00
N289   N     0.88191   0.92459   0.17074   0.00000  Uiso   1.00
O290   O     0.88378   0.95459   0.12893   0.00000  Uiso   1.00
O291   O     0.85586   0.93509   0.21193   0.00000  Uiso   1.00
N292   N     0.61808   0.74209   0.16287   0.00000  Uiso   1.00
O293   O     0.61611   0.71211   0.20469   0.00000  Uiso   1.00
O294   O     0.64420   0.73156   0.12177   0.00000  Uiso   1.00
N295   N     0.88197   0.74205   0.16264   0.00000  Uiso   1.00
O296   O     0.85593   0.73156   0.12145   0.00000  Uiso   1.00
O297   O     0.88383   0.71206   0.20446   0.00000  Uiso   1.00
N298   N     0.61801   0.92470   0.17030   0.00000  Uiso   1.00
O299   O     0.64468   0.93506   0.21093   0.00000  Uiso   1.00
O300   O     0.61540   0.95491   0.12872   0.00000  Uiso   1.00
O301   O     0.25000   0.09512   0.54562   0.00000  Uiso   1.00
O302   O     0.25000   0.23822   0.45438   0.00000  Uiso   1.00
O303   O     0.25000   0.23822   0.54562   0.00000  Uiso   1.00
O304   O     0.25000   0.09512   0.45438   0.00000  Uiso   1.00
H305   H     0.45990   0.04137   0.48404   0.00000  Uiso   1.00
H306   H     0.04007   0.29198   0.51619   0.00000  Uiso   1.00
H307   H     0.45980   0.29195   0.51619   0.00000  Uiso   1.00
H308   H     0.04019   0.04139   0.48409   0.00000  Uiso   1.00
C309   C     0.25001   0.07266   0.49999   0.00000  Uiso   1.00
C310   C     0.25002   0.26067   0.50001   0.00000  Uiso   1.00
O311   O     0.18392   0.16667   0.54563   0.00000  Uiso   1.00
O312   O     0.31607   0.16667   0.45437   0.00000  Uiso   1.00
O313   O     0.31607   0.16667   0.54563   0.00000  Uiso   1.00
O314   O     0.18392   0.16667   0.45437   0.00000  Uiso   1.00
C315   C     0.16341   0.16670   0.50000   0.00000  Uiso   1.00
C316   C     0.33658   0.16665   0.50000   0.00000  Uiso   1.00
Zn317  Zn    0.25000   0.16667   0.56093   0.00000  Uiso   1.00
Zn318  Zn    0.25000   0.16667   0.43907   0.00000  Uiso   1.00
N319   N     0.25000   0.16667   0.35788   0.00000  Uiso   1.00
N320   N     0.25000   0.16667   0.64212   0.00000  Uiso   1.00
C321   C     0.40660   0.21214   0.50321   0.00000  Uiso   1.00
C322   C     0.09339   0.12121   0.49697   0.00000  Uiso   1.00
C323   C     0.40663   0.12117   0.49686   0.00000  Uiso   1.00
C324   C     0.09336   0.21220   0.50307   0.00000  Uiso   1.00
C325   C     0.38413   0.16666   0.50001   0.00000  Uiso   1.00
C326   C     0.11586   0.16671   0.50001   0.00000  Uiso   1.00
C327   C     0.45323   0.12106   0.49586   0.00000  Uiso   1.00
C328   C     0.04675   0.21230   0.50421   0.00000  Uiso   1.00
C329   C     0.45320   0.21227   0.50427   0.00000  Uiso   1.00
C330   C     0.04679   0.12108   0.49590   0.00000  Uiso   1.00
C331   C     0.47658   0.16667   0.50007   0.00000  Uiso   1.00
C332   C     0.02341   0.16668   0.50007   0.00000  Uiso   1.00
C333   C     0.47691   0.07645   0.48968   0.00000  Uiso   1.00
C334   C     0.02307   0.25690   0.51049   0.00000  Uiso   1.00
C335   C     0.47684   0.25688   0.51051   0.00000  Uiso   1.00
C336   C     0.02314   0.07647   0.48971   0.00000  Uiso   1.00
C337   C     0.25001   0.02171   0.49998   0.00000  Uiso   1.00
C338   C     0.25002   0.31162   0.50002   0.00000  Uiso   1.00
N339   N     0.38191   0.25793   0.50407   0.00000  Uiso   1.00
O340   O     0.38378   0.28792   0.46226   0.00000  Uiso   1.00
O341   O     0.35586   0.26843   0.54526   0.00000  Uiso   1.00
N342   N     0.11808   0.07542   0.49620   0.00000  Uiso   1.00
O343   O     0.11611   0.04544   0.53803   0.00000  Uiso   1.00
O344   O     0.14420   0.06489   0.45510   0.00000  Uiso   1.00
N345   N     0.38197   0.07538   0.49597   0.00000  Uiso   1.00
O346   O     0.35593   0.06489   0.45478   0.00000  Uiso   1.00
O347   O     0.38383   0.04539   0.53779   0.00000  Uiso   1.00
N348   N     0.11801   0.25803   0.50363   0.00000  Uiso   1.00
O349   O     0.14468   0.26839   0.54427   0.00000  Uiso   1.00
O350   O     0.11540   0.28825   0.46205   0.00000  Uiso   1.00
O351   O     0.75000   0.09512   0.54562   0.00000  Uiso   1.00
O352   O     0.75000   0.23822   0.45438   0.00000  Uiso   1.00
O353   O     0.75000   0.23822   0.54562   0.00000  Uiso   1.00
O354   O     0.75000   0.09512   0.45438   0.00000  Uiso   1.00
H355   H     0.95990   0.04137   0.48404   0.00000  Uiso   1.00
H356   H     0.54007   0.29198   0.51619   0.00000  Uiso   1.00
H357   H     0.95980   0.29195   0.51619   0.00000  Uiso   1.00
H358   H     0.54019   0.04139   0.48409   0.00000  Uiso   1.00
C359   C     0.75001   0.07266   0.49999   0.00000  Uiso   1.00
C360   C     0.75002   0.26067   0.50001   0.00000  Uiso   1.00
O361   O     0.68392   0.16667   0.54563   0.00000  Uiso   1.00
O362   O     0.81607   0.16667   0.45437   0.00000  Uiso   1.00
O363   O     0.81607   0.16667   0.54563   0.00000  Uiso   1.00
O364   O     0.68392   0.16667   0.45437   0.00000  Uiso   1.00
C365   C     0.66341   0.16670   0.50000   0.00000  Uiso   1.00
C366   C     0.83658   0.16665   0.50000   0.00000  Uiso   1.00
Zn367  Zn    0.75000   0.16667   0.56093   0.00000  Uiso   1.00
Zn368  Zn    0.75000   0.16667   0.43907   0.00000  Uiso   1.00
N369   N     0.75000   0.16667   0.35788   0.00000  Uiso   1.00
N370   N     0.75000   0.16667   0.64212   0.00000  Uiso   1.00
C371   C     0.90660   0.21214   0.50321   0.00000  Uiso   1.00
C372   C     0.59339   0.12121   0.49697   0.00000  Uiso   1.00
C373   C     0.90663   0.12117   0.49686   0.00000  Uiso   1.00
C374   C     0.59336   0.21220   0.50307   0.00000  Uiso   1.00
C375   C     0.88413   0.16666   0.50001   0.00000  Uiso   1.00
C376   C     0.61586   0.16671   0.50001   0.00000  Uiso   1.00
C377   C     0.95323   0.12106   0.49586   0.00000  Uiso   1.00
C378   C     0.54675   0.21230   0.50421   0.00000  Uiso   1.00
C379   C     0.95320   0.21227   0.50427   0.00000  Uiso   1.00
C380   C     0.54679   0.12108   0.49590   0.00000  Uiso   1.00
C381   C     0.97658   0.16667   0.50007   0.00000  Uiso   1.00
C382   C     0.52341   0.16668   0.50007   0.00000  Uiso   1.00
C383   C     0.97691   0.07645   0.48968   0.00000  Uiso   1.00
C384   C     0.52307   0.25690   0.51049   0.00000  Uiso   1.00
C385   C     0.97684   0.25688   0.51051   0.00000  Uiso   1.00
C386   C     0.52314   0.07647   0.48971   0.00000  Uiso   1.00
C387   C     0.75001   0.02171   0.49998   0.00000  Uiso   1.00
C388   C     0.75002   0.31162   0.50002   0.00000  Uiso   1.00
N389   N     0.88191   0.25793   0.50407   0.00000  Uiso   1.00
O390   O     0.88378   0.28792   0.46226   0.00000  Uiso   1.00
O391   O     0.85586   0.26843   0.54526   0.00000  Uiso   1.00
N392   N     0.61808   0.07542   0.49620   0.00000  Uiso   1.00
O393   O     0.61611   0.04544   0.53803   0.00000  Uiso   1.00
O394   O     0.64420   0.06489   0.45510   0.00000  Uiso   1.00
N395   N     0.88197   0.07538   0.49597   0.00000  Uiso   1.00
O396   O     0.85593   0.06489   0.45478   0.00000  Uiso   1.00
O397   O     0.88383   0.04539   0.53779   0.00000  Uiso   1.00
N398   N     0.61801   0.25803   0.50363   0.00000  Uiso   1.00
O399   O     0.64468   0.26839   0.54427   0.00000  Uiso   1.00
O400   O     0.61540   0.28825   0.46205   0.00000  Uiso   1.00
O401   O     0.25000   0.42845   0.54562   0.00000  Uiso   1.00
O402   O     0.25000   0.57155   0.45438   0.00000  Uiso   1.00
O403   O     0.25000   0.57155   0.54562   0.00000  Uiso   1.00
O404   O     0.25000   0.42845   0.45438   0.00000  Uiso   1.00
H405   H     0.45990   0.37470   0.48404   0.00000  Uiso   1.00
H406   H     0.04007   0.62531   0.51619   0.00000  Uiso   1.00
H407   H     0.45980   0.62528   0.51619   0.00000  Uiso   1.00
H408   H     0.04019   0.37472   0.48409   0.00000  Uiso   1.00
C409   C     0.25001   0.40599   0.49999   0.00000  Uiso   1.00
C410   C     0.25002   0.59401   0.50001   0.00000  Uiso   1.00
O411   O     0.18392   0.50000   0.54563   0.00000  Uiso   1.00
O412   O     0.31607   0.50000   0.45437   0.00000  Uiso   1.00
O413   O     0.31607   0.50000   0.54563   0.00000  Uiso   1.00
O414   O     0.18392   0.50000   0.45437   0.00000  Uiso   1.00
C415   C     0.16341   0.50003   0.50000   0.00000  Uiso   1.00
C416   C     0.33658   0.49999   0.50000   0.00000  Uiso   1.00
Zn417  Zn    0.25000   0.50000   0.56093   0.00000  Uiso   1.00
Zn418  Zn    0.25000   0.50000   0.43907   0.00000  Uiso   1.00
N419   N     0.25000   0.50000   0.35788   0.00000  Uiso   1.00
N420   N     0.25000   0.50000   0.64212   0.00000  Uiso   1.00
C421   C     0.40660   0.54547   0.50321   0.00000  Uiso   1.00
C422   C     0.09339   0.45455   0.49697   0.00000  Uiso   1.00
C423   C     0.40663   0.45451   0.49686   0.00000  Uiso   1.00
C424   C     0.09336   0.54554   0.50307   0.00000  Uiso   1.00
C425   C     0.38413   0.49999   0.50001   0.00000  Uiso   1.00
C426   C     0.11586   0.50004   0.50001   0.00000  Uiso   1.00
C427   C     0.45323   0.45439   0.49586   0.00000  Uiso   1.00
C428   C     0.04675   0.54564   0.50421   0.00000  Uiso   1.00
C429   C     0.45320   0.54560   0.50427   0.00000  Uiso   1.00
C430   C     0.04679   0.45441   0.49590   0.00000  Uiso   1.00
C431   C     0.47658   0.50000   0.50007   0.00000  Uiso   1.00
C432   C     0.02341   0.50002   0.50007   0.00000  Uiso   1.00
C433   C     0.47691   0.40979   0.48968   0.00000  Uiso   1.00
C434   C     0.02307   0.59023   0.51049   0.00000  Uiso   1.00
C435   C     0.47684   0.59021   0.51051   0.00000  Uiso   1.00
C436   C     0.02314   0.40980   0.48971   0.00000  Uiso   1.00
C437   C     0.25001   0.35504   0.49998   0.00000  Uiso   1.00
C438   C     0.25002   0.64496   0.50002   0.00000  Uiso   1.00
N439   N     0.38191   0.59126   0.50407   0.00000  Uiso   1.00
O440   O     0.38378   0.62126   0.46226   0.00000  Uiso   1.00
O441   O     0.35586   0.60176   0.54526   0.00000  Uiso   1.00
N442   N     0.11808   0.40875   0.49620   0.00000  Uiso   1.00
O443   O     0.11611   0.37877   0.53803   0.00000  Uiso   1.00
O444   O     0.14420   0.39822   0.45510   0.00000  Uiso   1.00
N445   N     0.38197   0.40871   0.49597   0.00000  Uiso   1.00
O446   O     0.35593   0.39822   0.45478   0.00000  Uiso   1.00
O447   O     0.38383   0.37873   0.53779   0.00000  Uiso   1.00
N448   N     0.11801   0.59136   0.50363   0.00000  Uiso   1.00
O449   O     0.14468   0.60173   0.54427   0.00000  Uiso   1.00
O450   O     0.11540   0.62158   0.46205   0.00000  Uiso   1.00
O451   O     0.75000   0.42845   0.54562   0.00000  Uiso   1.00
O452   O     0.75000   0.57155   0.45438   0.00000  Uiso   1.00
O453   O     0.75000   0.57155   0.54562   0.00000  Uiso   1.00
O454   O     0.75000   0.42845   0.45438   0.00000  Uiso   1.00
H455   H     0.95990   0.37470   0.48404   0.00000  Uiso   1.00
H456   H     0.54007   0.62531   0.51619   0.00000  Uiso   1.00
H457   H     0.95980   0.62528   0.51619   0.00000  Uiso   1.00
H458   H     0.54019   0.37472   0.48409   0.00000  Uiso   1.00
C459   C     0.75001   0.40599   0.49999   0.00000  Uiso   1.00
C460   C     0.75002   0.59401   0.50001   0.00000  Uiso   1.00
O461   O     0.68392   0.50000   0.54563   0.00000  Uiso   1.00
O462   O     0.81607   0.50000   0.45437   0.00000  Uiso   1.00
O463   O     0.81607   0.50000   0.54563   0.00000  Uiso   1.00
O464   O     0.68392   0.50000   0.45437   0.00000  Uiso   1.00
C465   C     0.66341   0.50003   0.50000   0.00000  Uiso   1.00
C466   C     0.83658   0.49999   0.50000   0.00000  Uiso   1.00
Zn467  Zn    0.75000   0.50000   0.56093   0.00000  Uiso   1.00
Zn468  Zn    0.75000   0.50000   0.43907   0.00000  Uiso   1.00
N469   N     0.75000   0.50000   0.35788   0.00000  Uiso   1.00
N470   N     0.75000   0.50000   0.64212   0.00000  Uiso   1.00
C471   C     0.90660   0.54547   0.50321   0.00000  Uiso   1.00
C472   C     0.59339   0.45455   0.49697   0.00000  Uiso   1.00
C473   C     0.90663   0.45451   0.49686   0.00000  Uiso   1.00
C474   C     0.59336   0.54554   0.50307   0.00000  Uiso   1.00
C475   C     0.88413   0.49999   0.50001   0.00000  Uiso   1.00
C476   C     0.61586   0.50004   0.50001   0.00000  Uiso   1.00
C477   C     0.95323   0.45439   0.49586   0.00000  Uiso   1.00
C478   C     0.54675   0.54564   0.50421   0.00000  Uiso   1.00
C479   C     0.95320   0.54560   0.50427   0.00000  Uiso   1.00
C480   C     0.54679   0.45441   0.49590   0.00000  Uiso   1.00
C481   C     0.97658   0.50000   0.50007   0.00000  Uiso   1.00
C482   C     0.52341   0.50002   0.50007   0.00000  Uiso   1.00
C483   C     0.97691   0.40979   0.48968   0.00000  Uiso   1.00
C484   C     0.52307   0.59023   0.51049   0.00000  Uiso   1.00
C485   C     0.97684   0.59021   0.51051   0.00000  Uiso   1.00
C486   C     0.52314   0.40980   0.48971   0.00000  Uiso   1.00
C487   C     0.75001   0.35504   0.49998   0.00000  Uiso   1.00
C488   C     0.75002   0.64496   0.50002   0.00000  Uiso   1.00
N489   N     0.88191   0.59126   0.50407   0.00000  Uiso   1.00
O490   O     0.88378   0.62126   0.46226   0.00000  Uiso   1.00
O491   O     0.85586   0.60176   0.54526   0.00000  Uiso   1.00
N492   N     0.61808   0.40875   0.49620   0.00000  Uiso   1.00
O493   O     0.61611   0.37877   0.53803   0.00000  Uiso   1.00
O494   O     0.64420   0.39822   0.45510   0.00000  Uiso   1.00
N495   N     0.88197   0.40871   0.49597   0.00000  Uiso   1.00
O496   O     0.85593   0.39822   0.45478   0.00000  Uiso   1.00
O497   O     0.88383   0.37873   0.53779   0.00000  Uiso   1.00
N498   N     0.61801   0.59136   0.50363   0.00000  Uiso   1.00
O499   O     0.64468   0.60173   0.54427   0.00000  Uiso   1.00
O500   O     0.61540   0.62158   0.46205   0.00000  Uiso   1.00
O501   O     0.25000   0.76178   0.54562   0.00000  Uiso   1.00
O502   O     0.25000   0.90488   0.45438   0.00000  Uiso   1.00
O503   O     0.25000   0.90488   0.54562   0.00000  Uiso   1.00
O504   O     0.25000   0.76178   0.45438   0.00000  Uiso   1.00
H505   H     0.45990   0.70804   0.48404   0.00000  Uiso   1.00
H506   H     0.04007   0.95864   0.51619   0.00000  Uiso   1.00
H507   H     0.45980   0.95862   0.51619   0.00000  Uiso   1.00
H508   H     0.04019   0.70805   0.48409   0.00000  Uiso   1.00
C509   C     0.25001   0.73933   0.49999   0.00000  Uiso   1.00
C510   C     0.25002   0.92734   0.50001   0.00000  Uiso   1.00
O511   O     0.18392   0.83333   0.54563   0.00000  Uiso   1.00
O512   O     0.31607   0.83333   0.45437   0.00000  Uiso   1.00
O513   O     0.31607   0.83333   0.54563   0.00000  Uiso   1.00
O514   O     0.18392   0.83333   0.45437   0.00000  Uiso   1.00
C515   C     0.16341   0.83336   0.50000   0.00000  Uiso   1.00
C516   C     0.33658   0.83332   0.50000   0.00000  Uiso   1.00
Zn517  Zn    0.25000   0.83333   0.56093   0.00000  Uiso   1.00
Zn518  Zn    0.25000   0.83333   0.43907   0.00000  Uiso   1.00
N519   N     0.25000   0.83333   0.35788   0.00000  Uiso   1.00
N520   N     0.25000   0.83333   0.64212   0.00000  Uiso   1.00
C521   C     0.40660   0.87881   0.50321   0.00000  Uiso   1.00
C522   C     0.09339   0.78788   0.49697   0.00000  Uiso   1.00
C523   C     0.40663   0.78784   0.49686   0.00000  Uiso   1.00
C524   C     0.09336   0.87887   0.50307   0.00000  Uiso   1.00
C525   C     0.38413   0.83332   0.50001   0.00000  Uiso   1.00
C526   C     0.11586   0.83338   0.50001   0.00000  Uiso   1.00
C527   C     0.45323   0.78773   0.49586   0.00000  Uiso   1.00
C528   C     0.04675   0.87897   0.50421   0.00000  Uiso   1.00
C529   C     0.45320   0.87894   0.50427   0.00000  Uiso   1.00
C530   C     0.04679   0.78775   0.49590   0.00000  Uiso   1.00
C531   C     0.47658   0.83334   0.50007   0.00000  Uiso   1.00
C532   C     0.02341   0.83335   0.50007   0.00000  Uiso   1.00
C533   C     0.47691   0.74312   0.48968   0.00000  Uiso   1.00
C534   C     0.02307   0.92356   0.51049   0.00000  Uiso   1.00
C535   C     0.47684   0.92355   0.51051   0.00000  Uiso   1.00
C536   C     0.02314   0.74313   0.48971   0.00000  Uiso   1.00
C537   C     0.25001   0.68838   0.49998   0.00000  Uiso   1.00
C538   C     0.25002   0.97829   0.50002   0.00000  Uiso   1.00
N539   N     0.38191   0.92459   0.50407   0.00000  Uiso   1.00
O540   O     0.38378   0.95459   0.46226   0.00000  Uiso   1.00
O541   O     0.35586   0.93509   0.54526   0.00000  Uiso   1.00
N542   N     0.11808   0.74209   0.49620   0.00000  Uiso   1.00
O543   O     0.11611   0.71211   0.53803   0.00000  Uiso   1.00
O544   O     0.14420   0.73156   0.45510   0.00000  Uiso   1.00
N545   N     0.38197   0.74205   0.49597   0.00000  Uiso   1.00
O546   O     0.35593   0.73156   0.45478   0.00000  Uiso   1.00
O547   O     0.38383   0.71206   0.53779   0.00000  Uiso   1.00
N548   N     0.11801   0.92470   0.50363   0.00000  Uiso   1.00
O549   O     0.14468   0.93506   0.54427   0.00000  Uiso   1.00
O550   O     0.11540   0.95491   0.46205   0.00000  Uiso   1.00
O551   O     0.75000   0.76178   0.54562   0.00000  Uiso   1.00
O552   O     0.75000   0.90488   0.45438   0.00000  Uiso   1.00
O553   O     0.75000   0.90488   0.54562   0.00000  Uiso   1.00
O554   O     0.75000   0.76178   0.45438   0.00000  Uiso   1.00
H555   H     0.95990   0.70804   0.48404   0.00000  Uiso   1.00
H556   H     0.54007   0.95864   0.51619   0.00000  Uiso   1.00
H557   H     0.95980   0.95862   0.51619   0.00000  Uiso   1.00
H558   H     0.54019   0.70805   0.48409   0.00000  Uiso   1.00
C559   C     0.75001   0.73933   0.49999   0.00000  Uiso   1.00
C560   C     0.75002   0.92734   0.50001   0.00000  Uiso   1.00
O561   O     0.68392   0.83333   0.54563   0.00000  Uiso   1.00
O562   O     0.81607   0.83333   0.45437   0.00000  Uiso   1.00
O563   O     0.81607   0.83333   0.54563   0.00000  Uiso   1.00
O564   O     0.68392   0.83333   0.45437   0.00000  Uiso   1.00
C565   C     0.66341   0.83336   0.50000   0.00000  Uiso   1.00
C566   C     0.83658   0.83332   0.50000   0.00000  Uiso   1.00
Zn567  Zn    0.75000   0.83333   0.56093   0.00000  Uiso   1.00
Zn568  Zn    0.75000   0.83333   0.43907   0.00000  Uiso   1.00
N569   N     0.75000   0.83333   0.35788   0.00000  Uiso   1.00
N570   N     0.75000   0.83333   0.64212   0.00000  Uiso   1.00
C571   C     0.90660   0.87881   0.50321   0.00000  Uiso   1.00
C572   C     0.59339   0.78788   0.49697   0.00000  Uiso   1.00
C573   C     0.90663   0.78784   0.49686   0.00000  Uiso   1.00
C574   C     0.59336   0.87887   0.50307   0.00000  Uiso   1.00
C575   C     0.88413   0.83332   0.50001   0.00000  Uiso   1.00
C576   C     0.61586   0.83338   0.50001   0.00000  Uiso   1.00
C577   C     0.95323   0.78773   0.49586   0.00000  Uiso   1.00
C578   C     0.54675   0.87897   0.50421   0.00000  Uiso   1.00
C579   C     0.95320   0.87894   0.50427   0.00000  Uiso   1.00
C580   C     0.54679   0.78775   0.49590   0.00000  Uiso   1.00
C581   C     0.97658   0.83334   0.50007   0.00000  Uiso   1.00
C582   C     0.52341   0.83335   0.50007   0.00000  Uiso   1.00
C583   C     0.97691   0.74312   0.48968   0.00000  Uiso   1.00
C584   C     0.52307   0.92356   0.51049   0.00000  Uiso   1.00
C585   C     0.97684   0.92355   0.51051   0.00000  Uiso   1.00
C586   C     0.52314   0.74313   0.48971   0.00000  Uiso   1.00
C587   C     0.75001   0.68838   0.49998   0.00000  Uiso   1.00
C588   C     0.75002   0.97829   0.50002   0.00000  Uiso   1.00
N589   N     0.88191   0.92459   0.50407   0.00000  Uiso   1.00
O590   O     0.88378   0.95459   0.46226   0.00000  Uiso   1.00
O591   O     0.85586   0.93509   0.54526   0.00000  Uiso   1.00
N592   N     0.61808   0.74209   0.49620   0.00000  Uiso   1.00
O593   O     0.61611   0.71211   0.53803   0.00000  Uiso   1.00
O594   O     0.64420   0.73156   0.45510   0.00000  Uiso   1.00
N595   N     0.88197   0.74205   0.49597   0.00000  Uiso   1.00
O596   O     0.85593   0.73156   0.45478   0.00000  Uiso   1.00
O597   O     0.88383   0.71206   0.53779   0.00000  Uiso   1.00
N598   N     0.61801   0.92470   0.50363   0.00000  Uiso   1.00
O599   O     0.64468   0.93506   0.54427   0.00000  Uiso   1.00
O600   O     0.61540   0.95491   0.46205   0.00000  Uiso   1.00
O601   O     0.25000   0.09512   0.87895   0.00000  Uiso   1.00
O602   O     0.25000   0.23822   0.78772   0.00000  Uiso   1.00
O603   O     0.25000   0.23822   0.87895   0.00000  Uiso   1.00
O604   O     0.25000   0.09512   0.78772   0.00000  Uiso   1.00
H605   H     0.45990   0.04137   0.81737   0.00000  Uiso   1.00
H606   H     0.04007   0.29198   0.84952   0.00000  Uiso   1.00
H607   H     0.45980   0.29195   0.84952   0.00000  Uiso   1.00
H608   H     0.04019   0.04139   0.81742   0.00000  Uiso   1.00
C609   C     0.25001   0.07266   0.83332   0.00000  Uiso   1.00
C610   C     0.25002   0.26067   0.83335   0.00000  Uiso   1.00
O611   O     0.18392   0.16667   0.87896   0.00000  Uiso   1.00
O612   O     0.31607   0.16667   0.78770   0.00000  Uiso   1.00
O613   O     0.31607   0.16667   0.87896   0.00000  Uiso   1.00
O614   O     0.18392   0.16667   0.78770   0.00000  Uiso   1.00
C615   C     0.16341   0.16670   0.83333   0.00000  Uiso   1.00
C616   C     0.33658   0.16665   0.83333   0.00000  Uiso   1.00
Zn617  Zn    0.25000   0.16667   0.89426   0.00000  Uiso   1.00
Zn618  Zn    0.25000   0.16667   0.77241   0.00000  Uiso   1.00
N619   N     0.25000   0.16667   0.69121   0.00000  Uiso   1.00
N620   N     0.25000   0.16667   0.97545   0.00000  Uiso   1.00
C621   C     0.40660   0.21214   0.83654   0.00000  Uiso   1.00
C622   C     0.09339   0.12121   0.83030   0.00000  Uiso   1.00
C623   C     0.40663   0.12117   0.83019   0.00000  Uiso   1.00
C624   C     0.09336   0.21220   0.83640   0.00000  Uiso   1.00
C625   C     0.38413   0.16666   0.83334   0.00000  Uiso   1.00
C626   C     0.11586   0.16671   0.83335   0.00000  Uiso   1.00
C627   C     0.45323   0.12106   0.82919   0.00000  Uiso   1.00
C628   C     0.04675   0.21230   0.83755   0.00000  Uiso   1.00
C629   C     0.45320   0.21227   0.83761   0.00000  Uiso   1.00
C630   C     0.04679   0.12108   0.82924   0.00000  Uiso   1.00
C631   C     0.47658   0.16667   0.83340   0.00000  Uiso   1.00
C632   C     0.02341   0.16668   0.83340   0.00000  Uiso   1.00
C633   C     0.47691   0.07645   0.82301   0.00000  Uiso   1.00
C634   C     0.02307   0.25690   0.84382   0.00000  Uiso   1.00
C635   C     0.47684   0.25688   0.84384   0.00000  Uiso   1.00
C636   C     0.02314   0.07647   0.82305   0.00000  Uiso   1.00
C637   C     0.25001   0.02171   0.83331   0.00000  Uiso   1.00
C638   C     0.25002   0.31162   0.83335   0.00000  Uiso   1.00
N639   N     0.38191   0.25793   0.83741   0.00000  Uiso   1.00
O640   O     0.38378   0.28792   0.79560   0.00000  Uiso   1.00
O641   O     0.35586   0.26843   0.87860   0.00000  Uiso   1.00
N642   N     0.11808   0.07542   0.82954   0.00000  Uiso   1.00
O643   O     0.11611   0.04544   0.87136   0.00000  Uiso   1.00
O644   O     0.14420   0.06489   0.78844   0.00000  Uiso   1.00
N645   N     0.38197   0.07538   0.82930   0.00000  Uiso   1.00
O646   O     0.35593   0.06489   0.78811   0.00000  Uiso   1.00
O647   O     0.38383   0.04539   0.87113   0.00000  Uiso   1.00
N648   N     0.11801   0.25803   0.83696   0.00000  Uiso   1.00
O649   O     0.14468   0.26839   0.87760   0.00000  Uiso   1.00
O650   O     0.11540   0.28825   0.79539   0.00000  Uiso   1.00
O651   O     0.75000   0.09512   0.87895   0.00000  Uiso   1.00
O652   O     0.75000   0.23822   0.78772   0.00000  Uiso   1.00
O653   O     0.75000   0.23822   0.87895   0.00000  Uiso   1.00
O654   O     0.75000   0.09512   0.78772   0.00000  Uiso   1.00
H655   H     0.95990   0.04137   0.81737   0.00000  Uiso   1.00
H656   H     0.54007   0.29198   0.84952   0.00000  Uiso   1.00
H657   H     0.95980   0.29195   0.84952   0.00000  Uiso   1.00
H658   H     0.54019   0.04139   0.81742   0.00000  Uiso   1.00
C659   C     0.75001   0.07266   0.83332   0.00000  Uiso   1.00
C660   C     0.75002   0.26067   0.83335   0.00000  Uiso   1.00
O661   O     0.68392   0.16667   0.87896   0.00000  Uiso   1.00
O662   O     0.81607   0.16667   0.78770   0.00000  Uiso   1.00
O663   O     0.81607   0.16667   0.87896   0.00000  Uiso   1.00
O664   O     0.68392   0.16667   0.78770   0.00000  Uiso   1.00
C665   C     0.66341   0.16670   0.83333   0.00000  Uiso   1.00
C666   C     0.83658   0.16665   0.83333   0.00000  Uiso   1.00
Zn667  Zn    0.75000   0.16667   0.89426   0.00000  Uiso   1.00
Zn668  Zn    0.75000   0.16667   0.77241   0.00000  Uiso   1.00
N669   N     0.75000   0.16667   0.69121   0.00000  Uiso   1.00
N670   N     0.75000   0.16667   0.97545   0.00000  Uiso   1.00
C671   C     0.90660   0.21214   0.83654   0.00000  Uiso   1.00
C672   C     0.59339   0.12121   0.83030   0.00000  Uiso   1.00
C673   C     0.90663   0.12117   0.83019   0.00000  Uiso   1.00
C674   C     0.59336   0.21220   0.83640   0.00000  Uiso   1.00
C675   C     0.88413   0.16666   0.83334   0.00000  Uiso   1.00
C676   C     0.61586   0.16671   0.83335   0.00000  Uiso   1.00
C677   C     0.95323   0.12106   0.82919   0.00000  Uiso   1.00
C678   C     0.54675   0.21230   0.83755   0.00000  Uiso   1.00
C679   C     0.95320   0.21227   0.83761   0.00000  Uiso   1.00
C680   C     0.54679   0.12108   0.82924   0.00000  Uiso   1.00
C681   C     0.97658   0.16667   0.83340   0.00000  Uiso   1.00
C682   C     0.52341   0.16668   0.83340   0.00000  Uiso   1.00
C683   C     0.97691   0.07645   0.82301   0.00000  Uiso   1.00
C684   C     0.52307   0.25690   0.84382   0.00000  Uiso   1.00
C685   C     0.97684   0.25688   0.84384   0.00000  Uiso   1.00
C686   C     0.52314   0.07647   0.82305   0.00000  Uiso   1.00
C687   C     0.75001   0.02171   0.83331   0.00000  Uiso   1.00
C688   C     0.75002   0.31162   0.83335   0.00000  Uiso   1.00
N689   N     0.88191   0.25793   0.83741   0.00000  Uiso   1.00
O690   O     0.88378   0.28792   0.79560   0.00000  Uiso   1.00
O691   O     0.85586   0.26843   0.87860   0.00000  Uiso   1.00
N692   N     0.61808   0.07542   0.82954   0.00000  Uiso   1.00
O693   O     0.61611   0.04544   0.87136   0.00000  Uiso   1.00
O694   O     0.64420   0.06489   0.78844   0.00000  Uiso   1.00
N695   N     0.88197   0.07538   0.82930   0.00000  Uiso   1.00
O696   O     0.85593   0.06489   0.78811   0.00000  Uiso   1.00
O697   O     0.88383   0.04539   0.87113   0.00000  Uiso   1.00
N698   N     0.61801   0.25803   0.83696   0.00000  Uiso   1.00
O699   O     0.64468   0.26839   0.87760   0.00000  Uiso   1.00
O700   O     0.61540   0.28825   0.79539   0.00000  Uiso   1.00
O701   O     0.25000   0.42845   0.87895   0.00000  Uiso   1.00
O702   O     0.25000   0.57155   0.78772   0.00000  Uiso   1.00
O703   O     0.25000   0.57155   0.87895   0.00000  Uiso   1.00
O704   O     0.25000   0.42845   0.78772   0.00000  Uiso   1.00
H705   H     0.45990   0.37470   0.81737   0.00000  Uiso   1.00
H706   H     0.04007   0.62531   0.84952   0.00000  Uiso   1.00
H707   H     0.45980   0.62528   0.84952   0.00000  Uiso   1.00
H708   H     0.04019   0.37472   0.81742   0.00000  Uiso   1.00
C709   C     0.25001   0.40599   0.83332   0.00000  Uiso   1.00
C710   C     0.25002   0.59401   0.83335   0.00000  Uiso   1.00
O711   O     0.18392   0.50000   0.87896   0.00000  Uiso   1.00
O712   O     0.31607   0.50000   0.78770   0.00000  Uiso   1.00
O713   O     0.31607   0.50000   0.87896   0.00000  Uiso   1.00
O714   O     0.18392   0.50000   0.78770   0.00000  Uiso   1.00
C715   C     0.16341   0.50003   0.83333   0.00000  Uiso   1.00
C716   C     0.33658   0.49999   0.83333   0.00000  Uiso   1.00
Zn717  Zn    0.25000   0.50000   0.89426   0.00000  Uiso   1.00
Zn718  Zn    0.25000   0.50000   0.77241   0.00000  Uiso   1.00
N719   N     0.25000   0.50000   0.69121   0.00000  Uiso   1.00
N720   N     0.25000   0.50000   0.97545   0.00000  Uiso   1.00
C721   C     0.40660   0.54547   0.83654   0.00000  Uiso   1.00
C722   C     0.09339   0.45455   0.83030   0.00000  Uiso   1.00
C723   C     0.40663   0.45451   0.83019   0.00000  Uiso   1.00
C724   C     0.09336   0.54554   0.83640   0.00000  Uiso   1.00
C725   C     0.38413   0.49999   0.83334   0.00000  Uiso   1.00
C726   C     0.11586   0.50004   0.83335   0.00000  Uiso   1.00
C727   C     0.45323   0.45439   0.82919   0.00000  Uiso   1.00
C728   C     0.04675   0.54564   0.83755   0.00000  Uiso   1.00
C729   C     0.45320   0.54560   0.83761   0.00000  Uiso   1.00
C730   C     0.04679   0.45441   0.82924   0.00000  Uiso   1.00
C731   C     0.47658   0.50000   0.83340   0.00000  Uiso   1.00
C732   C     0.02341   0.50002   0.83340   0.00000  Uiso   1.00
C733   C     0.47691   0.40979   0.82301   0.00000  Uiso   1.00
C734   C     0.02307   0.59023   0.84382   0.00000  Uiso   1.00
C735   C     0.47684   0.59021   0.84384   0.00000  Uiso   1.00
C736   C     0.02314   0.40980   0.82305   0.00000  Uiso   1.00
C737   C     0.25001   0.35504   0.83331   0.00000  Uiso   1.00
C738   C     0.25002   0.64496   0.83335   0.00000  Uiso   1.00
N739   N     0.38191   0.59126   0.83741   0.00000  Uiso   1.00
O740   O     0.38378   0.62126   0.79560   0.00000  Uiso   1.00
O741   O     0.35586   0.60176   0.87860   0.00000  Uiso   1.00
N742   N     0.11808   0.40875   0.82954   0.00000  Uiso   1.00
O743   O     0.11611   0.37877   0.87136   0.00000  Uiso   1.00
O744   O     0.14420   0.39822   0.78844   0.00000  Uiso   1.00
N745   N     0.38197   0.40871   0.82930   0.00000  Uiso   1.00
O746   O     0.35593   0.39822   0.78811   0.00000  Uiso   1.00
O747   O     0.38383   0.37873   0.87113   0.00000  Uiso   1.00
N748   N     0.11801   0.59136   0.83696   0.00000  Uiso   1.00
O749   O     0.14468   0.60173   0.87760   0.00000  Uiso   1.00
O750   O     0.11540   0.62158   0.79539   0.00000  Uiso   1.00
O751   O     0.75000   0.42845   0.87895   0.00000  Uiso   1.00
O752   O     0.75000   0.57155   0.78772   0.00000  Uiso   1.00
O753   O     0.75000   0.57155   0.87895   0.00000  Uiso   1.00
O754   O     0.75000   0.42845   0.78772   0.00000  Uiso   1.00
H755   H     0.95990   0.37470   0.81737   0.00000  Uiso   1.00
H756   H     0.54007   0.62531   0.84952   0.00000  Uiso   1.00
H757   H     0.95980   0.62528   0.84952   0.00000  Uiso   1.00
H758   H     0.54019   0.37472   0.81742   0.00000  Uiso   1.00
C759   C     0.75001   0.40599   0.83332   0.00000  Uiso   1.00
C760   C     0.75002   0.59401   0.83335   0.00000  Uiso   1.00
O761   O     0.68392   0.50000   0.87896   0.00000  Uiso   1.00
O762   O     0.81607   0.50000   0.78770   0.00000  Uiso   1.00
O763   O     0.81607   0.50000   0.87896   0.00000  Uiso   1.00
O764   O     0.68392   0.50000   0.78770   0.00000  Uiso   1.00
C765   C     0.66341   0.50003   0.83333   0.00000  Uiso   1.00
C766   C     0.83658   0.49999   0.83333   0.00000  Uiso   1.00
Zn767  Zn    0.75000   0.50000   0.89426   0.00000  Uiso   1.00
Zn768  Zn    0.75000   0.50000   0.77241   0.00000  Uiso   1.00
N769   N     0.75000   0.50000   0.69121   0.00000  Uiso   1.00
N770   N     0.75000   0.50000   0.97545   0.00000  Uiso   1.00
C771   C     0.90660   0.54547   0.83654   0.00000  Uiso   1.00
C772   C     0.59339   0.45455   0.83030   0.00000  Uiso   1.00
C773   C     0.90663   0.45451   0.83019   0.00000  Uiso   1.00
C774   C     0.59336   0.54554   0.83640   0.00000  Uiso   1.00
C775   C     0.88413   0.49999   0.83334   0.00000  Uiso   1.00
C776   C     0.61586   0.50004   0.83335   0.00000  Uiso   1.00
C777   C     0.95323   0.45439   0.82919   0.00000  Uiso   1.00
C778   C     0.54675   0.54564   0.83755   0.00000  Uiso   1.00
C779   C     0.95320   0.54560   0.83761   0.00000  Uiso   1.00
C780   C     0.54679   0.45441   0.82924   0.00000  Uiso   1.00
C781   C     0.97658   0.50000   0.83340   0.00000  Uiso   1.00
C782   C     0.52341   0.50002   0.83340   0.00000  Uiso   1.00
C783   C     0.97691   0.40979   0.82301   0.00000  Uiso   1.00
C784   C     0.52307   0.59023   0.84382   0.00000  Uiso   1.00
C785   C     0.97684   0.59021   0.84384   0.00000  Uiso   1.00
C786   C     0.52314   0.40980   0.82305   0.00000  Uiso   1.00
C787   C     0.75001   0.35504   0.83331   0.00000  Uiso   1.00
C788   C     0.75002   0.64496   0.83335   0.00000  Uiso   1.00
N789   N     0.88191   0.59126   0.83741   0.00000  Uiso   1.00
O790   O     0.88378   0.62126   0.79560   0.00000  Uiso   1.00
O791   O     0.85586   0.60176   0.87860   0.00000  Uiso   1.00
N792   N     0.61808   0.40875   0.82954   0.00000  Uiso   1.00
O793   O     0.61611   0.37877   0.87136   0.00000  Uiso   1.00
O794   O     0.64420   0.39822   0.78844   0.00000  Uiso   1.00
N795   N     0.88197   0.40871   0.82930   0.00000  Uiso   1.00
O796   O     0.85593   0.39822   0.78811   0.00000  Uiso   1.00
O797   O     0.88383   0.37873   0.87113   0.00000  Uiso   1.00
N798   N     0.61801   0.59136   0.83696   0.00000  Uiso   1.00
O799   O     0.64468   0.60173   0.87760   0.00000  Uiso   1.00
O800   O     0.61540   0.62158   0.79539   0.00000  Uiso   1.00
O801   O     0.25000   0.76178   0.87895   0.00000  Uiso   1.00
O802   O     0.25000   0.90488   0.78772   0.00000  Uiso   1.00
O803   O     0.25000   0.90488   0.87895   0.00000  Uiso   1.00
O804   O     0.25000   0.76178   0.78772   0.00000  Uiso   1.00
H805   H     0.45990   0.70804   0.81737   0.00000  Uiso   1.00
H806   H     0.04007   0.95864   0.84952   0.00000  Uiso   1.00
H807   H     0.45980   0.95862   0.84952   0.00000  Uiso   1.00
H808   H     0.04019   0.70805   0.81742   0.00000  Uiso   1.00
C809   C     0.25001   0.73933   0.83332   0.00000  Uiso   1.00
C810   C     0.25002   0.92734   0.83335   0.00000  Uiso   1.00
O811   O     0.18392   0.83333   0.87896   0.00000  Uiso   1.00
O812   O     0.31607   0.83333   0.78770   0.00000  Uiso   1.00
O813   O     0.31607   0.83333   0.87896   0.00000  Uiso   1.00
O814   O     0.18392   0.83333   0.78770   0.00000  Uiso   1.00
C815   C     0.16341   0.83336   0.83333   0.00000  Uiso   1.00
C816   C     0.33658   0.83332   0.83333   0.00000  Uiso   1.00
Zn817  Zn    0.25000   0.83333   0.89426   0.00000  Uiso   1.00
Zn818  Zn    0.25000   0.83333   0.77241   0.00000  Uiso   1.00
N819   N     0.25000   0.83333   0.69121   0.00000  Uiso   1.00
N820   N     0.25000   0.83333   0.97545   0.00000  Uiso   1.00
C821   C     0.40660   0.87881   0.83654   0.00000  Uiso   1.00
C822   C     0.09339   0.78788   0.83030   0.00000  Uiso   1.00
C823   C     0.40663   0.78784   0.83019   0.00000  Uiso   1.00
C824   C     0.09336   0.87887   0.83640   0.00000  Uiso   1.00
C825   C     0.38413   0.83332   0.83334   0.00000  Uiso   1.00
C826   C     0.11586   0.83338   0.83335   0.00000  Uiso   1.00
C827   C     0.45323   0.78773   0.82919   0.00000  Uiso   1.00
C828   C     0.04675   0.87897   0.83755   0.00000  Uiso   1.00
C829   C     0.45320   0.87894   0.83761   0.00000  Uiso   1.00
C830   C     0.04679   0.78775   0.82924   0.00000  Uiso   1.00
C831   C     0.47658   0.83334   0.83340   0.00000  Uiso   1.00
C832   C     0.02341   0.83335   0.83340   0.00000  Uiso   1.00
C833   C     0.47691   0.74312   0.82301   0.00000  Uiso   1.00
C834   C     0.02307   0.92356   0.84382   0.00000  Uiso   1.00
C835   C     0.47684   0.92355   0.84384   0.00000  Uiso   1.00
C836   C     0.02314   0.74313   0.82305   0.00000  Uiso   1.00
C837   C     0.25001   0.68838   0.83331   0.00000  Uiso   1.00
C838   C     0.25002   0.97829   0.83335   0.00000  Uiso   1.00
N839   N     0.38191   0.92459   0.83741   0.00000  Uiso   1.00
O840   O     0.38378   0.95459   0.79560   0.00000  Uiso   1.00
O841   O     0.35586   0.93509   0.87860   0.00000  Uiso   1.00
N842   N     0.11808   0.74209   0.82954   0.00000  Uiso   1.00
O843   O     0.11611   0.71211   0.87136   0.00000  Uiso   1.00
O844   O     0.14420   0.73156   0.78844   0.00000  Uiso   1.00
N845   N     0.38197   0.74205   0.82930   0.00000  Uiso   1.00
O846   O     0.35593   0.73156   0.78811   0.00000  Uiso   1.00
O847   O     0.38383   0.71206   0.87113   0.00000  Uiso   1.00
N848   N     0.11801   0.92470   0.83696   0.00000  Uiso   1.00
O849   O     0.14468   0.93506   0.87760   0.00000  Uiso   1.00
O850   O     0.11540   0.95491   0.79539   0.00000  Uiso   1.00
O851   O     0.75000   0.76178   0.87895   0.00000  Uiso   1.00
O852   O     0.75000   0.90488   0.78772   0.00000  Uiso   1.00
O853   O     0.75000   0.90488   0.87895   0.00000  Uiso   1.00
O854   O     0.75000   0.76178   0.78772   0.00000  Uiso   1.00
H855   H     0.95990   0.70804   0.81737   0.00000  Uiso   1.00
H856   H     0.54007   0.95864   0.84952   0.00000  Uiso   1.00
H857   H     0.95980   0.95862   0.84952   0.00000  Uiso   1.00
H858   H     0.54019   0.70805   0.81742   0.00000  Uiso   1.00
C859   C     0.75001   0.73933   0.83332   0.00000  Uiso   1.00
C860   C     0.75002   0.92734   0.83335   0.00000  Uiso   1.00
O861   O     0.68392   0.83333   0.87896   0.00000  Uiso   1.00
O862   O     0.81607   0.83333   0.78770   0.00000  Uiso   1.00
O863   O     0.81607   0.83333   0.87896   0.00000  Uiso   1.00
O864   O     0.68392   0.83333   0.78770   0.00000  Uiso   1.00
C865   C     0.66341   0.83336   0.83333   0.00000  Uiso   1.00
C866   C     0.83658   0.83332   0.83333   0.00000  Uiso   1.00
Zn867  Zn    0.75000   0.83333   0.89426   0.00000  Uiso   1.00
Zn868  Zn    0.75000   0.83333   0.77241   0.00000  Uiso   1.00
N869   N     0.75000   0.83333   0.69121   0.00000  Uiso   1.00
N870   N     0.75000   0.83333   0.97545   0.00000  Uiso   1.00
C871   C     0.90660   0.87881   0.83654   0.00000  Uiso   1.00
C872   C     0.59339   0.78788   0.83030   0.00000  Uiso   1.00
C873   C     0.90663   0.78784   0.83019   0.00000  Uiso   1.00
C874   C     0.59336   0.87887   0.83640   0.00000  Uiso   1.00
C875   C     0.88413   0.83332   0.83334   0.00000  Uiso   1.00
C876   C     0.61586   0.83338   0.83335   0.00000  Uiso   1.00
C877   C     0.95323   0.78773   0.82919   0.00000  Uiso   1.00
C878   C     0.54675   0.87897   0.83755   0.00000  Uiso   1.00
C879   C     0.95320   0.87894   0.83761   0.00000  Uiso   1.00
C880   C     0.54679   0.78775   0.82924   0.00000  Uiso   1.00
C881   C     0.97658   0.83334   0.83340   0.00000  Uiso   1.00
C882   C     0.52341   0.83335   0.83340   0.00000  Uiso   1.00
C883   C     0.97691   0.74312   0.82301   0.00000  Uiso   1.00
C884   C     0.52307   0.92356   0.84382   0.00000  Uiso   1.00
C885   C     0.97684   0.92355   0.84384   0.00000  Uiso   1.00
C886   C     0.52314   0.74313   0.82305   0.00000  Uiso   1.00
C887   C     0.75001   0.68838   0.83331   0.00000  Uiso   1.00
C888   C     0.75002   0.97829   0.83335   0.00000  Uiso   1.00
N889   N     0.88191   0.92459   0.83741   0.00000  Uiso   1.00
O890   O     0.88378   0.95459   0.79560   0.00000  Uiso   1.00
O891   O     0.85586   0.93509   0.87860   0.00000  Uiso   1.00
N892   N     0.61808   0.74209   0.82954   0.00000  Uiso   1.00
O893   O     0.61611   0.71211   0.87136   0.00000  Uiso   1.00
O894   O     0.64420   0.73156   0.78844   0.00000  Uiso   1.00
N895   N     0.88197   0.74205   0.82930   0.00000  Uiso   1.00
O896   O     0.85593   0.73156   0.78811   0.00000  Uiso   1.00
O897   O     0.88383   0.71206   0.87113   0.00000  Uiso   1.00
N898   N     0.61801   0.92470   0.83696   0.00000  Uiso   1.00
O899   O     0.64468   0.93506   0.87760   0.00000  Uiso   1.00
O900   O     0.61540   0.95491   0.79539   0.00000  Uiso   1.00
loop_
_geom_bond_atom_site_label_1
_geom_bond_atom_site_label_2
_geom_bond_distance
_geom_bond_site_symmetry_2
_ccdc_geom_bond_type
O1     Zn17    1.959   .     S
O1     C9      1.264   .     A
O2     Zn18    1.959   .     S
O2     C10     1.264   .     A
O3     C10     1.265   .     A
O3     Zn17    1.960   .     S
O4     Zn18    1.960   .     S
O4     C9      1.265   .     A
H5     C33     1.081   .     S
H6     C34     1.081   .     S
H7     C35     1.081   .     S
H8     C36     1.081   .     S
C9     C37     1.370   .     S
C10    C38     1.370   .     S
O11    C15     1.269   .     A
O11    Zn17    2.012   .     S
O12    C16     1.269   .     A
O12    Zn18    2.012   .     S
O13    Zn17    2.012   .     S
O13    C16     1.269   .     A
O14    Zn18    2.012   .     S
O14    C15     1.269   .     A
C15    C26     1.423   .     S
C16    C25     1.423   .     S
Zn17   N20     1.977   .     S
Zn18   N19     1.977   .     S
N19    N620    1.195   1_554 S
N20    N319    1.195   .     S
C21    N39     1.436   .     S
C21    C25     1.398   .     A
C21    C29     1.395   .     A
C22    N42     1.436   .     S
C22    C26     1.398   .     A
C22    C30     1.395   .     A
C23    N45     1.436   .     S
C23    C25     1.398   .     A
C23    C27     1.395   .     A
C24    C28     1.395   .     A
C24    C26     1.398   .     A
C24    N48     1.436   .     S
C27    C33     1.401   .     A
C27    C31     1.415   .     A
C28    C34     1.401   .     A
C28    C32     1.415   .     A
C29    C31     1.415   .     A
C29    C35     1.401   .     A
C30    C36     1.401   .     A
C30    C32     1.415   .     A
C31    C82     1.401   .     S
C32    C81     1.401   1_455 S
C33    C86     1.383   .     S
C34    C85     1.383   1_455 S
C35    C84     1.383   .     S
C36    C83     1.383   1_455 S
C37    C238    1.168   1_545 S
C38    C137    1.168   .     S
N39    O40     1.301   .     A
N39    O41     1.301   .     A
N42    O44     1.301   .     A
N42    O43     1.301   .     A
N45    O46     1.301   .     A
N45    O47     1.301   .     A
N48    O50     1.301   .     A
N48    O49     1.301   .     A
O51    Zn67    1.959   .     S
O51    C59     1.264   .     A
O52    Zn68    1.959   .     S
O52    C60     1.264   .     A
O53    C60     1.265   .     A
O53    Zn67    1.960   .     S
O54    Zn68    1.960   .     S
O54    C59     1.265   .     A
H55    C83     1.081   .     S
H56    C84     1.081   .     S
H57    C85     1.081   .     S
H58    C86     1.081   .     S
C59    C87     1.370   .     S
C60    C88     1.370   .     S
O61    C65     1.269   .     A
O61    Zn67    2.012   .     S
O62    C66     1.269   .     A
O62    Zn68    2.012   .     S
O63    Zn67    2.012   .     S
O63    C66     1.269   .     A
O64    Zn68    2.012   .     S
O64    C65     1.269   .     A
C65    C76     1.423   .     S
C66    C75     1.423   .     S
Zn67   N70     1.977   .     S
Zn68   N69     1.977   .     S
N69    N670    1.195   1_554 S
N70    N369    1.195   .     S
C71    N89     1.436   .     S
C71    C75     1.398   .     A
C71    C79     1.395   .     A
C72    N92     1.436   .     S
C72    C76     1.398   .     A
C72    C80     1.395   .     A
C73    N95     1.436   .     S
C73    C75     1.398   .     A
C73    C77     1.395   .     A
C74    C78     1.395   .     A
C74    C76     1.398   .     A
C74    N98     1.436   .     S
C77    C83     1.401   .     A
C77    C81     1.415   .     A
C78    C84     1.401   .     A
C78    C82     1.415   .     A
C79    C81     1.415   .     A
C79    C85     1.401   .     A
C80    C86     1.401   .     A
C80    C82     1.415   .     A
C81    C32     1.401   1_655 S
C83    C36     1.383   1_655 S
C85    C34     1.383   1_655 S
C87    C288    1.168   1_545 S
C88    C187    1.168   .     S
N89    O90     1.301   .     A
N89    O91     1.301   .     A
N92    O94     1.301   .     A
N92    O93     1.301   .     A
N95    O96     1.301   .     A
N95    O97     1.301   .     A
N98    O100    1.301   .     A
N98    O99     1.301   .     A
O101   Zn117   1.959   .     S
O101   C109    1.264   .     A
O102   Zn118   1.959   .     S
O102   C110    1.264   .     A
O103   C110    1.265   .     A
O103   Zn117   1.960   .     S
O104   Zn118   1.960   .     S
O104   C109    1.265   .     A
H105   C133    1.081   .     S
H106   C134    1.081   .     S
H107   C135    1.081   .     S
H108   C136    1.081   .     S
C109   C137    1.370   .     S
C110   C138    1.370   .     S
O111   C115    1.269   .     A
O111   Zn117   2.012   .     S
O112   C116    1.269   .     A
O112   Zn118   2.012   .     S
O113   Zn117   2.012   .     S
O113   C116    1.269   .     A
O114   Zn118   2.012   .     S
O114   C115    1.269   .     A
C115   C126    1.423   .     S
C116   C125    1.423   .     S
Zn117  N120    1.977   .     S
Zn118  N119    1.977   .     S
N119   N720    1.195   1_554 S
N120   N419    1.195   .     S
C121   N139    1.436   .     S
C121   C125    1.398   .     A
C121   C129    1.395   .     A
C122   N142    1.436   .     S
C122   C126    1.398   .     A
C122   C130    1.395   .     A
C123   N145    1.436   .     S
C123   C125    1.398   .     A
C123   C127    1.395   .     A
C124   C128    1.395   .     A
C124   C126    1.398   .     A
C124   N148    1.436   .     S
C127   C133    1.401   .     A
C127   C131    1.415   .     A
C128   C134    1.401   .     A
C128   C132    1.415   .     A
C129   C131    1.415   .     A
C129   C135    1.401   .     A
C130   C136    1.401   .     A
C130   C132    1.415   .     A
C131   C182    1.401   .     S
C132   C181    1.401   1_455 S
C133   C186    1.383   .     S
C134   C185    1.383   1_455 S
C135   C184    1.383   .     S
C136   C183    1.383   1_455 S
C138   C237    1.168   .     S
N139   O140    1.301   .     A
N139   O141    1.301   .     A
N142   O144    1.301   .     A
N142   O143    1.301   .     A
N145   O146    1.301   .     A
N145   O147    1.301   .     A
N148   O150    1.301   .     A
N148   O149    1.301   .     A
O151   Zn167   1.959   .     S
O151   C159    1.264   .     A
O152   Zn168   1.959   .     S
O152   C160    1.264   .     A
O153   C160    1.265   .     A
O153   Zn167   1.960   .     S
O154   Zn168   1.960   .     S
O154   C159    1.265   .     A
H155   C183    1.081   .     S
H156   C184    1.081   .     S
H157   C185    1.081   .     S
H158   C186    1.081   .     S
C159   C187    1.370   .     S
C160   C188    1.370   .     S
O161   C165    1.269   .     A
O161   Zn167   2.012   .     S
O162   C166    1.269   .     A
O162   Zn168   2.012   .     S
O163   Zn167   2.012   .     S
O163   C166    1.269   .     A
O164   Zn168   2.012   .     S
O164   C165    1.269   .     A
C165   C176    1.423   .     S
C166   C175    1.423   .     S
Zn167  N170    1.977   .     S
Zn168  N169    1.977   .     S
N169   N770    1.195   1_554 S
N170   N469    1.195   .     S
C171   N189    1.436   .     S
C171   C175    1.398   .     A
C171   C179    1.395   .     A
C172   N192    1.436   .     S
C172   C176    1.398   .     A
C172   C180    1.395   .     A
C173   N195    1.436   .     S
C173   C175    1.398   .     A
C173   C177    1.395   .     A
C174   C178    1.395   .     A
C174   C176    1.398   .     A
C174   N198    1.436   .     S
C177   C183    1.401   .     A
C177   C181    1.415   .     A
C178   C184    1.401   .     A
C178   C182    1.415   .     A
C179   C181    1.415   .     A
C179   C185    1.401   .     A
C180   C186    1.401   .     A
C180   C182    1.415   .     A
C181   C132    1.401   1_655 S
C183   C136    1.383   1_655 S
C185   C134    1.383   1_655 S
C188   C287    1.168   .     S
N189   O190    1.301   .     A
N189   O191    1.301   .     A
N192   O194    1.301   .     A
N192   O193    1.301   .     A
N195   O196    1.301   .     A
N195   O197    1.301   .     A
N198   O200    1.301   .     A
N198   O199    1.301   .     A
O201   Zn217   1.959   .     S
O201   C209    1.264   .     A
O202   Zn218   1.959   .     S
O202   C210    1.264   .     A
O203   C210    1.265   .     A
O203   Zn217   1.960   .     S
O204   Zn218   1.960   .     S
O204   C209    1.265   .     A
H205   C233    1.081   .     S
H206   C234    1.081   .     S
H207   C235    1.081   .     S
H208   C236    1.081   .     S
C209   C237    1.370   .     S
C210   C238    1.370   .     S
O211   C215    1.269   .     A
O211   Zn217   2.012   .     S
O212   C216    1.269   .     A
O212   Zn218   2.012   .     S
O213   Zn217   2.012   .     S
O213   C216    1.269   .     A
O214   Zn218   2.012   .     S
O214   C215    1.269   .     A
C215   C226    1.423   .     S
C216   C225    1.423   .     S
Zn217  N220    1.977   .     S
Zn218  N219    1.977   .     S
N219   N820    1.195   1_554 S
N220   N519    1.195   .     S
C221   N239    1.436   .     S
C221   C225    1.398   .     A
C221   C229    1.395   .     A
C222   N242    1.436   .     S
C222   C226    1.398   .     A
C222   C230    1.395   .     A
C223   N245    1.436   .     S
C223   C225    1.398   .     A
C223   C227    1.395   .     A
C224   C228    1.395   .     A
C224   C226    1.398   .     A
C224   N248    1.436   .     S
C227   C233    1.401   .     A
C227   C231    1.415   .     A
C228   C234    1.401   .     A
C228   C232    1.415   .     A
C229   C231    1.415   .     A
C229   C235    1.401   .     A
C230   C236    1.401   .     A
C230   C232    1.415   .     A
C231   C282    1.401   .     S
C232   C281    1.401   1_455 S
C233   C286    1.383   .     S
C234   C285    1.383   1_455 S
C235   C284    1.383   .     S
C236   C283    1.383   1_455 S
C238   C37     1.168   1_565 S
N239   O240    1.301   .     A
N239   O241    1.301   .     A
N242   O244    1.301   .     A
N242   O243    1.301   .     A
N245   O246    1.301   .     A
N245   O247    1.301   .     A
N248   O250    1.301   .     A
N248   O249    1.301   .     A
O251   Zn267   1.959   .     S
O251   C259    1.264   .     A
O252   Zn268   1.959   .     S
O252   C260    1.264   .     A
O253   C260    1.265   .     A
O253   Zn267   1.960   .     S
O254   Zn268   1.960   .     S
O254   C259    1.265   .     A
H255   C283    1.081   .     S
H256   C284    1.081   .     S
H257   C285    1.081   .     S
H258   C286    1.081   .     S
C259   C287    1.370   .     S
C260   C288    1.370   .     S
O261   C265    1.269   .     A
O261   Zn267   2.012   .     S
O262   C266    1.269   .     A
O262   Zn268   2.012   .     S
O263   Zn267   2.012   .     S
O263   C266    1.269   .     A
O264   Zn268   2.012   .     S
O264   C265    1.269   .     A
C265   C276    1.423   .     S
C266   C275    1.423   .     S
Zn267  N270    1.977   .     S
Zn268  N269    1.977   .     S
N269   N870    1.195   1_554 S
N270   N569    1.195   .     S
C271   N289    1.436   .     S
C271   C275    1.398   .     A
C271   C279    1.395   .     A
C272   N292    1.436   .     S
C272   C276    1.398   .     A
C272   C280    1.395   .     A
C273   N295    1.436   .     S
C273   C275    1.398   .     A
C273   C277    1.395   .     A
C274   C278    1.395   .     A
C274   C276    1.398   .     A
C274   N298    1.436   .     S
C277   C283    1.401   .     A
C277   C281    1.415   .     A
C278   C284    1.401   .     A
C278   C282    1.415   .     A
C279   C281    1.415   .     A
C279   C285    1.401   .     A
C280   C286    1.401   .     A
C280   C282    1.415   .     A
C281   C232    1.401   1_655 S
C283   C236    1.383   1_655 S
C285   C234    1.383   1_655 S
C288   C87     1.168   1_565 S
N289   O290    1.301   .     A
N289   O291    1.301   .     A
N292   O294    1.301   .     A
N292   O293    1.301   .     A
N295   O296    1.301   .     A
N295   O297    1.301   .     A
N298   O300    1.301   .     A
N298   O299    1.301   .     A
O301   Zn317   1.959   .     S
O301   C309    1.264   .     A
O302   Zn318   1.959   .     S
O302   C310    1.264   .     A
O303   C310    1.265   .     A
O303   Zn317   1.960   .     S
O304   Zn318   1.960   .     S
O304   C309    1.265   .     A
H305   C333    1.081   .     S
H306   C334    1.081   .     S
H307   C335    1.081   .     S
H308   C336    1.081   .     S
C309   C337    1.370   .     S
C310   C338    1.370   .     S
O311   C315    1.269   .     A
O311   Zn317   2.012   .     S
O312   C316    1.269   .     A
O312   Zn318   2.012   .     S
O313   Zn317   2.012   .     S
O313   C316    1.269   .     A
O314   Zn318   2.012   .     S
O314   C315    1.269   .     A
C315   C326    1.423   .     S
C316   C325    1.423   .     S
Zn317  N320    1.977   .     S
Zn318  N319    1.977   .     S
N320   N619    1.195   .     S
C321   N339    1.436   .     S
C321   C325    1.398   .     A
C321   C329    1.395   .     A
C322   N342    1.436   .     S
C322   C326    1.398   .     A
C322   C330    1.395   .     A
C323   N345    1.436   .     S
C323   C325    1.398   .     A
C323   C327    1.395   .     A
C324   C328    1.395   .     A
C324   C326    1.398   .     A
C324   N348    1.436   .     S
C327   C333    1.401   .     A
C327   C331    1.415   .     A
C328   C334    1.401   .     A
C328   C332    1.415   .     A
C329   C331    1.415   .     A
C329   C335    1.401   .     A
C330   C336    1.401   .     A
C330   C332    1.415   .     A
C331   C382    1.401   .     S
C332   C381    1.401   1_455 S
C333   C386    1.383   .     S
C334   C385    1.383   1_455 S
C335   C384    1.383   .     S
C336   C383    1.383   1_455 S
C337   C538    1.168   1_545 S
C338   C437    1.168   .     S
N339   O340    1.301   .     A
N339   O341    1.301   .     A
N342   O344    1.301   .     A
N342   O343    1.301   .     A
N345   O346    1.301   .     A
N345   O347    1.301   .     A
N348   O350    1.301   .     A
N348   O349    1.301   .     A
O351   Zn367   1.959   .     S
O351   C359    1.264   .     A
O352   Zn368   1.959   .     S
O352   C360    1.264   .     A
O353   C360    1.265   .     A
O353   Zn367   1.960   .     S
O354   Zn368   1.960   .     S
O354   C359    1.265   .     A
H355   C383    1.081   .     S
H356   C384    1.081   .     S
H357   C385    1.081   .     S
H358   C386    1.081   .     S
C359   C387    1.370   .     S
C360   C388    1.370   .     S
O361   C365    1.269   .     A
O361   Zn367   2.012   .     S
O362   C366    1.269   .     A
O362   Zn368   2.012   .     S
O363   Zn367   2.012   .     S
O363   C366    1.269   .     A
O364   Zn368   2.012   .     S
O364   C365    1.269   .     A
C365   C376    1.423   .     S
C366   C375    1.423   .     S
Zn367  N370    1.977   .     S
Zn368  N369    1.977   .     S
N370   N669    1.195   .     S
C371   N389    1.436   .     S
C371   C375    1.398   .     A
C371   C379    1.395   .     A
C372   N392    1.436   .     S
C372   C376    1.398   .     A
C372   C380    1.395   .     A
C373   N395    1.436   .     S
C373   C375    1.398   .     A
C373   C377    1.395   .     A
C374   C378    1.395   .     A
C374   C376    1.398   .     A
C374   N398    1.436   .     S
C377   C383    1.401   .     A
C377   C381    1.415   .     A
C378   C384    1.401   .     A
C378   C382    1.415   .     A
C379   C381    1.415   .     A
C379   C385    1.401   .     A
C380   C386    1.401   .     A
C380   C382    1.415   .     A
C381   C332    1.401   1_655 S
C383   C336    1.383   1_655 S
C385   C334    1.383   1_655 S
C387   C588    1.168   1_545 S
C388   C487    1.168   .     S
N389   O390    1.301   .     A
N389   O391    1.301   .     A
N392   O394    1.301   .     A
N392   O393    1.301   .     A
N395   O396    1.301   .     A
N395   O397    1.301   .     A
N398   O400    1.301   .     A
N398   O399    1.301   .     A
O401   Zn417   1.959   .     S
O401   C409    1.264   .     A
O402   Zn418   1.959   .     S
O402   C410    1.264   .     A
O403   C410    1.265   .     A
O403   Zn417   1.960   .     S
O404   Zn418   1.960   .     S
O404   C409    1.265   .     A
H405   C433    1.081   .     S
H406   C434    1.081   .     S
H407   C435    1.081   .     S
H408   C436    1.081   .     S
C409   C437    1.370   .     S
C410   C438    1.370   .     S
O411   C415    1.269   .     A
O411   Zn417   2.012   .     S
O412   C416    1.269   .     A
O412   Zn418   2.012   .     S
O413   Zn417   2.012   .     S
O413   C416    1.269   .     A
O414   Zn418   2.012   .     S
O414   C415    1.269   .     A
C415   C426    1.423   .     S
C416   C425    1.423   .     S
Zn417  N420    1.977   .     S
Zn418  N419    1.977   .     S
N420   N719    1.195   .     S
C421   N439    1.436   .     S
C421   C425    1.398   .     A
C421   C429    1.395   .     A
C422   N442    1.436   .     S
C422   C426    1.398   .     A
C422   C430    1.395   .     A
C423   N445    1.436   .     S
C423   C425    1.398   .     A
C423   C427    1.395   .     A
C424   C428    1.395   .     A
C424   C426    1.398   .     A
C424   N448    1.436   .     S
C427   C433    1.401   .     A
C427   C431    1.415   .     A
C428   C434    1.401   .     A
C428   C432    1.415   .     A
C429   C431    1.415   .     A
C429   C435    1.401   .     A
C430   C436    1.401   .     A
C430   C432    1.415   .     A
C431   C482    1.401   .     S
C432   C481    1.401   1_455 S
C433   C486    1.383   .     S
C434   C485    1.383   1_455 S
C435   C484    1.383   .     S
C436   C483    1.383   1_455 S
C438   C537    1.168   .     S
N439   O440    1.301   .     A
N439   O441    1.301   .     A
N442   O444    1.301   .     A
N442   O443    1.301   .     A
N445   O446    1.301   .     A
N445   O447    1.301   .     A
N448   O450    1.301   .     A
N448   O449    1.301   .     A
O451   Zn467   1.959   .     S
O451   C459    1.264   .     A
O452   Zn468   1.959   .     S
O452   C460    1.264   .     A
O453   C460    1.265   .     A
O453   Zn467   1.960   .     S
O454   Zn468   1.960   .     S
O454   C459    1.265   .     A
H455   C483    1.081   .     S
H456   C484    1.081   .     S
H457   C485    1.081   .     S
H458   C486    1.081   .     S
C459   C487    1.370   .     S
C460   C488    1.370   .     S
O461   C465    1.269   .     A
O461   Zn467   2.012   .     S
O462   C466    1.269   .     A
O462   Zn468   2.012   .     S
O463   Zn467   2.012   .     S
O463   C466    1.269   .     A
O464   Zn468   2.012   .     S
O464   C465    1.269   .     A
C465   C476    1.423   .     S
C466   C475    1.423   .     S
Zn467  N470    1.977   .     S
Zn468  N469    1.977   .     S
N470   N769    1.195   .     S
C471   N489    1.436   .     S
C471   C475    1.398   .     A
C471   C479    1.395   .     A
C472   N492    1.436   .     S
C472   C476    1.398   .     A
C472   C480    1.395   .     A
C473   N495    1.436   .     S
C473   C475    1.398   .     A
C473   C477    1.395   .     A
C474   C478    1.395   .     A
C474   C476    1.398   .     A
C474   N498    1.436   .     S
C477   C483    1.401   .     A
C477   C481    1.415   .     A
C478   C484    1.401   .     A
C478   C482    1.415   .     A
C479   C481    1.415   .     A
C479   C485    1.401   .     A
C480   C486    1.401   .     A
C480   C482    1.415   .     A
C481   C432    1.401   1_655 S
C483   C436    1.383   1_655 S
C485   C434    1.383   1_655 S
C488   C587    1.168   .     S
N489   O490    1.301   .     A
N489   O491    1.301   .     A
N492   O494    1.301   .     A
N492   O493    1.301   .     A
N495   O496    1.301   .     A
N495   O497    1.301   .     A
N498   O500    1.301   .     A
N498   O499    1.301   .     A
O501   Zn517   1.959   .     S
O501   C509    1.264   .     A
O502   Zn518   1.959   .     S
O502   C510    1.264   .     A
O503   C510    1.265   .     A
O503   Zn517   1.960   .     S
O504   Zn518   1.960   .     S
O504   C509    1.265   .     A
H505   C533    1.081   .     S
H506   C534    1.081   .     S
H507   C535    1.081   .     S
H508   C536    1.081   .     S
C509   C537    1.370   .     S
C510   C538    1.370   .     S
O511   C515    1.269   .     A
O511   Zn517   2.012   .     S
O512   C516    1.269   .     A
O512   Zn518   2.012   .     S
O513   Zn517   2.012   .     S
O513   C516    1.269   .     A
O514   Zn518   2.012   .     S
O514   C515    1.269   .     A
C515   C526    1.423   .     S
C516   C525    1.423   .     S
Zn517  N520    1.977   .     S
Zn518  N519    1.977   .     S
N520   N819    1.195   .     S
C521   N539    1.436   .     S
C521   C525    1.398   .     A
C521   C529    1.395   .     A
C522   N542    1.436   .     S
C522   C526    1.398   .     A
C522   C530    1.395   .     A
C523   N545    1.436   .     S
C523   C525    1.398   .     A
C523   C527    1.395   .     A
C524   C528    1.395   .     A
C524   C526    1.398   .     A
C524   N548    1.436   .     S
C527   C533    1.401   .     A
C527   C531    1.415   .     A
C528   C534    1.401   .     A
C528   C532    1.415   .     A
C529   C531    1.415   .     A
C529   C535    1.401   .     A
C530   C536    1.401   .     A
C530   C532    1.415   .     A
C531   C582    1.401   .     S
C532   C581    1.401   1_455 S
C533   C586    1.383   .     S
C534   C585    1.383   1_455 S
C535   C584    1.383   .     S
C536   C583    1.383   1_455 S
C538   C337    1.168   1_565 S
N539   O540    1.301   .     A
N539   O541    1.301   .     A
N542   O544    1.301   .     A
N542   O543    1.301   .     A
N545   O546    1.301   .     A
N545   O547    1.301   .     A
N548   O550    1.301   .     A
N548   O549    1.301   .     A
O551   Zn567   1.959   .     S
O551   C559    1.264   .     A
O552   Zn568   1.959   .     S
O552   C560    1.264   .     A
O553   C560    1.265   .     A
O553   Zn567   1.960   .     S
O554   Zn568   1.960   .     S
O554   C559    1.265   .     A
H555   C583    1.081   .     S
H556   C584    1.081   .     S
H557   C585    1.081   .     S
H558   C586    1.081   .     S
C559   C587    1.370   .     S
C560   C588    1.370   .     S
O561   C565    1.269   .     A
O561   Zn567   2.012   .     S
O562   C566    1.269   .     A
O562   Zn568   2.012   .     S
O563   Zn567   2.012   .     S
O563   C566    1.269   .     A
O564   Zn568   2.012   .     S
O564   C565    1.269   .     A
C565   C576    1.423   .     S
C566   C575    1.423   .     S
Zn567  N570    1.977   .     S
Zn568  N569    1.977   .     S
N570   N869    1.195   .     S
C571   N589    1.436   .     S
C571   C575    1.398   .     A
C571   C579    1.395   .     A
C572   N592    1.436   .     S
C572   C576    1.398   .     A
C572   C580    1.395   .     A
C573   N595    1.436   .     S
C573   C575    1.398   .     A
C573   C577    1.395   .     A
C574   C578    1.395   .     A
C574   C576    1.398   .     A
C574   N598    1.436   .     S
C577   C583    1.401   .     A
C577   C581    1.415   .     A
C578   C584    1.401   .     A
C578   C582    1.415   .     A
C579   C581    1.415   .     A
C579   C585    1.401   .     A
C580   C586    1.401   .     A
C580   C582    1.415   .     A
C581   C532    1.401   1_655 S
C583   C536    1.383   1_655 S
C585   C534    1.383   1_655 S
C588   C387    1.168   1_565 S
N589   O590    1.301   .     A
N589   O591    1.301   .     A
N592   O594    1.301   .     A
N592   O593    1.301   .     A
N595   O596    1.301   .     A
N595   O597    1.301   .     A
N598   O600    1.301   .     A
N598   O599    1.301   .     A
O601   Zn617   1.959   .     S
O601   C609    1.264   .     A
O602   Zn618   1.959   .     S
O602   C610    1.264   .     A
O603   C610    1.265   .     A
O603   Zn617   1.960   .     S
O604   Zn618   1.960   .     S
O604   C609    1.265   .     A
H605   C633    1.081   .     S
H606   C634    1.081   .     S
H607   C635    1.081   .     S
H608   C636    1.081   .     S
C609   C637    1.370   .     S
C610   C638    1.370   .     S
O611   C615    1.269   .     A
O611   Zn617   2.012   .     S
O612   C616    1.269   .     A
O612   Zn618   2.012   .     S
O613   Zn617   2.012   .     S
O613   C616    1.269   .     A
O614   Zn618   2.012   .     S
O614   C615    1.269   .     A
C615   C626    1.423   .     S
C616   C625    1.423   .     S
Zn617  N620    1.977   .     S
Zn618  N619    1.977   .     S
N620   N19     1.195   1_556 S
C621   N639    1.436   .     S
C621   C625    1.398   .     A
C621   C629    1.395   .     A
C622   N642    1.436   .     S
C622   C626    1.398   .     A
C622   C630    1.395   .     A
C623   N645    1.436   .     S
C623   C625    1.398   .     A
C623   C627    1.395   .     A
C624   C628    1.395   .     A
C624   C626    1.398   .     A
C624   N648    1.436   .     S
C627   C633    1.401   .     A
C627   C631    1.415   .     A
C628   C634    1.401   .     A
C628   C632    1.415   .     A
C629   C631    1.415   .     A
C629   C635    1.401   .     A
C630   C636    1.401   .     A
C630   C632    1.415   .     A
C631   C682    1.401   .     S
C632   C681    1.401   1_455 S
C633   C686    1.383   .     S
C634   C685    1.383   1_455 S
C635   C684    1.383   .     S
C636   C683    1.383   1_455 S
C637   C838    1.168   1_545 S
C638   C737    1.168   .     S
N639   O640    1.301   .     A
N639   O641    1.301   .     A
N642   O644    1.301   .     A
N642   O643    1.301   .     A
N645   O646    1.301   .     A
N645   O647    1.301   .     A
N648   O650    1.301   .     A
N648   O649    1.301   .     A
O651   Zn667   1.959   .     S
O651   C659    1.264   .     A
O652   Zn668   1.959   .     S
O652   C660    1.264   .     A
O653   C660    1.265   .     A
O653   Zn667   1.960   .     S
O654   Zn668   1.960   .     S
O654   C659    1.265   .     A
H655   C683    1.081   .     S
H656   C684    1.081   .     S
H657   C685    1.081   .     S
H658   C686    1.081   .     S
C659   C687    1.370   .     S
C660   C688    1.370   .     S
O661   C665    1.269   .     A
O661   Zn667   2.012   .     S
O662   C666    1.269   .     A
O662   Zn668   2.012   .     S
O663   Zn667   2.012   .     S
O663   C666    1.269   .     A
O664   Zn668   2.012   .     S
O664   C665    1.269   .     A
C665   C676    1.423   .     S
C666   C675    1.423   .     S
Zn667  N670    1.977   .     S
Zn668  N669    1.977   .     S
N670   N69     1.195   1_556 S
C671   N689    1.436   .     S
C671   C675    1.398   .     A
C671   C679    1.395   .     A
C672   N692    1.436   .     S
C672   C676    1.398   .     A
C672   C680    1.395   .     A
C673   N695    1.436   .     S
C673   C675    1.398   .     A
C673   C677    1.395   .     A
C674   C678    1.395   .     A
C674   C676    1.398   .     A
C674   N698    1.436   .     S
C677   C683    1.401   .     A
C677   C681    1.415   .     A
C678   C684    1.401   .     A
C678   C682    1.415   .     A
C679   C681    1.415   .     A
C679   C685    1.401   .     A
C680   C686    1.401   .     A
C680   C682    1.415   .     A
C681   C632    1.401   1_655 S
C683   C636    1.383   1_655 S
C685   C634    1.383   1_655 S
C687   C888    1.168   1_545 S
C688   C787    1.168   .     S
N689   O690    1.301   .     A
N689   O691    1.301   .     A
N692   O694    1.301   .     A
N692   O693    1.301   .     A
N695   O696    1.301   .     A
N695   O697    1.301   .     A
N698   O700    1.301   .     A
N698   O699    1.301   .     A
O701   Zn717   1.959   .     S
O701   C709    1.264   .     A
O702   Zn718   1.959   .     S
O702   C710    1.264   .     A
O703   C710    1.265   .     A
O703   Zn717   1.960   .     S
O704   Zn718   1.960   .     S
O704   C709    1.265   .     A
H705   C733    1.081   .     S
H706   C734    1.081   .     S
H707   C735    1.081   .     S
H708   C736    1.081   .     S
C709   C737    1.370   .     S
C710   C738    1.370   .     S
O711   C715    1.269   .     A
O711   Zn717   2.012   .     S
O712   C716    1.269   .     A
O712   Zn718   2.012   .     S
O713   Zn717   2.012   .     S
O713   C716    1.269   .     A
O714   Zn718   2.012   .     S
O714   C715    1.269   .     A
C715   C726    1.423   .     S
C716   C725    1.423   .     S
Zn717  N720    1.977   .     S
Zn718  N719    1.977   .     S
N720   N119    1.195   1_556 S
C721   N739    1.436   .     S
C721   C725    1.398   .     A
C721   C729    1.395   .     A
C722   N742    1.436   .     S
C722   C726    1.398   .     A
C722   C730    1.395   .     A
C723   N745    1.436   .     S
C723   C725    1.398   .     A
C723   C727    1.395   .     A
C724   C728    1.395   .     A
C724   C726    1.398   .     A
C724   N748    1.436   .     S
C727   C733    1.401   .     A
C727   C731    1.415   .     A
C728   C734    1.401   .     A
C728   C732    1.415   .     A
C729   C731    1.415   .     A
C729   C735    1.401   .     A
C730   C736    1.401   .     A
C730   C732    1.415   .     A
C731   C782    1.401   .     S
C732   C781    1.401   1_455 S
C733   C786    1.383   .     S
C734   C785    1.383   1_455 S
C735   C784    1.383   .     S
C736   C783    1.383   1_455 S
C738   C837    1.168   .     S
N739   O740    1.301   .     A
N739   O741    1.301   .     A
N742   O744    1.301   .     A
N742   O743    1.301   .     A
N745   O746    1.301   .     A
N745   O747    1.301   .     A
N748   O750    1.301   .     A
N748   O749    1.301   .     A
O751   Zn767   1.959   .     S
O751   C759    1.264   .     A
O752   Zn768   1.959   .     S
O752   C760    1.264   .     A
O753   C760    1.265   .     A
O753   Zn767   1.960   .     S
O754   Zn768   1.960   .     S
O754   C759    1.265   .     A
H755   C783    1.081   .     S
H756   C784    1.081   .     S
H757   C785    1.081   .     S
H758   C786    1.081   .     S
C759   C787    1.370   .     S
C760   C788    1.370   .     S
O761   C765    1.269   .     A
O761   Zn767   2.012   .     S
O762   C766    1.269   .     A
O762   Zn768   2.012   .     S
O763   Zn767   2.012   .     S
O763   C766    1.269   .     A
O764   Zn768   2.012   .     S
O764   C765    1.269   .     A
C765   C776    1.423   .     S
C766   C775    1.423   .     S
Zn767  N770    1.977   .     S
Zn768  N769    1.977   .     S
N770   N169    1.195   1_556 S
C771   N789    1.436   .     S
C771   C775    1.398   .     A
C771   C779    1.395   .     A
C772   N792    1.436   .     S
C772   C776    1.398   .     A
C772   C780    1.395   .     A
C773   N795    1.436   .     S
C773   C775    1.398   .     A
C773   C777    1.395   .     A
C774   C778    1.395   .     A
C774   C776    1.398   .     A
C774   N798    1.436   .     S
C777   C783    1.401   .     A
C777   C781    1.415   .     A
C778   C784    1.401   .     A
C778   C782    1.415   .     A
C779   C781    1.415   .     A
C779   C785    1.401   .     A
C780   C786    1.401   .     A
C780   C782    1.415   .     A
C781   C732    1.401   1_655 S
C783   C736    1.383   1_655 S
C785   C734    1.383   1_655 S
C788   C887    1.168   .     S
N789   O790    1.301   .     A
N789   O791    1.301   .     A
N792   O794    1.301   .     A
N792   O793    1.301   .     A
N795   O796    1.301   .     A
N795   O797    1.301   .     A
N798   O800    1.301   .     A
N798   O799    1.301   .     A
O801   Zn817   1.959   .     S
O801   C809    1.264   .     A
O802   Zn818   1.959   .     S
O802   C810    1.264   .     A
O803   C810    1.265   .     A
O803   Zn817   1.960   .     S
O804   Zn818   1.960   .     S
O804   C809    1.265   .     A
H805   C833    1.081   .     S
H806   C834    1.081   .     S
H807   C835    1.081   .     S
H808   C836    1.081   .     S
C809   C837    1.370   .     S
C810   C838    1.370   .     S
O811   C815    1.269   .     A
O811   Zn817   2.012   .     S
O812   C816    1.269   .     A
O812   Zn818   2.012   .     S
O813   Zn817   2.012   .     S
O813   C816    1.269   .     A
O814   Zn818   2.012   .     S
O814   C815    1.269   .     A
C815   C826    1.423   .     S
C816   C825    1.423   .     S
Zn817  N820    1.977   .     S
Zn818  N819    1.977   .     S
N820   N219    1.195   1_556 S
C821   N839    1.436   .     S
C821   C825    1.398   .     A
C821   C829    1.395   .     A
C822   N842    1.436   .     S
C822   C826    1.398   .     A
C822   C830    1.395   .     A
C823   N845    1.436   .     S
C823   C825    1.398   .     A
C823   C827    1.395   .     A
C824   C828    1.395   .     A
C824   C826    1.398   .     A
C824   N848    1.436   .     S
C827   C833    1.401   .     A
C827   C831    1.415   .     A
C828   C834    1.401   .     A
C828   C832    1.415   .     A
C829   C831    1.415   .     A
C829   C835    1.401   .     A
C830   C836    1.401   .     A
C830   C832    1.415   .     A
C831   C882    1.401   .     S
C832   C881    1.401   1_455 S
C833   C886    1.383   .     S
C834   C885    1.383   1_455 S
C835   C884    1.383   .     S
C836   C883    1.383   1_455 S
C838   C637    1.168   1_565 S
N839   O840    1.301   .     A
N839   O841    1.301   .     A
N842   O844    1.301   .     A
N842   O843    1.301   .     A
N845   O846    1.301   .     A
N845   O847    1.301   .     A
N848   O850    1.301   .     A
N848   O849    1.301   .     A
O851   Zn867   1.959   .     S
O851   C859    1.264   .     A
O852   Zn868   1.959   .     S
O852   C860    1.264   .     A
O853   C860    1.265   .     A
O853   Zn867   1.960   .     S
O854   Zn868   1.960   .     S
O854   C859    1.265   .     A
H855   C883    1.081   .     S
H856   C884    1.081   .     S
H857   C885    1.081   .     S
H858   C886    1.081   .     S
C859   C887    1.370   .     S
C860   C888    1.370   .     S
O861   C865    1.269   .     A
O861   Zn867   2.012   .     S
O862   C866    1.269   .     A
O862   Zn868   2.012   .     S
O863   Zn867   2.012   .     S
O863   C866    1.269   .     A
O864   Zn868   2.012   .     S
O864   C865    1.269   .     A
C865   C876    1.423   .     S
C866   C875    1.423   .     S
Zn867  N870    1.977   .     S
Zn868  N869    1.977   .     S
N870   N269    1.195   1_556 S
C871   N889    1.436   .     S
C871   C875    1.398   .     A
C871   C879    1.395   .     A
C872   N892    1.436   .     S
C872   C876    1.398   .     A
C872   C880    1.395   .     A
C873   N895    1.436   .     S
C873   C875    1.398   .     A
C873   C877    1.395   .     A
C874   C878    1.395   .     A
C874   C876    1.398   .     A
C874   N898    1.436   .     S
C877   C883    1.401   .     A
C877   C881    1.415   .     A
C878   C884    1.401   .     A
C878   C882    1.415   .     A
C879   C881    1.415   .     A
C879   C885    1.401   .     A
C880   C886    1.401   .     A
C880   C882    1.415   .     A
C881   C832    1.401   1_655 S
C883   C836    1.383   1_655 S
C885   C834    1.383   1_655 S
C888   C687    1.168   1_565 S
N889   O890    1.301   .     A
N889   O891    1.301   .     A
N892   O894    1.301   .     A
N892   O893    1.301   .     A
N895   O896    1.301   .     A
N895   O897    1.301   .     A
N898   O900    1.301   .     A
N898   O899    1.301   .     A
