data_str_m1_o10_o18_pcu_sym.32
_audit_creation_date              2020-01-03
_audit_creation_method            'Materials Studio'
_symmetry_space_group_name_H-M    'P1'
_symmetry_Int_Tables_number       1
_symmetry_cell_setting            triclinic
loop_
_symmetry_equiv_pos_as_xyz
  x,y,z
_cell_length_a                    32.6813
_cell_length_b                    32.5997
_cell_length_c                    35.7364
_cell_angle_alpha                 98.1470
_cell_angle_beta                  72.9122
_cell_angle_gamma                 98.5664
loop_
_atom_site_label
_atom_site_type_symbol
_atom_site_fract_x
_atom_site_fract_y
_atom_site_fract_z
_atom_site_U_iso_or_equiv
_atom_site_adp_type
_atom_site_occupancy
C1     C     0.05284   0.16031   0.25831   0.00000  Uiso   1.00
C2     C     0.20753   0.14056   0.45878   0.00000  Uiso   1.00
C3     C     0.22520   0.11805   0.47908   0.00000  Uiso   1.00
C4     C     0.28098   0.17349   0.24132   0.00000  Uiso   1.00
C5     C     0.21553   0.12467   0.01989   0.00000  Uiso   1.00
C6     C     0.18950   0.15635   0.04081   0.00000  Uiso   1.00
C7     C     0.23222   0.10024   0.04000   0.00000  Uiso   1.00
C8     C     0.22309   0.10659   0.08080   0.00000  Uiso   1.00
C9     C     0.18024   0.16163   0.08217   0.00000  Uiso   1.00
C10    C     0.32678   0.17563   0.23809   0.00000  Uiso   1.00
C11    C     0.00722   0.15725   0.26296   0.00000  Uiso   1.00
C12    C     0.12436   0.23829   0.41651   0.00000  Uiso   1.00
C13    C     0.18186   0.32289   0.23893   0.00000  Uiso   1.00
C14    C     0.15125   0.01237   0.26200   0.00000  Uiso   1.00
C15    C     0.15557   0.05632   0.25916   0.00000  Uiso   1.00
C16    C     0.17705   0.27781   0.24148   0.00000  Uiso   1.00
C17    C     0.18837   0.14518   0.14412   0.00000  Uiso   1.00
C18    C     0.14571   0.18807   0.35614   0.00000  Uiso   1.00
C19    C     0.14067   0.20072   0.39842   0.00000  Uiso   1.00
C20    C     0.19715   0.13727   0.10170   0.00000  Uiso   1.00
C21    C     0.12241   0.25124   0.45574   0.00000  Uiso   1.00
C22    C     0.15494   0.17629   0.42022   0.00000  Uiso   1.00
C23    C     0.15817   0.19131   0.45847   0.00000  Uiso   1.00
C24    C     0.13907   0.22806   0.47728   0.00000  Uiso   1.00
C25    C     0.17898   0.17026   0.47873   0.00000  Uiso   1.00
C26    C     0.17320   0.18098   0.01971   0.00000  Uiso   1.00
C27    C     0.15277   0.21673   0.03796   0.00000  Uiso   1.00
C28    C     0.13687   0.24085   0.01706   0.00000  Uiso   1.00
F29    F     0.02228   0.19662   0.20923   0.00000  Uiso   1.00
F30    F     0.11460   0.32879   0.28704   0.00000  Uiso   1.00
F31    F     0.10502   0.28718   0.47201   0.00000  Uiso   1.00
F32    F     0.11015   0.26281   0.39634   0.00000  Uiso   1.00
F33    F     0.16162   0.13640   0.40512   0.00000  Uiso   1.00
H34    H     0.25237   0.07626   0.02412   0.00000  Uiso   1.00
H35    H     0.15916   0.18364   0.10029   0.00000  Uiso   1.00
H36    H     0.23633   0.08778   0.09606   0.00000  Uiso   1.00
H37    H     0.24655   0.09521   0.46266   0.00000  Uiso   1.00
H38    H     0.15059   0.22799   0.06821   0.00000  Uiso   1.00
H39    H     0.21851   0.13555   0.42712   0.00000  Uiso   1.00
H40    H     0.11930   0.28116   0.06318   0.00000  Uiso   1.00
H41    H     0.32912   0.12525   0.30763   0.00000  Uiso   1.00
H42    H     0.23730   0.32180   0.19885   0.00000  Uiso   1.00
O43    O     0.16667   0.16667   0.25000   0.00000  Uiso   1.00
O44    O     0.15693   0.12393   0.16625   0.00000  Uiso   1.00
O45    O     0.12687   0.20646   0.33749   0.00000  Uiso   1.00
O46    O     0.21088   0.17493   0.15877   0.00000  Uiso   1.00
O47    O     0.17198   0.16135   0.33749   0.00000  Uiso   1.00
O48    O     0.11843   0.27665   0.03538   0.00000  Uiso   1.00
O49    O     0.31224   0.13615   0.29299   0.00000  Uiso   1.00
O50    O     0.21741   0.00922   0.21319   0.00000  Uiso   1.00
O51    O     0.17849   0.08101   0.27820   0.00000  Uiso   1.00
O52    O     0.14581   0.26136   0.26767   0.00000  Uiso   1.00
O53    O     0.07452   0.13251   0.23607   0.00000  Uiso   1.00
O54    O     0.26785   0.19179   0.21805   0.00000  Uiso   1.00
O55    O     0.06990   0.18960   0.27820   0.00000  Uiso   1.00
O56    O     0.25440   0.15277   0.26767   0.00000  Uiso   1.00
O57    O     0.13800   0.06903   0.23607   0.00000  Uiso   1.00
O58    O     0.20437   0.25527   0.21805   0.00000  Uiso   1.00
Zn59   Zn    0.19244   0.14090   0.28277   0.00000  Uiso   1.00
Zn60   Zn    0.13459   0.12378   0.22257   0.00000  Uiso   1.00
Zn61   Zn    0.21166   0.19664   0.21188   0.00000  Uiso   1.00
Zn62   Zn    0.12798   0.20535   0.28277   0.00000  Uiso   1.00
C63    C     0.38617   0.16031   0.25831   0.00000  Uiso   1.00
C64    C     0.54086   0.14056   0.45878   0.00000  Uiso   1.00
C65    C     0.55854   0.11805   0.47908   0.00000  Uiso   1.00
C66    C     0.61432   0.17349   0.24132   0.00000  Uiso   1.00
C67    C     0.54886   0.12467   0.01989   0.00000  Uiso   1.00
C68    C     0.52284   0.15635   0.04081   0.00000  Uiso   1.00
C69    C     0.56555   0.10024   0.04000   0.00000  Uiso   1.00
C70    C     0.55642   0.10659   0.08080   0.00000  Uiso   1.00
C71    C     0.51357   0.16163   0.08217   0.00000  Uiso   1.00
C72    C     0.66012   0.17563   0.23809   0.00000  Uiso   1.00
C73    C     0.34055   0.15725   0.26296   0.00000  Uiso   1.00
C74    C     0.45769   0.23829   0.41651   0.00000  Uiso   1.00
C75    C     0.51519   0.32289   0.23893   0.00000  Uiso   1.00
C76    C     0.48459   0.01237   0.26200   0.00000  Uiso   1.00
C77    C     0.48891   0.05632   0.25916   0.00000  Uiso   1.00
C78    C     0.51039   0.27781   0.24148   0.00000  Uiso   1.00
C79    C     0.52170   0.14518   0.14412   0.00000  Uiso   1.00
C80    C     0.47904   0.18807   0.35614   0.00000  Uiso   1.00
C81    C     0.47400   0.20072   0.39842   0.00000  Uiso   1.00
C82    C     0.53048   0.13727   0.10170   0.00000  Uiso   1.00
C83    C     0.45575   0.25124   0.45574   0.00000  Uiso   1.00
C84    C     0.48827   0.17629   0.42022   0.00000  Uiso   1.00
C85    C     0.49151   0.19131   0.45847   0.00000  Uiso   1.00
C86    C     0.47240   0.22806   0.47728   0.00000  Uiso   1.00
C87    C     0.51231   0.17026   0.47873   0.00000  Uiso   1.00
C88    C     0.50654   0.18098   0.01971   0.00000  Uiso   1.00
C89    C     0.48611   0.21673   0.03796   0.00000  Uiso   1.00
C90    C     0.47020   0.24085   0.01706   0.00000  Uiso   1.00
F91    F     0.35561   0.19662   0.20923   0.00000  Uiso   1.00
F92    F     0.44794   0.32879   0.28704   0.00000  Uiso   1.00
F93    F     0.43835   0.28718   0.47201   0.00000  Uiso   1.00
F94    F     0.44349   0.26281   0.39634   0.00000  Uiso   1.00
F95    F     0.49495   0.13640   0.40512   0.00000  Uiso   1.00
H96    H     0.58570   0.07626   0.02412   0.00000  Uiso   1.00
H97    H     0.49249   0.18364   0.10029   0.00000  Uiso   1.00
H98    H     0.56967   0.08778   0.09606   0.00000  Uiso   1.00
H99    H     0.57988   0.09521   0.46266   0.00000  Uiso   1.00
H100   H     0.48393   0.22799   0.06821   0.00000  Uiso   1.00
H101   H     0.55185   0.13555   0.42712   0.00000  Uiso   1.00
H102   H     0.45263   0.28116   0.06318   0.00000  Uiso   1.00
H103   H     0.66245   0.12525   0.30763   0.00000  Uiso   1.00
H104   H     0.57063   0.32180   0.19885   0.00000  Uiso   1.00
O105   O     0.50000   0.16667   0.25000   0.00000  Uiso   1.00
O106   O     0.49027   0.12393   0.16625   0.00000  Uiso   1.00
O107   O     0.46020   0.20646   0.33749   0.00000  Uiso   1.00
O108   O     0.54421   0.17493   0.15877   0.00000  Uiso   1.00
O109   O     0.50532   0.16135   0.33749   0.00000  Uiso   1.00
O110   O     0.45176   0.27665   0.03538   0.00000  Uiso   1.00
O111   O     0.64557   0.13615   0.29299   0.00000  Uiso   1.00
O112   O     0.55075   0.00922   0.21319   0.00000  Uiso   1.00
O113   O     0.51182   0.08101   0.27820   0.00000  Uiso   1.00
O114   O     0.47914   0.26136   0.26767   0.00000  Uiso   1.00
O115   O     0.40785   0.13251   0.23607   0.00000  Uiso   1.00
O116   O     0.60119   0.19179   0.21805   0.00000  Uiso   1.00
O117   O     0.40323   0.18960   0.27820   0.00000  Uiso   1.00
O118   O     0.58773   0.15277   0.26767   0.00000  Uiso   1.00
O119   O     0.47133   0.06903   0.23607   0.00000  Uiso   1.00
O120   O     0.53771   0.25527   0.21805   0.00000  Uiso   1.00
Zn121  Zn    0.52577   0.14090   0.28277   0.00000  Uiso   1.00
Zn122  Zn    0.46792   0.12378   0.22257   0.00000  Uiso   1.00
Zn123  Zn    0.54500   0.19664   0.21188   0.00000  Uiso   1.00
Zn124  Zn    0.46131   0.20535   0.28277   0.00000  Uiso   1.00
C125   C     0.71951   0.16031   0.25831   0.00000  Uiso   1.00
C126   C     0.87420   0.14056   0.45878   0.00000  Uiso   1.00
C127   C     0.89187   0.11805   0.47908   0.00000  Uiso   1.00
C128   C     0.94765   0.17349   0.24132   0.00000  Uiso   1.00
C129   C     0.88220   0.12467   0.01989   0.00000  Uiso   1.00
C130   C     0.85617   0.15635   0.04081   0.00000  Uiso   1.00
C131   C     0.89889   0.10024   0.04000   0.00000  Uiso   1.00
C132   C     0.88975   0.10659   0.08080   0.00000  Uiso   1.00
C133   C     0.84691   0.16163   0.08217   0.00000  Uiso   1.00
C134   C     0.99345   0.17563   0.23809   0.00000  Uiso   1.00
C135   C     0.67388   0.15725   0.26296   0.00000  Uiso   1.00
C136   C     0.79103   0.23829   0.41651   0.00000  Uiso   1.00
C137   C     0.84853   0.32289   0.23893   0.00000  Uiso   1.00
C138   C     0.81792   0.01237   0.26200   0.00000  Uiso   1.00
C139   C     0.82224   0.05632   0.25916   0.00000  Uiso   1.00
C140   C     0.84372   0.27781   0.24148   0.00000  Uiso   1.00
C141   C     0.85504   0.14518   0.14412   0.00000  Uiso   1.00
C142   C     0.81238   0.18807   0.35614   0.00000  Uiso   1.00
C143   C     0.80733   0.20072   0.39842   0.00000  Uiso   1.00
C144   C     0.86381   0.13727   0.10170   0.00000  Uiso   1.00
C145   C     0.78908   0.25124   0.45574   0.00000  Uiso   1.00
C146   C     0.82161   0.17629   0.42022   0.00000  Uiso   1.00
C147   C     0.82484   0.19131   0.45847   0.00000  Uiso   1.00
C148   C     0.80574   0.22806   0.47728   0.00000  Uiso   1.00
C149   C     0.84565   0.17026   0.47873   0.00000  Uiso   1.00
C150   C     0.83987   0.18098   0.01971   0.00000  Uiso   1.00
C151   C     0.81944   0.21673   0.03796   0.00000  Uiso   1.00
C152   C     0.80354   0.24085   0.01706   0.00000  Uiso   1.00
F153   F     0.68895   0.19662   0.20923   0.00000  Uiso   1.00
F154   F     0.78127   0.32879   0.28704   0.00000  Uiso   1.00
F155   F     0.77169   0.28718   0.47201   0.00000  Uiso   1.00
F156   F     0.77682   0.26281   0.39634   0.00000  Uiso   1.00
F157   F     0.82829   0.13640   0.40512   0.00000  Uiso   1.00
H158   H     0.91903   0.07626   0.02412   0.00000  Uiso   1.00
H159   H     0.82583   0.18364   0.10029   0.00000  Uiso   1.00
H160   H     0.90300   0.08778   0.09606   0.00000  Uiso   1.00
H161   H     0.91321   0.09521   0.46266   0.00000  Uiso   1.00
H162   H     0.81726   0.22799   0.06821   0.00000  Uiso   1.00
H163   H     0.88518   0.13555   0.42712   0.00000  Uiso   1.00
H164   H     0.78597   0.28116   0.06318   0.00000  Uiso   1.00
H165   H     0.99578   0.12525   0.30763   0.00000  Uiso   1.00
H166   H     0.90397   0.32180   0.19885   0.00000  Uiso   1.00
O167   O     0.83333   0.16667   0.25000   0.00000  Uiso   1.00
O168   O     0.82360   0.12393   0.16625   0.00000  Uiso   1.00
O169   O     0.79354   0.20646   0.33749   0.00000  Uiso   1.00
O170   O     0.87755   0.17493   0.15877   0.00000  Uiso   1.00
O171   O     0.83865   0.16135   0.33749   0.00000  Uiso   1.00
O172   O     0.78509   0.27665   0.03538   0.00000  Uiso   1.00
O173   O     0.97890   0.13615   0.29299   0.00000  Uiso   1.00
O174   O     0.88408   0.00922   0.21319   0.00000  Uiso   1.00
O175   O     0.84515   0.08101   0.27820   0.00000  Uiso   1.00
O176   O     0.81247   0.26136   0.26767   0.00000  Uiso   1.00
O177   O     0.74119   0.13251   0.23607   0.00000  Uiso   1.00
O178   O     0.93452   0.19179   0.21805   0.00000  Uiso   1.00
O179   O     0.73656   0.18960   0.27820   0.00000  Uiso   1.00
O180   O     0.92106   0.15277   0.26767   0.00000  Uiso   1.00
O181   O     0.80467   0.06903   0.23607   0.00000  Uiso   1.00
O182   O     0.87104   0.25527   0.21805   0.00000  Uiso   1.00
Zn183  Zn    0.85910   0.14090   0.28277   0.00000  Uiso   1.00
Zn184  Zn    0.80125   0.12378   0.22257   0.00000  Uiso   1.00
Zn185  Zn    0.87833   0.19664   0.21188   0.00000  Uiso   1.00
Zn186  Zn    0.79465   0.20535   0.28277   0.00000  Uiso   1.00
C187   C     0.05284   0.49365   0.25831   0.00000  Uiso   1.00
C188   C     0.20753   0.47389   0.45878   0.00000  Uiso   1.00
C189   C     0.22520   0.45138   0.47908   0.00000  Uiso   1.00
C190   C     0.28098   0.50682   0.24132   0.00000  Uiso   1.00
C191   C     0.21553   0.45800   0.01989   0.00000  Uiso   1.00
C192   C     0.18950   0.48968   0.04081   0.00000  Uiso   1.00
C193   C     0.23222   0.43357   0.04000   0.00000  Uiso   1.00
C194   C     0.22309   0.43993   0.08080   0.00000  Uiso   1.00
C195   C     0.18024   0.49496   0.08217   0.00000  Uiso   1.00
C196   C     0.32678   0.50897   0.23809   0.00000  Uiso   1.00
C197   C     0.00722   0.49058   0.26296   0.00000  Uiso   1.00
C198   C     0.12436   0.57163   0.41651   0.00000  Uiso   1.00
C199   C     0.18186   0.65622   0.23893   0.00000  Uiso   1.00
C200   C     0.15125   0.34571   0.26200   0.00000  Uiso   1.00
C201   C     0.15557   0.38965   0.25916   0.00000  Uiso   1.00
C202   C     0.17705   0.61114   0.24148   0.00000  Uiso   1.00
C203   C     0.18837   0.47851   0.14412   0.00000  Uiso   1.00
C204   C     0.14571   0.52141   0.35614   0.00000  Uiso   1.00
C205   C     0.14067   0.53406   0.39842   0.00000  Uiso   1.00
C206   C     0.19715   0.47060   0.10170   0.00000  Uiso   1.00
C207   C     0.12241   0.58457   0.45574   0.00000  Uiso   1.00
C208   C     0.15494   0.50962   0.42022   0.00000  Uiso   1.00
C209   C     0.15817   0.52464   0.45847   0.00000  Uiso   1.00
C210   C     0.13907   0.56140   0.47728   0.00000  Uiso   1.00
C211   C     0.17898   0.50360   0.47873   0.00000  Uiso   1.00
C212   C     0.17320   0.51431   0.01971   0.00000  Uiso   1.00
C213   C     0.15277   0.55007   0.03796   0.00000  Uiso   1.00
C214   C     0.13687   0.57419   0.01706   0.00000  Uiso   1.00
F215   F     0.02228   0.52995   0.20923   0.00000  Uiso   1.00
F216   F     0.11460   0.66213   0.28704   0.00000  Uiso   1.00
F217   F     0.10502   0.62051   0.47201   0.00000  Uiso   1.00
F218   F     0.11015   0.59615   0.39634   0.00000  Uiso   1.00
F219   F     0.16162   0.46973   0.40512   0.00000  Uiso   1.00
H220   H     0.25237   0.40959   0.02412   0.00000  Uiso   1.00
H221   H     0.15916   0.51697   0.10029   0.00000  Uiso   1.00
H222   H     0.23633   0.42111   0.09606   0.00000  Uiso   1.00
H223   H     0.24655   0.42854   0.46266   0.00000  Uiso   1.00
H224   H     0.15059   0.56133   0.06821   0.00000  Uiso   1.00
H225   H     0.21851   0.46889   0.42712   0.00000  Uiso   1.00
H226   H     0.11930   0.61449   0.06318   0.00000  Uiso   1.00
H227   H     0.32912   0.45858   0.30763   0.00000  Uiso   1.00
H228   H     0.23730   0.65513   0.19885   0.00000  Uiso   1.00
O229   O     0.16667   0.50000   0.25000   0.00000  Uiso   1.00
O230   O     0.15693   0.45726   0.16625   0.00000  Uiso   1.00
O231   O     0.12687   0.53979   0.33749   0.00000  Uiso   1.00
O232   O     0.21088   0.50826   0.15877   0.00000  Uiso   1.00
O233   O     0.17198   0.49468   0.33749   0.00000  Uiso   1.00
O234   O     0.11843   0.60998   0.03538   0.00000  Uiso   1.00
O235   O     0.31224   0.46948   0.29299   0.00000  Uiso   1.00
O236   O     0.21741   0.34255   0.21319   0.00000  Uiso   1.00
O237   O     0.17849   0.41434   0.27820   0.00000  Uiso   1.00
O238   O     0.14581   0.59469   0.26767   0.00000  Uiso   1.00
O239   O     0.07452   0.46584   0.23607   0.00000  Uiso   1.00
O240   O     0.26785   0.52512   0.21805   0.00000  Uiso   1.00
O241   O     0.06990   0.52293   0.27820   0.00000  Uiso   1.00
O242   O     0.25440   0.48610   0.26767   0.00000  Uiso   1.00
O243   O     0.13800   0.40236   0.23607   0.00000  Uiso   1.00
O244   O     0.20437   0.58860   0.21805   0.00000  Uiso   1.00
Zn245  Zn    0.19244   0.47423   0.28277   0.00000  Uiso   1.00
Zn246  Zn    0.13459   0.45711   0.22257   0.00000  Uiso   1.00
Zn247  Zn    0.21166   0.52997   0.21188   0.00000  Uiso   1.00
Zn248  Zn    0.12798   0.53868   0.28277   0.00000  Uiso   1.00
C249   C     0.38617   0.49365   0.25831   0.00000  Uiso   1.00
C250   C     0.54086   0.47389   0.45878   0.00000  Uiso   1.00
C251   C     0.55854   0.45138   0.47908   0.00000  Uiso   1.00
C252   C     0.61432   0.50682   0.24132   0.00000  Uiso   1.00
C253   C     0.54886   0.45800   0.01989   0.00000  Uiso   1.00
C254   C     0.52284   0.48968   0.04081   0.00000  Uiso   1.00
C255   C     0.56555   0.43357   0.04000   0.00000  Uiso   1.00
C256   C     0.55642   0.43993   0.08080   0.00000  Uiso   1.00
C257   C     0.51357   0.49496   0.08217   0.00000  Uiso   1.00
C258   C     0.66012   0.50897   0.23809   0.00000  Uiso   1.00
C259   C     0.34055   0.49058   0.26296   0.00000  Uiso   1.00
C260   C     0.45769   0.57163   0.41651   0.00000  Uiso   1.00
C261   C     0.51519   0.65622   0.23893   0.00000  Uiso   1.00
C262   C     0.48459   0.34571   0.26200   0.00000  Uiso   1.00
C263   C     0.48891   0.38965   0.25916   0.00000  Uiso   1.00
C264   C     0.51039   0.61114   0.24148   0.00000  Uiso   1.00
C265   C     0.52170   0.47851   0.14412   0.00000  Uiso   1.00
C266   C     0.47904   0.52141   0.35614   0.00000  Uiso   1.00
C267   C     0.47400   0.53406   0.39842   0.00000  Uiso   1.00
C268   C     0.53048   0.47060   0.10170   0.00000  Uiso   1.00
C269   C     0.45575   0.58457   0.45574   0.00000  Uiso   1.00
C270   C     0.48827   0.50962   0.42022   0.00000  Uiso   1.00
C271   C     0.49151   0.52464   0.45847   0.00000  Uiso   1.00
C272   C     0.47240   0.56140   0.47728   0.00000  Uiso   1.00
C273   C     0.51231   0.50360   0.47873   0.00000  Uiso   1.00
C274   C     0.50654   0.51431   0.01971   0.00000  Uiso   1.00
C275   C     0.48611   0.55007   0.03796   0.00000  Uiso   1.00
C276   C     0.47020   0.57419   0.01706   0.00000  Uiso   1.00
F277   F     0.35561   0.52995   0.20923   0.00000  Uiso   1.00
F278   F     0.44794   0.66213   0.28704   0.00000  Uiso   1.00
F279   F     0.43835   0.62051   0.47201   0.00000  Uiso   1.00
F280   F     0.44349   0.59615   0.39634   0.00000  Uiso   1.00
F281   F     0.49495   0.46973   0.40512   0.00000  Uiso   1.00
H282   H     0.58570   0.40959   0.02412   0.00000  Uiso   1.00
H283   H     0.49249   0.51697   0.10029   0.00000  Uiso   1.00
H284   H     0.56967   0.42111   0.09606   0.00000  Uiso   1.00
H285   H     0.57988   0.42854   0.46266   0.00000  Uiso   1.00
H286   H     0.48393   0.56133   0.06821   0.00000  Uiso   1.00
H287   H     0.55185   0.46889   0.42712   0.00000  Uiso   1.00
H288   H     0.45263   0.61449   0.06318   0.00000  Uiso   1.00
H289   H     0.66245   0.45858   0.30763   0.00000  Uiso   1.00
H290   H     0.57063   0.65513   0.19885   0.00000  Uiso   1.00
O291   O     0.50000   0.50000   0.25000   0.00000  Uiso   1.00
O292   O     0.49027   0.45726   0.16625   0.00000  Uiso   1.00
O293   O     0.46020   0.53979   0.33749   0.00000  Uiso   1.00
O294   O     0.54421   0.50826   0.15877   0.00000  Uiso   1.00
O295   O     0.50532   0.49468   0.33749   0.00000  Uiso   1.00
O296   O     0.45176   0.60998   0.03538   0.00000  Uiso   1.00
O297   O     0.64557   0.46948   0.29299   0.00000  Uiso   1.00
O298   O     0.55075   0.34255   0.21319   0.00000  Uiso   1.00
O299   O     0.51182   0.41434   0.27820   0.00000  Uiso   1.00
O300   O     0.47914   0.59469   0.26767   0.00000  Uiso   1.00
O301   O     0.40785   0.46584   0.23607   0.00000  Uiso   1.00
O302   O     0.60119   0.52512   0.21805   0.00000  Uiso   1.00
O303   O     0.40323   0.52293   0.27820   0.00000  Uiso   1.00
O304   O     0.58773   0.48610   0.26767   0.00000  Uiso   1.00
O305   O     0.47133   0.40236   0.23607   0.00000  Uiso   1.00
O306   O     0.53771   0.58860   0.21805   0.00000  Uiso   1.00
Zn307  Zn    0.52577   0.47423   0.28277   0.00000  Uiso   1.00
Zn308  Zn    0.46792   0.45711   0.22257   0.00000  Uiso   1.00
Zn309  Zn    0.54500   0.52997   0.21188   0.00000  Uiso   1.00
Zn310  Zn    0.46131   0.53868   0.28277   0.00000  Uiso   1.00
C311   C     0.71951   0.49365   0.25831   0.00000  Uiso   1.00
C312   C     0.87420   0.47389   0.45878   0.00000  Uiso   1.00
C313   C     0.89187   0.45138   0.47908   0.00000  Uiso   1.00
C314   C     0.94765   0.50682   0.24132   0.00000  Uiso   1.00
C315   C     0.88220   0.45800   0.01989   0.00000  Uiso   1.00
C316   C     0.85617   0.48968   0.04081   0.00000  Uiso   1.00
C317   C     0.89889   0.43357   0.04000   0.00000  Uiso   1.00
C318   C     0.88975   0.43993   0.08080   0.00000  Uiso   1.00
C319   C     0.84691   0.49496   0.08217   0.00000  Uiso   1.00
C320   C     0.99345   0.50897   0.23809   0.00000  Uiso   1.00
C321   C     0.67388   0.49058   0.26296   0.00000  Uiso   1.00
C322   C     0.79103   0.57163   0.41651   0.00000  Uiso   1.00
C323   C     0.84853   0.65622   0.23893   0.00000  Uiso   1.00
C324   C     0.81792   0.34571   0.26200   0.00000  Uiso   1.00
C325   C     0.82224   0.38965   0.25916   0.00000  Uiso   1.00
C326   C     0.84372   0.61114   0.24148   0.00000  Uiso   1.00
C327   C     0.85504   0.47851   0.14412   0.00000  Uiso   1.00
C328   C     0.81238   0.52141   0.35614   0.00000  Uiso   1.00
C329   C     0.80733   0.53406   0.39842   0.00000  Uiso   1.00
C330   C     0.86381   0.47060   0.10170   0.00000  Uiso   1.00
C331   C     0.78908   0.58457   0.45574   0.00000  Uiso   1.00
C332   C     0.82161   0.50962   0.42022   0.00000  Uiso   1.00
C333   C     0.82484   0.52464   0.45847   0.00000  Uiso   1.00
C334   C     0.80574   0.56140   0.47728   0.00000  Uiso   1.00
C335   C     0.84565   0.50360   0.47873   0.00000  Uiso   1.00
C336   C     0.83987   0.51431   0.01971   0.00000  Uiso   1.00
C337   C     0.81944   0.55007   0.03796   0.00000  Uiso   1.00
C338   C     0.80354   0.57419   0.01706   0.00000  Uiso   1.00
F339   F     0.68895   0.52995   0.20923   0.00000  Uiso   1.00
F340   F     0.78127   0.66213   0.28704   0.00000  Uiso   1.00
F341   F     0.77169   0.62051   0.47201   0.00000  Uiso   1.00
F342   F     0.77682   0.59615   0.39634   0.00000  Uiso   1.00
F343   F     0.82829   0.46973   0.40512   0.00000  Uiso   1.00
H344   H     0.91903   0.40959   0.02412   0.00000  Uiso   1.00
H345   H     0.82583   0.51697   0.10029   0.00000  Uiso   1.00
H346   H     0.90300   0.42111   0.09606   0.00000  Uiso   1.00
H347   H     0.91321   0.42854   0.46266   0.00000  Uiso   1.00
H348   H     0.81726   0.56133   0.06821   0.00000  Uiso   1.00
H349   H     0.88518   0.46889   0.42712   0.00000  Uiso   1.00
H350   H     0.78597   0.61449   0.06318   0.00000  Uiso   1.00
H351   H     0.99578   0.45858   0.30763   0.00000  Uiso   1.00
H352   H     0.90397   0.65513   0.19885   0.00000  Uiso   1.00
O353   O     0.83333   0.50000   0.25000   0.00000  Uiso   1.00
O354   O     0.82360   0.45726   0.16625   0.00000  Uiso   1.00
O355   O     0.79354   0.53979   0.33749   0.00000  Uiso   1.00
O356   O     0.87755   0.50826   0.15877   0.00000  Uiso   1.00
O357   O     0.83865   0.49468   0.33749   0.00000  Uiso   1.00
O358   O     0.78509   0.60998   0.03538   0.00000  Uiso   1.00
O359   O     0.97890   0.46948   0.29299   0.00000  Uiso   1.00
O360   O     0.88408   0.34255   0.21319   0.00000  Uiso   1.00
O361   O     0.84515   0.41434   0.27820   0.00000  Uiso   1.00
O362   O     0.81247   0.59469   0.26767   0.00000  Uiso   1.00
O363   O     0.74119   0.46584   0.23607   0.00000  Uiso   1.00
O364   O     0.93452   0.52512   0.21805   0.00000  Uiso   1.00
O365   O     0.73656   0.52293   0.27820   0.00000  Uiso   1.00
O366   O     0.92106   0.48610   0.26767   0.00000  Uiso   1.00
O367   O     0.80467   0.40236   0.23607   0.00000  Uiso   1.00
O368   O     0.87104   0.58860   0.21805   0.00000  Uiso   1.00
Zn369  Zn    0.85910   0.47423   0.28277   0.00000  Uiso   1.00
Zn370  Zn    0.80125   0.45711   0.22257   0.00000  Uiso   1.00
Zn371  Zn    0.87833   0.52997   0.21188   0.00000  Uiso   1.00
Zn372  Zn    0.79465   0.53868   0.28277   0.00000  Uiso   1.00
C373   C     0.05284   0.82698   0.25831   0.00000  Uiso   1.00
C374   C     0.20753   0.80723   0.45878   0.00000  Uiso   1.00
C375   C     0.22520   0.78471   0.47908   0.00000  Uiso   1.00
C376   C     0.28098   0.84016   0.24132   0.00000  Uiso   1.00
C377   C     0.21553   0.79133   0.01989   0.00000  Uiso   1.00
C378   C     0.18950   0.82301   0.04081   0.00000  Uiso   1.00
C379   C     0.23222   0.76691   0.04000   0.00000  Uiso   1.00
C380   C     0.22309   0.77326   0.08080   0.00000  Uiso   1.00
C381   C     0.18024   0.82829   0.08217   0.00000  Uiso   1.00
C382   C     0.32678   0.84230   0.23809   0.00000  Uiso   1.00
C383   C     0.00722   0.82391   0.26296   0.00000  Uiso   1.00
C384   C     0.12436   0.90496   0.41651   0.00000  Uiso   1.00
C385   C     0.18186   0.98956   0.23893   0.00000  Uiso   1.00
C386   C     0.15125   0.67904   0.26200   0.00000  Uiso   1.00
C387   C     0.15557   0.72299   0.25916   0.00000  Uiso   1.00
C388   C     0.17705   0.94447   0.24148   0.00000  Uiso   1.00
C389   C     0.18837   0.81184   0.14412   0.00000  Uiso   1.00
C390   C     0.14571   0.85474   0.35614   0.00000  Uiso   1.00
C391   C     0.14067   0.86739   0.39842   0.00000  Uiso   1.00
C392   C     0.19715   0.80393   0.10170   0.00000  Uiso   1.00
C393   C     0.12241   0.91790   0.45574   0.00000  Uiso   1.00
C394   C     0.15494   0.84295   0.42022   0.00000  Uiso   1.00
C395   C     0.15817   0.85798   0.45847   0.00000  Uiso   1.00
C396   C     0.13907   0.89473   0.47728   0.00000  Uiso   1.00
C397   C     0.17898   0.83693   0.47873   0.00000  Uiso   1.00
C398   C     0.17320   0.84764   0.01971   0.00000  Uiso   1.00
C399   C     0.15277   0.88340   0.03796   0.00000  Uiso   1.00
C400   C     0.13687   0.90752   0.01706   0.00000  Uiso   1.00
F401   F     0.02228   0.86329   0.20923   0.00000  Uiso   1.00
F402   F     0.11460   0.99546   0.28704   0.00000  Uiso   1.00
F403   F     0.10502   0.95384   0.47201   0.00000  Uiso   1.00
F404   F     0.11015   0.92948   0.39634   0.00000  Uiso   1.00
F405   F     0.16162   0.80306   0.40512   0.00000  Uiso   1.00
H406   H     0.25237   0.74292   0.02412   0.00000  Uiso   1.00
H407   H     0.15916   0.85031   0.10029   0.00000  Uiso   1.00
H408   H     0.23633   0.75444   0.09606   0.00000  Uiso   1.00
H409   H     0.24655   0.76187   0.46266   0.00000  Uiso   1.00
H410   H     0.15059   0.89466   0.06821   0.00000  Uiso   1.00
H411   H     0.21851   0.80222   0.42712   0.00000  Uiso   1.00
H412   H     0.11930   0.94783   0.06318   0.00000  Uiso   1.00
H413   H     0.32912   0.79192   0.30763   0.00000  Uiso   1.00
H414   H     0.23730   0.98846   0.19885   0.00000  Uiso   1.00
O415   O     0.16667   0.83333   0.25000   0.00000  Uiso   1.00
O416   O     0.15693   0.79060   0.16625   0.00000  Uiso   1.00
O417   O     0.12687   0.87313   0.33749   0.00000  Uiso   1.00
O418   O     0.21088   0.84159   0.15877   0.00000  Uiso   1.00
O419   O     0.17198   0.82802   0.33749   0.00000  Uiso   1.00
O420   O     0.11843   0.94331   0.03538   0.00000  Uiso   1.00
O421   O     0.31224   0.80282   0.29299   0.00000  Uiso   1.00
O422   O     0.21741   0.67589   0.21319   0.00000  Uiso   1.00
O423   O     0.17849   0.74768   0.27820   0.00000  Uiso   1.00
O424   O     0.14581   0.92803   0.26767   0.00000  Uiso   1.00
O425   O     0.07452   0.79917   0.23607   0.00000  Uiso   1.00
O426   O     0.26785   0.85845   0.21805   0.00000  Uiso   1.00
O427   O     0.06990   0.85627   0.27820   0.00000  Uiso   1.00
O428   O     0.25440   0.81944   0.26767   0.00000  Uiso   1.00
O429   O     0.13800   0.73570   0.23607   0.00000  Uiso   1.00
O430   O     0.20437   0.92193   0.21805   0.00000  Uiso   1.00
Zn431  Zn    0.19244   0.80756   0.28277   0.00000  Uiso   1.00
Zn432  Zn    0.13459   0.79044   0.22257   0.00000  Uiso   1.00
Zn433  Zn    0.21166   0.86331   0.21188   0.00000  Uiso   1.00
Zn434  Zn    0.12798   0.87202   0.28277   0.00000  Uiso   1.00
C435   C     0.38617   0.82698   0.25831   0.00000  Uiso   1.00
C436   C     0.54086   0.80723   0.45878   0.00000  Uiso   1.00
C437   C     0.55854   0.78471   0.47908   0.00000  Uiso   1.00
C438   C     0.61432   0.84016   0.24132   0.00000  Uiso   1.00
C439   C     0.54886   0.79133   0.01989   0.00000  Uiso   1.00
C440   C     0.52284   0.82301   0.04081   0.00000  Uiso   1.00
C441   C     0.56555   0.76691   0.04000   0.00000  Uiso   1.00
C442   C     0.55642   0.77326   0.08080   0.00000  Uiso   1.00
C443   C     0.51357   0.82829   0.08217   0.00000  Uiso   1.00
C444   C     0.66012   0.84230   0.23809   0.00000  Uiso   1.00
C445   C     0.34055   0.82391   0.26296   0.00000  Uiso   1.00
C446   C     0.45769   0.90496   0.41651   0.00000  Uiso   1.00
C447   C     0.51519   0.98956   0.23893   0.00000  Uiso   1.00
C448   C     0.48459   0.67904   0.26200   0.00000  Uiso   1.00
C449   C     0.48891   0.72299   0.25916   0.00000  Uiso   1.00
C450   C     0.51039   0.94447   0.24148   0.00000  Uiso   1.00
C451   C     0.52170   0.81184   0.14412   0.00000  Uiso   1.00
C452   C     0.47904   0.85474   0.35614   0.00000  Uiso   1.00
C453   C     0.47400   0.86739   0.39842   0.00000  Uiso   1.00
C454   C     0.53048   0.80393   0.10170   0.00000  Uiso   1.00
C455   C     0.45575   0.91790   0.45574   0.00000  Uiso   1.00
C456   C     0.48827   0.84295   0.42022   0.00000  Uiso   1.00
C457   C     0.49151   0.85798   0.45847   0.00000  Uiso   1.00
C458   C     0.47240   0.89473   0.47728   0.00000  Uiso   1.00
C459   C     0.51231   0.83693   0.47873   0.00000  Uiso   1.00
C460   C     0.50654   0.84764   0.01971   0.00000  Uiso   1.00
C461   C     0.48611   0.88340   0.03796   0.00000  Uiso   1.00
C462   C     0.47020   0.90752   0.01706   0.00000  Uiso   1.00
F463   F     0.35561   0.86329   0.20923   0.00000  Uiso   1.00
F464   F     0.44794   0.99546   0.28704   0.00000  Uiso   1.00
F465   F     0.43835   0.95384   0.47201   0.00000  Uiso   1.00
F466   F     0.44349   0.92948   0.39634   0.00000  Uiso   1.00
F467   F     0.49495   0.80306   0.40512   0.00000  Uiso   1.00
H468   H     0.58570   0.74292   0.02412   0.00000  Uiso   1.00
H469   H     0.49249   0.85031   0.10029   0.00000  Uiso   1.00
H470   H     0.56967   0.75444   0.09606   0.00000  Uiso   1.00
H471   H     0.57988   0.76187   0.46266   0.00000  Uiso   1.00
H472   H     0.48393   0.89466   0.06821   0.00000  Uiso   1.00
H473   H     0.55185   0.80222   0.42712   0.00000  Uiso   1.00
H474   H     0.45263   0.94783   0.06318   0.00000  Uiso   1.00
H475   H     0.66245   0.79192   0.30763   0.00000  Uiso   1.00
H476   H     0.57063   0.98846   0.19885   0.00000  Uiso   1.00
O477   O     0.50000   0.83333   0.25000   0.00000  Uiso   1.00
O478   O     0.49027   0.79060   0.16625   0.00000  Uiso   1.00
O479   O     0.46020   0.87313   0.33749   0.00000  Uiso   1.00
O480   O     0.54421   0.84159   0.15877   0.00000  Uiso   1.00
O481   O     0.50532   0.82802   0.33749   0.00000  Uiso   1.00
O482   O     0.45176   0.94331   0.03538   0.00000  Uiso   1.00
O483   O     0.64557   0.80282   0.29299   0.00000  Uiso   1.00
O484   O     0.55075   0.67589   0.21319   0.00000  Uiso   1.00
O485   O     0.51182   0.74768   0.27820   0.00000  Uiso   1.00
O486   O     0.47914   0.92803   0.26767   0.00000  Uiso   1.00
O487   O     0.40785   0.79917   0.23607   0.00000  Uiso   1.00
O488   O     0.60119   0.85845   0.21805   0.00000  Uiso   1.00
O489   O     0.40323   0.85627   0.27820   0.00000  Uiso   1.00
O490   O     0.58773   0.81944   0.26767   0.00000  Uiso   1.00
O491   O     0.47133   0.73570   0.23607   0.00000  Uiso   1.00
O492   O     0.53771   0.92193   0.21805   0.00000  Uiso   1.00
Zn493  Zn    0.52577   0.80756   0.28277   0.00000  Uiso   1.00
Zn494  Zn    0.46792   0.79044   0.22257   0.00000  Uiso   1.00
Zn495  Zn    0.54500   0.86331   0.21188   0.00000  Uiso   1.00
Zn496  Zn    0.46131   0.87202   0.28277   0.00000  Uiso   1.00
C497   C     0.71951   0.82698   0.25831   0.00000  Uiso   1.00
C498   C     0.87420   0.80723   0.45878   0.00000  Uiso   1.00
C499   C     0.89187   0.78471   0.47908   0.00000  Uiso   1.00
C500   C     0.94765   0.84016   0.24132   0.00000  Uiso   1.00
C501   C     0.88220   0.79133   0.01989   0.00000  Uiso   1.00
C502   C     0.85617   0.82301   0.04081   0.00000  Uiso   1.00
C503   C     0.89889   0.76691   0.04000   0.00000  Uiso   1.00
C504   C     0.88975   0.77326   0.08080   0.00000  Uiso   1.00
C505   C     0.84691   0.82829   0.08217   0.00000  Uiso   1.00
C506   C     0.99345   0.84230   0.23809   0.00000  Uiso   1.00
C507   C     0.67388   0.82391   0.26296   0.00000  Uiso   1.00
C508   C     0.79103   0.90496   0.41651   0.00000  Uiso   1.00
C509   C     0.84853   0.98956   0.23893   0.00000  Uiso   1.00
C510   C     0.81792   0.67904   0.26200   0.00000  Uiso   1.00
C511   C     0.82224   0.72299   0.25916   0.00000  Uiso   1.00
C512   C     0.84372   0.94447   0.24148   0.00000  Uiso   1.00
C513   C     0.85504   0.81184   0.14412   0.00000  Uiso   1.00
C514   C     0.81238   0.85474   0.35614   0.00000  Uiso   1.00
C515   C     0.80733   0.86739   0.39842   0.00000  Uiso   1.00
C516   C     0.86381   0.80393   0.10170   0.00000  Uiso   1.00
C517   C     0.78908   0.91790   0.45574   0.00000  Uiso   1.00
C518   C     0.82161   0.84295   0.42022   0.00000  Uiso   1.00
C519   C     0.82484   0.85798   0.45847   0.00000  Uiso   1.00
C520   C     0.80574   0.89473   0.47728   0.00000  Uiso   1.00
C521   C     0.84565   0.83693   0.47873   0.00000  Uiso   1.00
C522   C     0.83987   0.84764   0.01971   0.00000  Uiso   1.00
C523   C     0.81944   0.88340   0.03796   0.00000  Uiso   1.00
C524   C     0.80354   0.90752   0.01706   0.00000  Uiso   1.00
F525   F     0.68895   0.86329   0.20923   0.00000  Uiso   1.00
F526   F     0.78127   0.99546   0.28704   0.00000  Uiso   1.00
F527   F     0.77169   0.95384   0.47201   0.00000  Uiso   1.00
F528   F     0.77682   0.92948   0.39634   0.00000  Uiso   1.00
F529   F     0.82829   0.80306   0.40512   0.00000  Uiso   1.00
H530   H     0.91903   0.74292   0.02412   0.00000  Uiso   1.00
H531   H     0.82583   0.85031   0.10029   0.00000  Uiso   1.00
H532   H     0.90300   0.75444   0.09606   0.00000  Uiso   1.00
H533   H     0.91321   0.76187   0.46266   0.00000  Uiso   1.00
H534   H     0.81726   0.89466   0.06821   0.00000  Uiso   1.00
H535   H     0.88518   0.80222   0.42712   0.00000  Uiso   1.00
H536   H     0.78597   0.94783   0.06318   0.00000  Uiso   1.00
H537   H     0.99578   0.79192   0.30763   0.00000  Uiso   1.00
H538   H     0.90397   0.98846   0.19885   0.00000  Uiso   1.00
O539   O     0.83333   0.83333   0.25000   0.00000  Uiso   1.00
O540   O     0.82360   0.79060   0.16625   0.00000  Uiso   1.00
O541   O     0.79354   0.87313   0.33749   0.00000  Uiso   1.00
O542   O     0.87755   0.84159   0.15877   0.00000  Uiso   1.00
O543   O     0.83865   0.82802   0.33749   0.00000  Uiso   1.00
O544   O     0.78509   0.94331   0.03538   0.00000  Uiso   1.00
O545   O     0.97890   0.80282   0.29299   0.00000  Uiso   1.00
O546   O     0.88408   0.67589   0.21319   0.00000  Uiso   1.00
O547   O     0.84515   0.74768   0.27820   0.00000  Uiso   1.00
O548   O     0.81247   0.92803   0.26767   0.00000  Uiso   1.00
O549   O     0.74119   0.79917   0.23607   0.00000  Uiso   1.00
O550   O     0.93452   0.85845   0.21805   0.00000  Uiso   1.00
O551   O     0.73656   0.85627   0.27820   0.00000  Uiso   1.00
O552   O     0.92106   0.81944   0.26767   0.00000  Uiso   1.00
O553   O     0.80467   0.73570   0.23607   0.00000  Uiso   1.00
O554   O     0.87104   0.92193   0.21805   0.00000  Uiso   1.00
Zn555  Zn    0.85910   0.80756   0.28277   0.00000  Uiso   1.00
Zn556  Zn    0.80125   0.79044   0.22257   0.00000  Uiso   1.00
Zn557  Zn    0.87833   0.86331   0.21188   0.00000  Uiso   1.00
Zn558  Zn    0.79465   0.87202   0.28277   0.00000  Uiso   1.00
C559   C     0.05284   0.16031   0.75831   0.00000  Uiso   1.00
C560   C     0.20753   0.14056   0.95878   0.00000  Uiso   1.00
C561   C     0.22520   0.11805   0.97908   0.00000  Uiso   1.00
C562   C     0.28098   0.17349   0.74132   0.00000  Uiso   1.00
C563   C     0.21553   0.12467   0.51989   0.00000  Uiso   1.00
C564   C     0.18950   0.15635   0.54081   0.00000  Uiso   1.00
C565   C     0.23222   0.10024   0.54000   0.00000  Uiso   1.00
C566   C     0.22309   0.10659   0.58080   0.00000  Uiso   1.00
C567   C     0.18024   0.16163   0.58217   0.00000  Uiso   1.00
C568   C     0.32678   0.17563   0.73809   0.00000  Uiso   1.00
C569   C     0.00722   0.15725   0.76296   0.00000  Uiso   1.00
C570   C     0.12436   0.23829   0.91651   0.00000  Uiso   1.00
C571   C     0.18186   0.32289   0.73893   0.00000  Uiso   1.00
C572   C     0.15125   0.01237   0.76200   0.00000  Uiso   1.00
C573   C     0.15557   0.05632   0.75916   0.00000  Uiso   1.00
C574   C     0.17705   0.27781   0.74148   0.00000  Uiso   1.00
C575   C     0.18837   0.14518   0.64412   0.00000  Uiso   1.00
C576   C     0.14571   0.18807   0.85614   0.00000  Uiso   1.00
C577   C     0.14067   0.20072   0.89842   0.00000  Uiso   1.00
C578   C     0.19715   0.13727   0.60170   0.00000  Uiso   1.00
C579   C     0.12241   0.25124   0.95574   0.00000  Uiso   1.00
C580   C     0.15494   0.17629   0.92022   0.00000  Uiso   1.00
C581   C     0.15817   0.19131   0.95847   0.00000  Uiso   1.00
C582   C     0.13907   0.22806   0.97728   0.00000  Uiso   1.00
C583   C     0.17898   0.17026   0.97873   0.00000  Uiso   1.00
C584   C     0.17320   0.18098   0.51971   0.00000  Uiso   1.00
C585   C     0.15277   0.21673   0.53796   0.00000  Uiso   1.00
C586   C     0.13687   0.24085   0.51706   0.00000  Uiso   1.00
F587   F     0.02228   0.19662   0.70923   0.00000  Uiso   1.00
F588   F     0.11460   0.32879   0.78704   0.00000  Uiso   1.00
F589   F     0.10502   0.28718   0.97201   0.00000  Uiso   1.00
F590   F     0.11015   0.26281   0.89634   0.00000  Uiso   1.00
F591   F     0.16162   0.13640   0.90512   0.00000  Uiso   1.00
H592   H     0.25237   0.07626   0.52412   0.00000  Uiso   1.00
H593   H     0.15916   0.18364   0.60029   0.00000  Uiso   1.00
H594   H     0.23633   0.08778   0.59606   0.00000  Uiso   1.00
H595   H     0.24655   0.09521   0.96266   0.00000  Uiso   1.00
H596   H     0.15059   0.22799   0.56821   0.00000  Uiso   1.00
H597   H     0.21851   0.13555   0.92712   0.00000  Uiso   1.00
H598   H     0.11930   0.28116   0.56318   0.00000  Uiso   1.00
H599   H     0.32912   0.12525   0.80763   0.00000  Uiso   1.00
H600   H     0.23730   0.32180   0.69885   0.00000  Uiso   1.00
O601   O     0.16667   0.16667   0.75000   0.00000  Uiso   1.00
O602   O     0.15693   0.12393   0.66625   0.00000  Uiso   1.00
O603   O     0.12687   0.20646   0.83749   0.00000  Uiso   1.00
O604   O     0.21088   0.17493   0.65877   0.00000  Uiso   1.00
O605   O     0.17198   0.16135   0.83749   0.00000  Uiso   1.00
O606   O     0.11843   0.27665   0.53538   0.00000  Uiso   1.00
O607   O     0.31224   0.13615   0.79299   0.00000  Uiso   1.00
O608   O     0.21741   0.00922   0.71319   0.00000  Uiso   1.00
O609   O     0.17849   0.08101   0.77820   0.00000  Uiso   1.00
O610   O     0.14581   0.26136   0.76767   0.00000  Uiso   1.00
O611   O     0.07452   0.13251   0.73607   0.00000  Uiso   1.00
O612   O     0.26785   0.19179   0.71805   0.00000  Uiso   1.00
O613   O     0.06990   0.18960   0.77820   0.00000  Uiso   1.00
O614   O     0.25440   0.15277   0.76767   0.00000  Uiso   1.00
O615   O     0.13800   0.06903   0.73607   0.00000  Uiso   1.00
O616   O     0.20437   0.25527   0.71805   0.00000  Uiso   1.00
Zn617  Zn    0.19244   0.14090   0.78277   0.00000  Uiso   1.00
Zn618  Zn    0.13459   0.12378   0.72257   0.00000  Uiso   1.00
Zn619  Zn    0.21166   0.19664   0.71188   0.00000  Uiso   1.00
Zn620  Zn    0.12798   0.20535   0.78277   0.00000  Uiso   1.00
C621   C     0.38617   0.16031   0.75831   0.00000  Uiso   1.00
C622   C     0.54086   0.14056   0.95878   0.00000  Uiso   1.00
C623   C     0.55854   0.11805   0.97908   0.00000  Uiso   1.00
C624   C     0.61432   0.17349   0.74132   0.00000  Uiso   1.00
C625   C     0.54886   0.12467   0.51989   0.00000  Uiso   1.00
C626   C     0.52284   0.15635   0.54081   0.00000  Uiso   1.00
C627   C     0.56555   0.10024   0.54000   0.00000  Uiso   1.00
C628   C     0.55642   0.10659   0.58080   0.00000  Uiso   1.00
C629   C     0.51357   0.16163   0.58217   0.00000  Uiso   1.00
C630   C     0.66012   0.17563   0.73809   0.00000  Uiso   1.00
C631   C     0.34055   0.15725   0.76296   0.00000  Uiso   1.00
C632   C     0.45769   0.23829   0.91651   0.00000  Uiso   1.00
C633   C     0.51519   0.32289   0.73893   0.00000  Uiso   1.00
C634   C     0.48459   0.01237   0.76200   0.00000  Uiso   1.00
C635   C     0.48891   0.05632   0.75916   0.00000  Uiso   1.00
C636   C     0.51039   0.27781   0.74148   0.00000  Uiso   1.00
C637   C     0.52170   0.14518   0.64412   0.00000  Uiso   1.00
C638   C     0.47904   0.18807   0.85614   0.00000  Uiso   1.00
C639   C     0.47400   0.20072   0.89842   0.00000  Uiso   1.00
C640   C     0.53048   0.13727   0.60170   0.00000  Uiso   1.00
C641   C     0.45575   0.25124   0.95574   0.00000  Uiso   1.00
C642   C     0.48827   0.17629   0.92022   0.00000  Uiso   1.00
C643   C     0.49151   0.19131   0.95847   0.00000  Uiso   1.00
C644   C     0.47240   0.22806   0.97728   0.00000  Uiso   1.00
C645   C     0.51231   0.17026   0.97873   0.00000  Uiso   1.00
C646   C     0.50654   0.18098   0.51971   0.00000  Uiso   1.00
C647   C     0.48611   0.21673   0.53796   0.00000  Uiso   1.00
C648   C     0.47020   0.24085   0.51706   0.00000  Uiso   1.00
F649   F     0.35561   0.19662   0.70923   0.00000  Uiso   1.00
F650   F     0.44794   0.32879   0.78704   0.00000  Uiso   1.00
F651   F     0.43835   0.28718   0.97201   0.00000  Uiso   1.00
F652   F     0.44349   0.26281   0.89634   0.00000  Uiso   1.00
F653   F     0.49495   0.13640   0.90512   0.00000  Uiso   1.00
H654   H     0.58570   0.07626   0.52412   0.00000  Uiso   1.00
H655   H     0.49249   0.18364   0.60029   0.00000  Uiso   1.00
H656   H     0.56967   0.08778   0.59606   0.00000  Uiso   1.00
H657   H     0.57988   0.09521   0.96266   0.00000  Uiso   1.00
H658   H     0.48393   0.22799   0.56821   0.00000  Uiso   1.00
H659   H     0.55185   0.13555   0.92712   0.00000  Uiso   1.00
H660   H     0.45263   0.28116   0.56318   0.00000  Uiso   1.00
H661   H     0.66245   0.12525   0.80763   0.00000  Uiso   1.00
H662   H     0.57063   0.32180   0.69885   0.00000  Uiso   1.00
O663   O     0.50000   0.16667   0.75000   0.00000  Uiso   1.00
O664   O     0.49027   0.12393   0.66625   0.00000  Uiso   1.00
O665   O     0.46020   0.20646   0.83749   0.00000  Uiso   1.00
O666   O     0.54421   0.17493   0.65877   0.00000  Uiso   1.00
O667   O     0.50532   0.16135   0.83749   0.00000  Uiso   1.00
O668   O     0.45176   0.27665   0.53538   0.00000  Uiso   1.00
O669   O     0.64557   0.13615   0.79299   0.00000  Uiso   1.00
O670   O     0.55075   0.00922   0.71319   0.00000  Uiso   1.00
O671   O     0.51182   0.08101   0.77820   0.00000  Uiso   1.00
O672   O     0.47914   0.26136   0.76767   0.00000  Uiso   1.00
O673   O     0.40785   0.13251   0.73607   0.00000  Uiso   1.00
O674   O     0.60119   0.19179   0.71805   0.00000  Uiso   1.00
O675   O     0.40323   0.18960   0.77820   0.00000  Uiso   1.00
O676   O     0.58773   0.15277   0.76767   0.00000  Uiso   1.00
O677   O     0.47133   0.06903   0.73607   0.00000  Uiso   1.00
O678   O     0.53771   0.25527   0.71805   0.00000  Uiso   1.00
Zn679  Zn    0.52577   0.14090   0.78277   0.00000  Uiso   1.00
Zn680  Zn    0.46792   0.12378   0.72257   0.00000  Uiso   1.00
Zn681  Zn    0.54500   0.19664   0.71188   0.00000  Uiso   1.00
Zn682  Zn    0.46131   0.20535   0.78277   0.00000  Uiso   1.00
C683   C     0.71951   0.16031   0.75831   0.00000  Uiso   1.00
C684   C     0.87420   0.14056   0.95878   0.00000  Uiso   1.00
C685   C     0.89187   0.11805   0.97908   0.00000  Uiso   1.00
C686   C     0.94765   0.17349   0.74132   0.00000  Uiso   1.00
C687   C     0.88220   0.12467   0.51989   0.00000  Uiso   1.00
C688   C     0.85617   0.15635   0.54081   0.00000  Uiso   1.00
C689   C     0.89889   0.10024   0.54000   0.00000  Uiso   1.00
C690   C     0.88975   0.10659   0.58080   0.00000  Uiso   1.00
C691   C     0.84691   0.16163   0.58217   0.00000  Uiso   1.00
C692   C     0.99345   0.17563   0.73809   0.00000  Uiso   1.00
C693   C     0.67388   0.15725   0.76296   0.00000  Uiso   1.00
C694   C     0.79103   0.23829   0.91651   0.00000  Uiso   1.00
C695   C     0.84853   0.32289   0.73893   0.00000  Uiso   1.00
C696   C     0.81792   0.01237   0.76200   0.00000  Uiso   1.00
C697   C     0.82224   0.05632   0.75916   0.00000  Uiso   1.00
C698   C     0.84372   0.27781   0.74148   0.00000  Uiso   1.00
C699   C     0.85504   0.14518   0.64412   0.00000  Uiso   1.00
C700   C     0.81238   0.18807   0.85614   0.00000  Uiso   1.00
C701   C     0.80733   0.20072   0.89842   0.00000  Uiso   1.00
C702   C     0.86381   0.13727   0.60170   0.00000  Uiso   1.00
C703   C     0.78908   0.25124   0.95574   0.00000  Uiso   1.00
C704   C     0.82161   0.17629   0.92022   0.00000  Uiso   1.00
C705   C     0.82484   0.19131   0.95847   0.00000  Uiso   1.00
C706   C     0.80574   0.22806   0.97728   0.00000  Uiso   1.00
C707   C     0.84565   0.17026   0.97873   0.00000  Uiso   1.00
C708   C     0.83987   0.18098   0.51971   0.00000  Uiso   1.00
C709   C     0.81944   0.21673   0.53796   0.00000  Uiso   1.00
C710   C     0.80354   0.24085   0.51706   0.00000  Uiso   1.00
F711   F     0.68895   0.19662   0.70923   0.00000  Uiso   1.00
F712   F     0.78127   0.32879   0.78704   0.00000  Uiso   1.00
F713   F     0.77169   0.28718   0.97201   0.00000  Uiso   1.00
F714   F     0.77682   0.26281   0.89634   0.00000  Uiso   1.00
F715   F     0.82829   0.13640   0.90512   0.00000  Uiso   1.00
H716   H     0.91903   0.07626   0.52412   0.00000  Uiso   1.00
H717   H     0.82583   0.18364   0.60029   0.00000  Uiso   1.00
H718   H     0.90300   0.08778   0.59606   0.00000  Uiso   1.00
H719   H     0.91321   0.09521   0.96266   0.00000  Uiso   1.00
H720   H     0.81726   0.22799   0.56821   0.00000  Uiso   1.00
H721   H     0.88518   0.13555   0.92712   0.00000  Uiso   1.00
H722   H     0.78597   0.28116   0.56318   0.00000  Uiso   1.00
H723   H     0.99578   0.12525   0.80763   0.00000  Uiso   1.00
H724   H     0.90397   0.32180   0.69885   0.00000  Uiso   1.00
O725   O     0.83333   0.16667   0.75000   0.00000  Uiso   1.00
O726   O     0.82360   0.12393   0.66625   0.00000  Uiso   1.00
O727   O     0.79354   0.20646   0.83749   0.00000  Uiso   1.00
O728   O     0.87755   0.17493   0.65877   0.00000  Uiso   1.00
O729   O     0.83865   0.16135   0.83749   0.00000  Uiso   1.00
O730   O     0.78509   0.27665   0.53538   0.00000  Uiso   1.00
O731   O     0.97890   0.13615   0.79299   0.00000  Uiso   1.00
O732   O     0.88408   0.00922   0.71319   0.00000  Uiso   1.00
O733   O     0.84515   0.08101   0.77820   0.00000  Uiso   1.00
O734   O     0.81247   0.26136   0.76767   0.00000  Uiso   1.00
O735   O     0.74119   0.13251   0.73607   0.00000  Uiso   1.00
O736   O     0.93452   0.19179   0.71805   0.00000  Uiso   1.00
O737   O     0.73656   0.18960   0.77820   0.00000  Uiso   1.00
O738   O     0.92106   0.15277   0.76767   0.00000  Uiso   1.00
O739   O     0.80467   0.06903   0.73607   0.00000  Uiso   1.00
O740   O     0.87104   0.25527   0.71805   0.00000  Uiso   1.00
Zn741  Zn    0.85910   0.14090   0.78277   0.00000  Uiso   1.00
Zn742  Zn    0.80125   0.12378   0.72257   0.00000  Uiso   1.00
Zn743  Zn    0.87833   0.19664   0.71188   0.00000  Uiso   1.00
Zn744  Zn    0.79465   0.20535   0.78277   0.00000  Uiso   1.00
C745   C     0.05284   0.49365   0.75831   0.00000  Uiso   1.00
C746   C     0.20753   0.47389   0.95878   0.00000  Uiso   1.00
C747   C     0.22520   0.45138   0.97908   0.00000  Uiso   1.00
C748   C     0.28098   0.50682   0.74132   0.00000  Uiso   1.00
C749   C     0.21553   0.45800   0.51989   0.00000  Uiso   1.00
C750   C     0.18950   0.48968   0.54081   0.00000  Uiso   1.00
C751   C     0.23222   0.43357   0.54000   0.00000  Uiso   1.00
C752   C     0.22309   0.43993   0.58080   0.00000  Uiso   1.00
C753   C     0.18024   0.49496   0.58217   0.00000  Uiso   1.00
C754   C     0.32678   0.50897   0.73809   0.00000  Uiso   1.00
C755   C     0.00722   0.49058   0.76296   0.00000  Uiso   1.00
C756   C     0.12436   0.57163   0.91651   0.00000  Uiso   1.00
C757   C     0.18186   0.65622   0.73893   0.00000  Uiso   1.00
C758   C     0.15125   0.34571   0.76200   0.00000  Uiso   1.00
C759   C     0.15557   0.38965   0.75916   0.00000  Uiso   1.00
C760   C     0.17705   0.61114   0.74148   0.00000  Uiso   1.00
C761   C     0.18837   0.47851   0.64412   0.00000  Uiso   1.00
C762   C     0.14571   0.52141   0.85614   0.00000  Uiso   1.00
C763   C     0.14067   0.53406   0.89842   0.00000  Uiso   1.00
C764   C     0.19715   0.47060   0.60170   0.00000  Uiso   1.00
C765   C     0.12241   0.58457   0.95574   0.00000  Uiso   1.00
C766   C     0.15494   0.50962   0.92022   0.00000  Uiso   1.00
C767   C     0.15817   0.52464   0.95847   0.00000  Uiso   1.00
C768   C     0.13907   0.56140   0.97728   0.00000  Uiso   1.00
C769   C     0.17898   0.50360   0.97873   0.00000  Uiso   1.00
C770   C     0.17320   0.51431   0.51971   0.00000  Uiso   1.00
C771   C     0.15277   0.55007   0.53796   0.00000  Uiso   1.00
C772   C     0.13687   0.57419   0.51706   0.00000  Uiso   1.00
F773   F     0.02228   0.52995   0.70923   0.00000  Uiso   1.00
F774   F     0.11460   0.66213   0.78704   0.00000  Uiso   1.00
F775   F     0.10502   0.62051   0.97201   0.00000  Uiso   1.00
F776   F     0.11015   0.59615   0.89634   0.00000  Uiso   1.00
F777   F     0.16162   0.46973   0.90512   0.00000  Uiso   1.00
H778   H     0.25237   0.40959   0.52412   0.00000  Uiso   1.00
H779   H     0.15916   0.51697   0.60029   0.00000  Uiso   1.00
H780   H     0.23633   0.42111   0.59606   0.00000  Uiso   1.00
H781   H     0.24655   0.42854   0.96266   0.00000  Uiso   1.00
H782   H     0.15059   0.56133   0.56821   0.00000  Uiso   1.00
H783   H     0.21851   0.46889   0.92712   0.00000  Uiso   1.00
H784   H     0.11930   0.61449   0.56318   0.00000  Uiso   1.00
H785   H     0.32912   0.45858   0.80763   0.00000  Uiso   1.00
H786   H     0.23730   0.65513   0.69885   0.00000  Uiso   1.00
O787   O     0.16667   0.50000   0.75000   0.00000  Uiso   1.00
O788   O     0.15693   0.45726   0.66625   0.00000  Uiso   1.00
O789   O     0.12687   0.53979   0.83749   0.00000  Uiso   1.00
O790   O     0.21088   0.50826   0.65877   0.00000  Uiso   1.00
O791   O     0.17198   0.49468   0.83749   0.00000  Uiso   1.00
O792   O     0.11843   0.60998   0.53538   0.00000  Uiso   1.00
O793   O     0.31224   0.46948   0.79299   0.00000  Uiso   1.00
O794   O     0.21741   0.34255   0.71319   0.00000  Uiso   1.00
O795   O     0.17849   0.41434   0.77820   0.00000  Uiso   1.00
O796   O     0.14581   0.59469   0.76767   0.00000  Uiso   1.00
O797   O     0.07452   0.46584   0.73607   0.00000  Uiso   1.00
O798   O     0.26785   0.52512   0.71805   0.00000  Uiso   1.00
O799   O     0.06990   0.52293   0.77820   0.00000  Uiso   1.00
O800   O     0.25440   0.48610   0.76767   0.00000  Uiso   1.00
O801   O     0.13800   0.40236   0.73607   0.00000  Uiso   1.00
O802   O     0.20437   0.58860   0.71805   0.00000  Uiso   1.00
Zn803  Zn    0.19244   0.47423   0.78277   0.00000  Uiso   1.00
Zn804  Zn    0.13459   0.45711   0.72257   0.00000  Uiso   1.00
Zn805  Zn    0.21166   0.52997   0.71188   0.00000  Uiso   1.00
Zn806  Zn    0.12798   0.53868   0.78277   0.00000  Uiso   1.00
C807   C     0.38617   0.49365   0.75831   0.00000  Uiso   1.00
C808   C     0.54086   0.47389   0.95878   0.00000  Uiso   1.00
C809   C     0.55854   0.45138   0.97908   0.00000  Uiso   1.00
C810   C     0.61432   0.50682   0.74132   0.00000  Uiso   1.00
C811   C     0.54886   0.45800   0.51989   0.00000  Uiso   1.00
C812   C     0.52284   0.48968   0.54081   0.00000  Uiso   1.00
C813   C     0.56555   0.43357   0.54000   0.00000  Uiso   1.00
C814   C     0.55642   0.43993   0.58080   0.00000  Uiso   1.00
C815   C     0.51357   0.49496   0.58217   0.00000  Uiso   1.00
C816   C     0.66012   0.50897   0.73809   0.00000  Uiso   1.00
C817   C     0.34055   0.49058   0.76296   0.00000  Uiso   1.00
C818   C     0.45769   0.57163   0.91651   0.00000  Uiso   1.00
C819   C     0.51519   0.65622   0.73893   0.00000  Uiso   1.00
C820   C     0.48459   0.34571   0.76200   0.00000  Uiso   1.00
C821   C     0.48891   0.38965   0.75916   0.00000  Uiso   1.00
C822   C     0.51039   0.61114   0.74148   0.00000  Uiso   1.00
C823   C     0.52170   0.47851   0.64412   0.00000  Uiso   1.00
C824   C     0.47904   0.52141   0.85614   0.00000  Uiso   1.00
C825   C     0.47400   0.53406   0.89842   0.00000  Uiso   1.00
C826   C     0.53048   0.47060   0.60170   0.00000  Uiso   1.00
C827   C     0.45575   0.58457   0.95574   0.00000  Uiso   1.00
C828   C     0.48827   0.50962   0.92022   0.00000  Uiso   1.00
C829   C     0.49151   0.52464   0.95847   0.00000  Uiso   1.00
C830   C     0.47240   0.56140   0.97728   0.00000  Uiso   1.00
C831   C     0.51231   0.50360   0.97873   0.00000  Uiso   1.00
C832   C     0.50654   0.51431   0.51971   0.00000  Uiso   1.00
C833   C     0.48611   0.55007   0.53796   0.00000  Uiso   1.00
C834   C     0.47020   0.57419   0.51706   0.00000  Uiso   1.00
F835   F     0.35561   0.52995   0.70923   0.00000  Uiso   1.00
F836   F     0.44794   0.66213   0.78704   0.00000  Uiso   1.00
F837   F     0.43835   0.62051   0.97201   0.00000  Uiso   1.00
F838   F     0.44349   0.59615   0.89634   0.00000  Uiso   1.00
F839   F     0.49495   0.46973   0.90512   0.00000  Uiso   1.00
H840   H     0.58570   0.40959   0.52412   0.00000  Uiso   1.00
H841   H     0.49249   0.51697   0.60029   0.00000  Uiso   1.00
H842   H     0.56967   0.42111   0.59606   0.00000  Uiso   1.00
H843   H     0.57988   0.42854   0.96266   0.00000  Uiso   1.00
H844   H     0.48393   0.56133   0.56821   0.00000  Uiso   1.00
H845   H     0.55185   0.46889   0.92712   0.00000  Uiso   1.00
H846   H     0.45263   0.61449   0.56318   0.00000  Uiso   1.00
H847   H     0.66245   0.45858   0.80763   0.00000  Uiso   1.00
H848   H     0.57063   0.65513   0.69885   0.00000  Uiso   1.00
O849   O     0.50000   0.50000   0.75000   0.00000  Uiso   1.00
O850   O     0.49027   0.45726   0.66625   0.00000  Uiso   1.00
O851   O     0.46020   0.53979   0.83749   0.00000  Uiso   1.00
O852   O     0.54421   0.50826   0.65877   0.00000  Uiso   1.00
O853   O     0.50532   0.49468   0.83749   0.00000  Uiso   1.00
O854   O     0.45176   0.60998   0.53538   0.00000  Uiso   1.00
O855   O     0.64557   0.46948   0.79299   0.00000  Uiso   1.00
O856   O     0.55075   0.34255   0.71319   0.00000  Uiso   1.00
O857   O     0.51182   0.41434   0.77820   0.00000  Uiso   1.00
O858   O     0.47914   0.59469   0.76767   0.00000  Uiso   1.00
O859   O     0.40785   0.46584   0.73607   0.00000  Uiso   1.00
O860   O     0.60119   0.52512   0.71805   0.00000  Uiso   1.00
O861   O     0.40323   0.52293   0.77820   0.00000  Uiso   1.00
O862   O     0.58773   0.48610   0.76767   0.00000  Uiso   1.00
O863   O     0.47133   0.40236   0.73607   0.00000  Uiso   1.00
O864   O     0.53771   0.58860   0.71805   0.00000  Uiso   1.00
Zn865  Zn    0.52577   0.47423   0.78277   0.00000  Uiso   1.00
Zn866  Zn    0.46792   0.45711   0.72257   0.00000  Uiso   1.00
Zn867  Zn    0.54500   0.52997   0.71188   0.00000  Uiso   1.00
Zn868  Zn    0.46131   0.53868   0.78277   0.00000  Uiso   1.00
C869   C     0.71951   0.49365   0.75831   0.00000  Uiso   1.00
C870   C     0.87420   0.47389   0.95878   0.00000  Uiso   1.00
C871   C     0.89187   0.45138   0.97908   0.00000  Uiso   1.00
C872   C     0.94765   0.50682   0.74132   0.00000  Uiso   1.00
C873   C     0.88220   0.45800   0.51989   0.00000  Uiso   1.00
C874   C     0.85617   0.48968   0.54081   0.00000  Uiso   1.00
C875   C     0.89889   0.43357   0.54000   0.00000  Uiso   1.00
C876   C     0.88975   0.43993   0.58080   0.00000  Uiso   1.00
C877   C     0.84691   0.49496   0.58217   0.00000  Uiso   1.00
C878   C     0.99345   0.50897   0.73809   0.00000  Uiso   1.00
C879   C     0.67388   0.49058   0.76296   0.00000  Uiso   1.00
C880   C     0.79103   0.57163   0.91651   0.00000  Uiso   1.00
C881   C     0.84853   0.65622   0.73893   0.00000  Uiso   1.00
C882   C     0.81792   0.34571   0.76200   0.00000  Uiso   1.00
C883   C     0.82224   0.38965   0.75916   0.00000  Uiso   1.00
C884   C     0.84372   0.61114   0.74148   0.00000  Uiso   1.00
C885   C     0.85504   0.47851   0.64412   0.00000  Uiso   1.00
C886   C     0.81238   0.52141   0.85614   0.00000  Uiso   1.00
C887   C     0.80733   0.53406   0.89842   0.00000  Uiso   1.00
C888   C     0.86381   0.47060   0.60170   0.00000  Uiso   1.00
C889   C     0.78908   0.58457   0.95574   0.00000  Uiso   1.00
C890   C     0.82161   0.50962   0.92022   0.00000  Uiso   1.00
C891   C     0.82484   0.52464   0.95847   0.00000  Uiso   1.00
C892   C     0.80574   0.56140   0.97728   0.00000  Uiso   1.00
C893   C     0.84565   0.50360   0.97873   0.00000  Uiso   1.00
C894   C     0.83987   0.51431   0.51971   0.00000  Uiso   1.00
C895   C     0.81944   0.55007   0.53796   0.00000  Uiso   1.00
C896   C     0.80354   0.57419   0.51706   0.00000  Uiso   1.00
F897   F     0.68895   0.52995   0.70923   0.00000  Uiso   1.00
F898   F     0.78127   0.66213   0.78704   0.00000  Uiso   1.00
F899   F     0.77169   0.62051   0.97201   0.00000  Uiso   1.00
F900   F     0.77682   0.59615   0.89634   0.00000  Uiso   1.00
F901   F     0.82829   0.46973   0.90512   0.00000  Uiso   1.00
H902   H     0.91903   0.40959   0.52412   0.00000  Uiso   1.00
H903   H     0.82583   0.51697   0.60029   0.00000  Uiso   1.00
H904   H     0.90300   0.42111   0.59606   0.00000  Uiso   1.00
H905   H     0.91321   0.42854   0.96266   0.00000  Uiso   1.00
H906   H     0.81726   0.56133   0.56821   0.00000  Uiso   1.00
H907   H     0.88518   0.46889   0.92712   0.00000  Uiso   1.00
H908   H     0.78597   0.61449   0.56318   0.00000  Uiso   1.00
H909   H     0.99578   0.45858   0.80763   0.00000  Uiso   1.00
H910   H     0.90397   0.65513   0.69885   0.00000  Uiso   1.00
O911   O     0.83333   0.50000   0.75000   0.00000  Uiso   1.00
O912   O     0.82360   0.45726   0.66625   0.00000  Uiso   1.00
O913   O     0.79354   0.53979   0.83749   0.00000  Uiso   1.00
O914   O     0.87755   0.50826   0.65877   0.00000  Uiso   1.00
O915   O     0.83865   0.49468   0.83749   0.00000  Uiso   1.00
O916   O     0.78509   0.60998   0.53538   0.00000  Uiso   1.00
O917   O     0.97890   0.46948   0.79299   0.00000  Uiso   1.00
O918   O     0.88408   0.34255   0.71319   0.00000  Uiso   1.00
O919   O     0.84515   0.41434   0.77820   0.00000  Uiso   1.00
O920   O     0.81247   0.59469   0.76767   0.00000  Uiso   1.00
O921   O     0.74119   0.46584   0.73607   0.00000  Uiso   1.00
O922   O     0.93452   0.52512   0.71805   0.00000  Uiso   1.00
O923   O     0.73656   0.52293   0.77820   0.00000  Uiso   1.00
O924   O     0.92106   0.48610   0.76767   0.00000  Uiso   1.00
O925   O     0.80467   0.40236   0.73607   0.00000  Uiso   1.00
O926   O     0.87104   0.58860   0.71805   0.00000  Uiso   1.00
Zn927  Zn    0.85910   0.47423   0.78277   0.00000  Uiso   1.00
Zn928  Zn    0.80125   0.45711   0.72257   0.00000  Uiso   1.00
Zn929  Zn    0.87833   0.52997   0.71188   0.00000  Uiso   1.00
Zn930  Zn    0.79465   0.53868   0.78277   0.00000  Uiso   1.00
C931   C     0.05284   0.82698   0.75831   0.00000  Uiso   1.00
C932   C     0.20753   0.80723   0.95878   0.00000  Uiso   1.00
C933   C     0.22520   0.78471   0.97908   0.00000  Uiso   1.00
C934   C     0.28098   0.84016   0.74132   0.00000  Uiso   1.00
C935   C     0.21553   0.79133   0.51989   0.00000  Uiso   1.00
C936   C     0.18950   0.82301   0.54081   0.00000  Uiso   1.00
C937   C     0.23222   0.76691   0.54000   0.00000  Uiso   1.00
C938   C     0.22309   0.77326   0.58080   0.00000  Uiso   1.00
C939   C     0.18024   0.82829   0.58217   0.00000  Uiso   1.00
C940   C     0.32678   0.84230   0.73809   0.00000  Uiso   1.00
C941   C     0.00722   0.82391   0.76296   0.00000  Uiso   1.00
C942   C     0.12436   0.90496   0.91651   0.00000  Uiso   1.00
C943   C     0.18186   0.98956   0.73893   0.00000  Uiso   1.00
C944   C     0.15125   0.67904   0.76200   0.00000  Uiso   1.00
C945   C     0.15557   0.72299   0.75916   0.00000  Uiso   1.00
C946   C     0.17705   0.94447   0.74148   0.00000  Uiso   1.00
C947   C     0.18837   0.81184   0.64412   0.00000  Uiso   1.00
C948   C     0.14571   0.85474   0.85614   0.00000  Uiso   1.00
C949   C     0.14067   0.86739   0.89842   0.00000  Uiso   1.00
C950   C     0.19715   0.80393   0.60170   0.00000  Uiso   1.00
C951   C     0.12241   0.91790   0.95574   0.00000  Uiso   1.00
C952   C     0.15494   0.84295   0.92022   0.00000  Uiso   1.00
C953   C     0.15817   0.85798   0.95847   0.00000  Uiso   1.00
C954   C     0.13907   0.89473   0.97728   0.00000  Uiso   1.00
C955   C     0.17898   0.83693   0.97873   0.00000  Uiso   1.00
C956   C     0.17320   0.84764   0.51971   0.00000  Uiso   1.00
C957   C     0.15277   0.88340   0.53796   0.00000  Uiso   1.00
C958   C     0.13687   0.90752   0.51706   0.00000  Uiso   1.00
F959   F     0.02228   0.86329   0.70923   0.00000  Uiso   1.00
F960   F     0.11460   0.99546   0.78704   0.00000  Uiso   1.00
F961   F     0.10502   0.95384   0.97201   0.00000  Uiso   1.00
F962   F     0.11015   0.92948   0.89634   0.00000  Uiso   1.00
F963   F     0.16162   0.80306   0.90512   0.00000  Uiso   1.00
H964   H     0.25237   0.74292   0.52412   0.00000  Uiso   1.00
H965   H     0.15916   0.85031   0.60029   0.00000  Uiso   1.00
H966   H     0.23633   0.75444   0.59606   0.00000  Uiso   1.00
H967   H     0.24655   0.76187   0.96266   0.00000  Uiso   1.00
H968   H     0.15059   0.89466   0.56821   0.00000  Uiso   1.00
H969   H     0.21851   0.80222   0.92712   0.00000  Uiso   1.00
H970   H     0.11930   0.94783   0.56318   0.00000  Uiso   1.00
H971   H     0.32912   0.79192   0.80763   0.00000  Uiso   1.00
H972   H     0.23730   0.98846   0.69885   0.00000  Uiso   1.00
O973   O     0.16667   0.83333   0.75000   0.00000  Uiso   1.00
O974   O     0.15693   0.79060   0.66625   0.00000  Uiso   1.00
O975   O     0.12687   0.87313   0.83749   0.00000  Uiso   1.00
O976   O     0.21088   0.84159   0.65877   0.00000  Uiso   1.00
O977   O     0.17198   0.82802   0.83749   0.00000  Uiso   1.00
O978   O     0.11843   0.94331   0.53538   0.00000  Uiso   1.00
O979   O     0.31224   0.80282   0.79299   0.00000  Uiso   1.00
O980   O     0.21741   0.67589   0.71319   0.00000  Uiso   1.00
O981   O     0.17849   0.74768   0.77820   0.00000  Uiso   1.00
O982   O     0.14581   0.92803   0.76767   0.00000  Uiso   1.00
O983   O     0.07452   0.79917   0.73607   0.00000  Uiso   1.00
O984   O     0.26785   0.85845   0.71805   0.00000  Uiso   1.00
O985   O     0.06990   0.85627   0.77820   0.00000  Uiso   1.00
O986   O     0.25440   0.81944   0.76767   0.00000  Uiso   1.00
O987   O     0.13800   0.73570   0.73607   0.00000  Uiso   1.00
O988   O     0.20437   0.92193   0.71805   0.00000  Uiso   1.00
Zn989  Zn    0.19244   0.80756   0.78277   0.00000  Uiso   1.00
Zn990  Zn    0.13459   0.79044   0.72257   0.00000  Uiso   1.00
Zn991  Zn    0.21166   0.86331   0.71188   0.00000  Uiso   1.00
Zn992  Zn    0.12798   0.87202   0.78277   0.00000  Uiso   1.00
C993   C     0.38617   0.82698   0.75831   0.00000  Uiso   1.00
C994   C     0.54086   0.80723   0.95878   0.00000  Uiso   1.00
C995   C     0.55854   0.78471   0.97908   0.00000  Uiso   1.00
C996   C     0.61432   0.84016   0.74132   0.00000  Uiso   1.00
C997   C     0.54886   0.79133   0.51989   0.00000  Uiso   1.00
C998   C     0.52284   0.82301   0.54081   0.00000  Uiso   1.00
C999   C     0.56555   0.76691   0.54000   0.00000  Uiso   1.00
C1000  C     0.55642   0.77326   0.58080   0.00000  Uiso   1.00
C1001  C     0.51357   0.82829   0.58217   0.00000  Uiso   1.00
C1002  C     0.66012   0.84230   0.73809   0.00000  Uiso   1.00
C1003  C     0.34055   0.82391   0.76296   0.00000  Uiso   1.00
C1004  C     0.45769   0.90496   0.91651   0.00000  Uiso   1.00
C1005  C     0.51519   0.98956   0.73893   0.00000  Uiso   1.00
C1006  C     0.48459   0.67904   0.76200   0.00000  Uiso   1.00
C1007  C     0.48891   0.72299   0.75916   0.00000  Uiso   1.00
C1008  C     0.51039   0.94447   0.74148   0.00000  Uiso   1.00
C1009  C     0.52170   0.81184   0.64412   0.00000  Uiso   1.00
C1010  C     0.47904   0.85474   0.85614   0.00000  Uiso   1.00
C1011  C     0.47400   0.86739   0.89842   0.00000  Uiso   1.00
C1012  C     0.53048   0.80393   0.60170   0.00000  Uiso   1.00
C1013  C     0.45575   0.91790   0.95574   0.00000  Uiso   1.00
C1014  C     0.48827   0.84295   0.92022   0.00000  Uiso   1.00
C1015  C     0.49151   0.85798   0.95847   0.00000  Uiso   1.00
C1016  C     0.47240   0.89473   0.97728   0.00000  Uiso   1.00
C1017  C     0.51231   0.83693   0.97873   0.00000  Uiso   1.00
C1018  C     0.50654   0.84764   0.51971   0.00000  Uiso   1.00
C1019  C     0.48611   0.88340   0.53796   0.00000  Uiso   1.00
C1020  C     0.47020   0.90752   0.51706   0.00000  Uiso   1.00
F1021  F     0.35561   0.86329   0.70923   0.00000  Uiso   1.00
F1022  F     0.44794   0.99546   0.78704   0.00000  Uiso   1.00
F1023  F     0.43835   0.95384   0.97201   0.00000  Uiso   1.00
F1024  F     0.44349   0.92948   0.89634   0.00000  Uiso   1.00
F1025  F     0.49495   0.80306   0.90512   0.00000  Uiso   1.00
H1026  H     0.58570   0.74292   0.52412   0.00000  Uiso   1.00
H1027  H     0.49249   0.85031   0.60029   0.00000  Uiso   1.00
H1028  H     0.56967   0.75444   0.59606   0.00000  Uiso   1.00
H1029  H     0.57988   0.76187   0.96266   0.00000  Uiso   1.00
H1030  H     0.48393   0.89466   0.56821   0.00000  Uiso   1.00
H1031  H     0.55185   0.80222   0.92712   0.00000  Uiso   1.00
H1032  H     0.45263   0.94783   0.56318   0.00000  Uiso   1.00
H1033  H     0.66245   0.79192   0.80763   0.00000  Uiso   1.00
H1034  H     0.57063   0.98846   0.69885   0.00000  Uiso   1.00
O1035  O     0.50000   0.83333   0.75000   0.00000  Uiso   1.00
O1036  O     0.49027   0.79060   0.66625   0.00000  Uiso   1.00
O1037  O     0.46020   0.87313   0.83749   0.00000  Uiso   1.00
O1038  O     0.54421   0.84159   0.65877   0.00000  Uiso   1.00
O1039  O     0.50532   0.82802   0.83749   0.00000  Uiso   1.00
O1040  O     0.45176   0.94331   0.53538   0.00000  Uiso   1.00
O1041  O     0.64557   0.80282   0.79299   0.00000  Uiso   1.00
O1042  O     0.55075   0.67589   0.71319   0.00000  Uiso   1.00
O1043  O     0.51182   0.74768   0.77820   0.00000  Uiso   1.00
O1044  O     0.47914   0.92803   0.76767   0.00000  Uiso   1.00
O1045  O     0.40785   0.79917   0.73607   0.00000  Uiso   1.00
O1046  O     0.60119   0.85845   0.71805   0.00000  Uiso   1.00
O1047  O     0.40323   0.85627   0.77820   0.00000  Uiso   1.00
O1048  O     0.58773   0.81944   0.76767   0.00000  Uiso   1.00
O1049  O     0.47133   0.73570   0.73607   0.00000  Uiso   1.00
O1050  O     0.53771   0.92193   0.71805   0.00000  Uiso   1.00
Zn1051 Zn    0.52577   0.80756   0.78277   0.00000  Uiso   1.00
Zn1052 Zn    0.46792   0.79044   0.72257   0.00000  Uiso   1.00
Zn1053 Zn    0.54500   0.86331   0.71188   0.00000  Uiso   1.00
Zn1054 Zn    0.46131   0.87202   0.78277   0.00000  Uiso   1.00
C1055  C     0.71951   0.82698   0.75831   0.00000  Uiso   1.00
C1056  C     0.87420   0.80723   0.95878   0.00000  Uiso   1.00
C1057  C     0.89187   0.78471   0.97908   0.00000  Uiso   1.00
C1058  C     0.94765   0.84016   0.74132   0.00000  Uiso   1.00
C1059  C     0.88220   0.79133   0.51989   0.00000  Uiso   1.00
C1060  C     0.85617   0.82301   0.54081   0.00000  Uiso   1.00
C1061  C     0.89889   0.76691   0.54000   0.00000  Uiso   1.00
C1062  C     0.88975   0.77326   0.58080   0.00000  Uiso   1.00
C1063  C     0.84691   0.82829   0.58217   0.00000  Uiso   1.00
C1064  C     0.99345   0.84230   0.73809   0.00000  Uiso   1.00
C1065  C     0.67388   0.82391   0.76296   0.00000  Uiso   1.00
C1066  C     0.79103   0.90496   0.91651   0.00000  Uiso   1.00
C1067  C     0.84853   0.98956   0.73893   0.00000  Uiso   1.00
C1068  C     0.81792   0.67904   0.76200   0.00000  Uiso   1.00
C1069  C     0.82224   0.72299   0.75916   0.00000  Uiso   1.00
C1070  C     0.84372   0.94447   0.74148   0.00000  Uiso   1.00
C1071  C     0.85504   0.81184   0.64412   0.00000  Uiso   1.00
C1072  C     0.81238   0.85474   0.85614   0.00000  Uiso   1.00
C1073  C     0.80733   0.86739   0.89842   0.00000  Uiso   1.00
C1074  C     0.86381   0.80393   0.60170   0.00000  Uiso   1.00
C1075  C     0.78908   0.91790   0.95574   0.00000  Uiso   1.00
C1076  C     0.82161   0.84295   0.92022   0.00000  Uiso   1.00
C1077  C     0.82484   0.85798   0.95847   0.00000  Uiso   1.00
C1078  C     0.80574   0.89473   0.97728   0.00000  Uiso   1.00
C1079  C     0.84565   0.83693   0.97873   0.00000  Uiso   1.00
C1080  C     0.83987   0.84764   0.51971   0.00000  Uiso   1.00
C1081  C     0.81944   0.88340   0.53796   0.00000  Uiso   1.00
C1082  C     0.80354   0.90752   0.51706   0.00000  Uiso   1.00
F1083  F     0.68895   0.86329   0.70923   0.00000  Uiso   1.00
F1084  F     0.78127   0.99546   0.78704   0.00000  Uiso   1.00
F1085  F     0.77169   0.95384   0.97201   0.00000  Uiso   1.00
F1086  F     0.77682   0.92948   0.89634   0.00000  Uiso   1.00
F1087  F     0.82829   0.80306   0.90512   0.00000  Uiso   1.00
H1088  H     0.91903   0.74292   0.52412   0.00000  Uiso   1.00
H1089  H     0.82583   0.85031   0.60029   0.00000  Uiso   1.00
H1090  H     0.90300   0.75444   0.59606   0.00000  Uiso   1.00
H1091  H     0.91321   0.76187   0.96266   0.00000  Uiso   1.00
H1092  H     0.81726   0.89466   0.56821   0.00000  Uiso   1.00
H1093  H     0.88518   0.80222   0.92712   0.00000  Uiso   1.00
H1094  H     0.78597   0.94783   0.56318   0.00000  Uiso   1.00
H1095  H     0.99578   0.79192   0.80763   0.00000  Uiso   1.00
H1096  H     0.90397   0.98846   0.69885   0.00000  Uiso   1.00
O1097  O     0.83333   0.83333   0.75000   0.00000  Uiso   1.00
O1098  O     0.82360   0.79060   0.66625   0.00000  Uiso   1.00
O1099  O     0.79354   0.87313   0.83749   0.00000  Uiso   1.00
O1100  O     0.87755   0.84159   0.65877   0.00000  Uiso   1.00
O1101  O     0.83865   0.82802   0.83749   0.00000  Uiso   1.00
O1102  O     0.78509   0.94331   0.53538   0.00000  Uiso   1.00
O1103  O     0.97890   0.80282   0.79299   0.00000  Uiso   1.00
O1104  O     0.88408   0.67589   0.71319   0.00000  Uiso   1.00
O1105  O     0.84515   0.74768   0.77820   0.00000  Uiso   1.00
O1106  O     0.81247   0.92803   0.76767   0.00000  Uiso   1.00
O1107  O     0.74119   0.79917   0.73607   0.00000  Uiso   1.00
O1108  O     0.93452   0.85845   0.71805   0.00000  Uiso   1.00
O1109  O     0.73656   0.85627   0.77820   0.00000  Uiso   1.00
O1110  O     0.92106   0.81944   0.76767   0.00000  Uiso   1.00
O1111  O     0.80467   0.73570   0.73607   0.00000  Uiso   1.00
O1112  O     0.87104   0.92193   0.71805   0.00000  Uiso   1.00
Zn1113 Zn    0.85910   0.80756   0.78277   0.00000  Uiso   1.00
Zn1114 Zn    0.80125   0.79044   0.72257   0.00000  Uiso   1.00
Zn1115 Zn    0.87833   0.86331   0.71188   0.00000  Uiso   1.00
Zn1116 Zn    0.79465   0.87202   0.78277   0.00000  Uiso   1.00
loop_
_geom_bond_atom_site_label_1
_geom_bond_atom_site_label_2
_geom_bond_distance
_geom_bond_site_symmetry_2
_ccdc_geom_bond_type
C1     C11     1.441   .     S
C1     O55     1.268   .     A
C1     O53     1.270   .     A
C2     C3      1.386   .     A
C2     H39     1.078   .     S
C2     C25     1.414   .     A
C3     H37     1.084   .     S
C3     C563    1.391   .     S
C4     C10     1.459   .     S
C4     O54     1.288   .     A
C4     O56     1.274   .     A
C5     C7      1.403   .     A
C5     C6      1.421   .     A
C5     C561    1.391   1_554 S
C6     C26     1.426   .     A
C6     C9      1.409   .     A
C7     C8      1.391   .     A
C7     H34     1.084   .     S
C8     C20     1.395   .     A
C8     H36     1.083   .     S
C9     C20     1.392   .     A
C9     H35     1.078   .     S
C10    C73     1.348   .     S
C10    F91     1.363   .     S
C11    C134    1.348   1_455 S
C11    O173    1.385   1_455 S
C12    F32     1.358   .     S
C12    C19     1.403   .     A
C12    C21     1.391   .     A
C13    C16     1.468   .     S
C13    C200    1.340   .     S
C13    O236    1.387   .     S
C14    C15     1.434   .     S
C14    C385    1.340   1_545 S
C14    F402    1.361   1_545 S
C15    O51     1.279   .     A
C15    O57     1.276   .     A
C16    O58     1.273   .     A
C16    O52     1.274   .     A
C17    C20     1.450   .     S
C17    O44     1.275   .     A
C17    O46     1.275   .     A
C18    O45     1.283   .     A
C18    O47     1.289   .     A
C18    C19     1.476   .     S
C19    C22     1.400   .     A
C21    F31     1.358   .     S
C21    C24     1.412   .     A
C22    F33     1.359   .     S
C22    C23     1.414   .     A
C23    C24     1.423   .     A
C23    C25     1.423   .     A
C24    C586    1.408   .     S
C25    C584    1.420   .     S
C26    C27     1.411   .     A
C26    C583    1.420   1_554 S
C27    C28     1.401   .     A
C27    H38     1.076   .     S
C28    O48     1.384   .     S
C28    C582    1.408   1_554 S
F29    C134    1.363   1_455 S
F30    C200    1.361   .     S
H40    O48     0.992   .     S
H41    O49     0.992   .     S
H42    O236    0.990   .     S
O43    Zn59    1.964   .     S
O43    Zn60    1.948   .     S
O43    Zn61    1.935   .     S
O43    Zn62    1.936   .     S
O44    Zn60    1.929   .     S
O45    Zn62    1.940   .     S
O46    Zn61    1.936   .     S
O47    Zn59    1.926   .     S
O49    C73     1.385   .     S
O50    C385    1.387   1_545 S
O50    H414    0.990   1_545 S
O51    Zn59    1.932   .     S
O52    Zn62    1.934   .     S
O53    Zn60    1.933   .     S
O54    Zn61    1.944   .     S
O55    Zn62    1.940   .     S
O56    Zn59    1.930   .     S
O57    Zn60    1.940   .     S
O58    Zn61    1.935   .     S
C63    C73     1.441   .     S
C63    O117    1.268   .     A
C63    O115    1.270   .     A
C64    C65     1.386   .     A
C64    H101    1.078   .     S
C64    C87     1.414   .     A
C65    H99     1.084   .     S
C65    C625    1.391   .     S
C66    C72     1.459   .     S
C66    O116    1.288   .     A
C66    O118    1.274   .     A
C67    C69     1.403   .     A
C67    C68     1.421   .     A
C67    C623    1.391   1_554 S
C68    C88     1.426   .     A
C68    C71     1.409   .     A
C69    C70     1.391   .     A
C69    H96     1.084   .     S
C70    C82     1.395   .     A
C70    H98     1.083   .     S
C71    C82     1.392   .     A
C71    H97     1.078   .     S
C72    C135    1.348   .     S
C72    F153    1.363   .     S
C74    F94     1.358   .     S
C74    C81     1.403   .     A
C74    C83     1.391   .     A
C75    C78     1.468   .     S
C75    C262    1.340   .     S
C75    O298    1.387   .     S
C76    C77     1.434   .     S
C76    C447    1.340   1_545 S
C76    F464    1.361   1_545 S
C77    O113    1.279   .     A
C77    O119    1.276   .     A
C78    O120    1.273   .     A
C78    O114    1.274   .     A
C79    C82     1.450   .     S
C79    O106    1.275   .     A
C79    O108    1.275   .     A
C80    O107    1.283   .     A
C80    O109    1.289   .     A
C80    C81     1.476   .     S
C81    C84     1.400   .     A
C83    F93     1.358   .     S
C83    C86     1.412   .     A
C84    F95     1.359   .     S
C84    C85     1.414   .     A
C85    C86     1.423   .     A
C85    C87     1.423   .     A
C86    C648    1.408   .     S
C87    C646    1.420   .     S
C88    C89     1.411   .     A
C88    C645    1.420   1_554 S
C89    C90     1.401   .     A
C89    H100    1.076   .     S
C90    O110    1.384   .     S
C90    C644    1.408   1_554 S
F92    C262    1.361   .     S
H102   O110    0.992   .     S
H103   O111    0.992   .     S
H104   O298    0.990   .     S
O105   Zn121   1.964   .     S
O105   Zn122   1.948   .     S
O105   Zn123   1.935   .     S
O105   Zn124   1.936   .     S
O106   Zn122   1.929   .     S
O107   Zn124   1.940   .     S
O108   Zn123   1.936   .     S
O109   Zn121   1.926   .     S
O111   C135    1.385   .     S
O112   C447    1.387   1_545 S
O112   H476    0.990   1_545 S
O113   Zn121   1.932   .     S
O114   Zn124   1.934   .     S
O115   Zn122   1.933   .     S
O116   Zn123   1.944   .     S
O117   Zn124   1.940   .     S
O118   Zn121   1.930   .     S
O119   Zn122   1.940   .     S
O120   Zn123   1.935   .     S
C125   C135    1.441   .     S
C125   O179    1.268   .     A
C125   O177    1.270   .     A
C126   C127    1.386   .     A
C126   H163    1.078   .     S
C126   C149    1.414   .     A
C127   H161    1.084   .     S
C127   C687    1.391   .     S
C128   C134    1.459   .     S
C128   O178    1.288   .     A
C128   O180    1.274   .     A
C129   C131    1.403   .     A
C129   C130    1.421   .     A
C129   C685    1.391   1_554 S
C130   C150    1.426   .     A
C130   C133    1.409   .     A
C131   C132    1.391   .     A
C131   H158    1.084   .     S
C132   C144    1.395   .     A
C132   H160    1.083   .     S
C133   C144    1.392   .     A
C133   H159    1.078   .     S
C134   C11     1.348   1_655 S
C134   F29     1.363   1_655 S
C136   F156    1.358   .     S
C136   C143    1.403   .     A
C136   C145    1.391   .     A
C137   C140    1.468   .     S
C137   C324    1.340   .     S
C137   O360    1.387   .     S
C138   C139    1.434   .     S
C138   C509    1.340   1_545 S
C138   F526    1.361   1_545 S
C139   O175    1.279   .     A
C139   O181    1.276   .     A
C140   O182    1.273   .     A
C140   O176    1.274   .     A
C141   C144    1.450   .     S
C141   O168    1.275   .     A
C141   O170    1.275   .     A
C142   O169    1.283   .     A
C142   O171    1.289   .     A
C142   C143    1.476   .     S
C143   C146    1.400   .     A
C145   F155    1.358   .     S
C145   C148    1.412   .     A
C146   F157    1.359   .     S
C146   C147    1.414   .     A
C147   C148    1.423   .     A
C147   C149    1.423   .     A
C148   C710    1.408   .     S
C149   C708    1.420   .     S
C150   C151    1.411   .     A
C150   C707    1.420   1_554 S
C151   C152    1.401   .     A
C151   H162    1.076   .     S
C152   O172    1.384   .     S
C152   C706    1.408   1_554 S
F154   C324    1.361   .     S
H164   O172    0.992   .     S
H165   O173    0.992   .     S
H166   O360    0.990   .     S
O167   Zn183   1.964   .     S
O167   Zn184   1.948   .     S
O167   Zn185   1.935   .     S
O167   Zn186   1.936   .     S
O168   Zn184   1.929   .     S
O169   Zn186   1.940   .     S
O170   Zn185   1.936   .     S
O171   Zn183   1.926   .     S
O173   C11     1.385   1_655 S
O174   C509    1.387   1_545 S
O174   H538    0.990   1_545 S
O175   Zn183   1.932   .     S
O176   Zn186   1.934   .     S
O177   Zn184   1.933   .     S
O178   Zn185   1.944   .     S
O179   Zn186   1.940   .     S
O180   Zn183   1.930   .     S
O181   Zn184   1.940   .     S
O182   Zn185   1.935   .     S
C187   C197    1.441   .     S
C187   O241    1.268   .     A
C187   O239    1.270   .     A
C188   C189    1.386   .     A
C188   H225    1.078   .     S
C188   C211    1.414   .     A
C189   H223    1.084   .     S
C189   C749    1.391   .     S
C190   C196    1.459   .     S
C190   O240    1.288   .     A
C190   O242    1.274   .     A
C191   C193    1.403   .     A
C191   C192    1.421   .     A
C191   C747    1.391   1_554 S
C192   C212    1.426   .     A
C192   C195    1.409   .     A
C193   C194    1.391   .     A
C193   H220    1.084   .     S
C194   C206    1.395   .     A
C194   H222    1.083   .     S
C195   C206    1.392   .     A
C195   H221    1.078   .     S
C196   C259    1.348   .     S
C196   F277    1.363   .     S
C197   C320    1.348   1_455 S
C197   O359    1.385   1_455 S
C198   F218    1.358   .     S
C198   C205    1.403   .     A
C198   C207    1.391   .     A
C199   C202    1.468   .     S
C199   C386    1.340   .     S
C199   O422    1.387   .     S
C200   C201    1.434   .     S
C201   O237    1.279   .     A
C201   O243    1.276   .     A
C202   O244    1.273   .     A
C202   O238    1.274   .     A
C203   C206    1.450   .     S
C203   O230    1.275   .     A
C203   O232    1.275   .     A
C204   O231    1.283   .     A
C204   O233    1.289   .     A
C204   C205    1.476   .     S
C205   C208    1.400   .     A
C207   F217    1.358   .     S
C207   C210    1.412   .     A
C208   F219    1.359   .     S
C208   C209    1.414   .     A
C209   C210    1.423   .     A
C209   C211    1.423   .     A
C210   C772    1.408   .     S
C211   C770    1.420   .     S
C212   C213    1.411   .     A
C212   C769    1.420   1_554 S
C213   C214    1.401   .     A
C213   H224    1.076   .     S
C214   O234    1.384   .     S
C214   C768    1.408   1_554 S
F215   C320    1.363   1_455 S
F216   C386    1.361   .     S
H226   O234    0.992   .     S
H227   O235    0.992   .     S
H228   O422    0.990   .     S
O229   Zn245   1.964   .     S
O229   Zn246   1.948   .     S
O229   Zn247   1.935   .     S
O229   Zn248   1.936   .     S
O230   Zn246   1.929   .     S
O231   Zn248   1.940   .     S
O232   Zn247   1.936   .     S
O233   Zn245   1.926   .     S
O235   C259    1.385   .     S
O237   Zn245   1.932   .     S
O238   Zn248   1.934   .     S
O239   Zn246   1.933   .     S
O240   Zn247   1.944   .     S
O241   Zn248   1.940   .     S
O242   Zn245   1.930   .     S
O243   Zn246   1.940   .     S
O244   Zn247   1.935   .     S
C249   C259    1.441   .     S
C249   O303    1.268   .     A
C249   O301    1.270   .     A
C250   C251    1.386   .     A
C250   H287    1.078   .     S
C250   C273    1.414   .     A
C251   H285    1.084   .     S
C251   C811    1.391   .     S
C252   C258    1.459   .     S
C252   O302    1.288   .     A
C252   O304    1.274   .     A
C253   C255    1.403   .     A
C253   C254    1.421   .     A
C253   C809    1.391   1_554 S
C254   C274    1.426   .     A
C254   C257    1.409   .     A
C255   C256    1.391   .     A
C255   H282    1.084   .     S
C256   C268    1.395   .     A
C256   H284    1.083   .     S
C257   C268    1.392   .     A
C257   H283    1.078   .     S
C258   C321    1.348   .     S
C258   F339    1.363   .     S
C260   F280    1.358   .     S
C260   C267    1.403   .     A
C260   C269    1.391   .     A
C261   C264    1.468   .     S
C261   C448    1.340   .     S
C261   O484    1.387   .     S
C262   C263    1.434   .     S
C263   O299    1.279   .     A
C263   O305    1.276   .     A
C264   O306    1.273   .     A
C264   O300    1.274   .     A
C265   C268    1.450   .     S
C265   O292    1.275   .     A
C265   O294    1.275   .     A
C266   O293    1.283   .     A
C266   O295    1.289   .     A
C266   C267    1.476   .     S
C267   C270    1.400   .     A
C269   F279    1.358   .     S
C269   C272    1.412   .     A
C270   F281    1.359   .     S
C270   C271    1.414   .     A
C271   C272    1.423   .     A
C271   C273    1.423   .     A
C272   C834    1.408   .     S
C273   C832    1.420   .     S
C274   C275    1.411   .     A
C274   C831    1.420   1_554 S
C275   C276    1.401   .     A
C275   H286    1.076   .     S
C276   O296    1.384   .     S
C276   C830    1.408   1_554 S
F278   C448    1.361   .     S
H288   O296    0.992   .     S
H289   O297    0.992   .     S
H290   O484    0.990   .     S
O291   Zn307   1.964   .     S
O291   Zn308   1.948   .     S
O291   Zn309   1.935   .     S
O291   Zn310   1.936   .     S
O292   Zn308   1.929   .     S
O293   Zn310   1.940   .     S
O294   Zn309   1.936   .     S
O295   Zn307   1.926   .     S
O297   C321    1.385   .     S
O299   Zn307   1.932   .     S
O300   Zn310   1.934   .     S
O301   Zn308   1.933   .     S
O302   Zn309   1.944   .     S
O303   Zn310   1.940   .     S
O304   Zn307   1.930   .     S
O305   Zn308   1.940   .     S
O306   Zn309   1.935   .     S
C311   C321    1.441   .     S
C311   O365    1.268   .     A
C311   O363    1.270   .     A
C312   C313    1.386   .     A
C312   H349    1.078   .     S
C312   C335    1.414   .     A
C313   H347    1.084   .     S
C313   C873    1.391   .     S
C314   C320    1.459   .     S
C314   O364    1.288   .     A
C314   O366    1.274   .     A
C315   C317    1.403   .     A
C315   C316    1.421   .     A
C315   C871    1.391   1_554 S
C316   C336    1.426   .     A
C316   C319    1.409   .     A
C317   C318    1.391   .     A
C317   H344    1.084   .     S
C318   C330    1.395   .     A
C318   H346    1.083   .     S
C319   C330    1.392   .     A
C319   H345    1.078   .     S
C320   C197    1.348   1_655 S
C320   F215    1.363   1_655 S
C322   F342    1.358   .     S
C322   C329    1.403   .     A
C322   C331    1.391   .     A
C323   C326    1.468   .     S
C323   C510    1.340   .     S
C323   O546    1.387   .     S
C324   C325    1.434   .     S
C325   O361    1.279   .     A
C325   O367    1.276   .     A
C326   O368    1.273   .     A
C326   O362    1.274   .     A
C327   C330    1.450   .     S
C327   O354    1.275   .     A
C327   O356    1.275   .     A
C328   O355    1.283   .     A
C328   O357    1.289   .     A
C328   C329    1.476   .     S
C329   C332    1.400   .     A
C331   F341    1.358   .     S
C331   C334    1.412   .     A
C332   F343    1.359   .     S
C332   C333    1.414   .     A
C333   C334    1.423   .     A
C333   C335    1.423   .     A
C334   C896    1.408   .     S
C335   C894    1.420   .     S
C336   C337    1.411   .     A
C336   C893    1.420   1_554 S
C337   C338    1.401   .     A
C337   H348    1.076   .     S
C338   O358    1.384   .     S
C338   C892    1.408   1_554 S
F340   C510    1.361   .     S
H350   O358    0.992   .     S
H351   O359    0.992   .     S
H352   O546    0.990   .     S
O353   Zn369   1.964   .     S
O353   Zn370   1.948   .     S
O353   Zn371   1.935   .     S
O353   Zn372   1.936   .     S
O354   Zn370   1.929   .     S
O355   Zn372   1.940   .     S
O356   Zn371   1.936   .     S
O357   Zn369   1.926   .     S
O359   C197    1.385   1_655 S
O361   Zn369   1.932   .     S
O362   Zn372   1.934   .     S
O363   Zn370   1.933   .     S
O364   Zn371   1.944   .     S
O365   Zn372   1.940   .     S
O366   Zn369   1.930   .     S
O367   Zn370   1.940   .     S
O368   Zn371   1.935   .     S
C373   C383    1.441   .     S
C373   O427    1.268   .     A
C373   O425    1.270   .     A
C374   C375    1.386   .     A
C374   H411    1.078   .     S
C374   C397    1.414   .     A
C375   H409    1.084   .     S
C375   C935    1.391   .     S
C376   C382    1.459   .     S
C376   O426    1.288   .     A
C376   O428    1.274   .     A
C377   C379    1.403   .     A
C377   C378    1.421   .     A
C377   C933    1.391   1_554 S
C378   C398    1.426   .     A
C378   C381    1.409   .     A
C379   C380    1.391   .     A
C379   H406    1.084   .     S
C380   C392    1.395   .     A
C380   H408    1.083   .     S
C381   C392    1.392   .     A
C381   H407    1.078   .     S
C382   C445    1.348   .     S
C382   F463    1.363   .     S
C383   C506    1.348   1_455 S
C383   O545    1.385   1_455 S
C384   F404    1.358   .     S
C384   C391    1.403   .     A
C384   C393    1.391   .     A
C385   C388    1.468   .     S
C385   C14     1.340   1_565 S
C385   O50     1.387   1_565 S
C386   C387    1.434   .     S
C387   O423    1.279   .     A
C387   O429    1.276   .     A
C388   O430    1.273   .     A
C388   O424    1.274   .     A
C389   C392    1.450   .     S
C389   O416    1.275   .     A
C389   O418    1.275   .     A
C390   O417    1.283   .     A
C390   O419    1.289   .     A
C390   C391    1.476   .     S
C391   C394    1.400   .     A
C393   F403    1.358   .     S
C393   C396    1.412   .     A
C394   F405    1.359   .     S
C394   C395    1.414   .     A
C395   C396    1.423   .     A
C395   C397    1.423   .     A
C396   C958    1.408   .     S
C397   C956    1.420   .     S
C398   C399    1.411   .     A
C398   C955    1.420   1_554 S
C399   C400    1.401   .     A
C399   H410    1.076   .     S
C400   O420    1.384   .     S
C400   C954    1.408   1_554 S
F401   C506    1.363   1_455 S
F402   C14     1.361   1_565 S
H412   O420    0.992   .     S
H413   O421    0.992   .     S
H414   O50     0.990   1_565 S
O415   Zn431   1.964   .     S
O415   Zn432   1.948   .     S
O415   Zn433   1.935   .     S
O415   Zn434   1.936   .     S
O416   Zn432   1.929   .     S
O417   Zn434   1.940   .     S
O418   Zn433   1.936   .     S
O419   Zn431   1.926   .     S
O421   C445    1.385   .     S
O423   Zn431   1.932   .     S
O424   Zn434   1.934   .     S
O425   Zn432   1.933   .     S
O426   Zn433   1.944   .     S
O427   Zn434   1.940   .     S
O428   Zn431   1.930   .     S
O429   Zn432   1.940   .     S
O430   Zn433   1.935   .     S
C435   C445    1.441   .     S
C435   O489    1.268   .     A
C435   O487    1.270   .     A
C436   C437    1.386   .     A
C436   H473    1.078   .     S
C436   C459    1.414   .     A
C437   H471    1.084   .     S
C437   C997    1.391   .     S
C438   C444    1.459   .     S
C438   O488    1.288   .     A
C438   O490    1.274   .     A
C439   C441    1.403   .     A
C439   C440    1.421   .     A
C439   C995    1.391   1_554 S
C440   C460    1.426   .     A
C440   C443    1.409   .     A
C441   C442    1.391   .     A
C441   H468    1.084   .     S
C442   C454    1.395   .     A
C442   H470    1.083   .     S
C443   C454    1.392   .     A
C443   H469    1.078   .     S
C444   C507    1.348   .     S
C444   F525    1.363   .     S
C446   F466    1.358   .     S
C446   C453    1.403   .     A
C446   C455    1.391   .     A
C447   C450    1.468   .     S
C447   C76     1.340   1_565 S
C447   O112    1.387   1_565 S
C448   C449    1.434   .     S
C449   O485    1.279   .     A
C449   O491    1.276   .     A
C450   O492    1.273   .     A
C450   O486    1.274   .     A
C451   C454    1.450   .     S
C451   O478    1.275   .     A
C451   O480    1.275   .     A
C452   O479    1.283   .     A
C452   O481    1.289   .     A
C452   C453    1.476   .     S
C453   C456    1.400   .     A
C455   F465    1.358   .     S
C455   C458    1.412   .     A
C456   F467    1.359   .     S
C456   C457    1.414   .     A
C457   C458    1.423   .     A
C457   C459    1.423   .     A
C458   C1020   1.408   .     S
C459   C1018   1.420   .     S
C460   C461    1.411   .     A
C460   C1017   1.420   1_554 S
C461   C462    1.401   .     A
C461   H472    1.076   .     S
C462   O482    1.384   .     S
C462   C1016   1.408   1_554 S
F464   C76     1.361   1_565 S
H474   O482    0.992   .     S
H475   O483    0.992   .     S
H476   O112    0.990   1_565 S
O477   Zn493   1.964   .     S
O477   Zn494   1.948   .     S
O477   Zn495   1.935   .     S
O477   Zn496   1.936   .     S
O478   Zn494   1.929   .     S
O479   Zn496   1.940   .     S
O480   Zn495   1.936   .     S
O481   Zn493   1.926   .     S
O483   C507    1.385   .     S
O485   Zn493   1.932   .     S
O486   Zn496   1.934   .     S
O487   Zn494   1.933   .     S
O488   Zn495   1.944   .     S
O489   Zn496   1.940   .     S
O490   Zn493   1.930   .     S
O491   Zn494   1.940   .     S
O492   Zn495   1.935   .     S
C497   C507    1.441   .     S
C497   O551    1.268   .     A
C497   O549    1.270   .     A
C498   C499    1.386   .     A
C498   H535    1.078   .     S
C498   C521    1.414   .     A
C499   H533    1.084   .     S
C499   C1059   1.391   .     S
C500   C506    1.459   .     S
C500   O550    1.288   .     A
C500   O552    1.274   .     A
C501   C503    1.403   .     A
C501   C502    1.421   .     A
C501   C1057   1.391   1_554 S
C502   C522    1.426   .     A
C502   C505    1.409   .     A
C503   C504    1.391   .     A
C503   H530    1.084   .     S
C504   C516    1.395   .     A
C504   H532    1.083   .     S
C505   C516    1.392   .     A
C505   H531    1.078   .     S
C506   C383    1.348   1_655 S
C506   F401    1.363   1_655 S
C508   F528    1.358   .     S
C508   C515    1.403   .     A
C508   C517    1.391   .     A
C509   C512    1.468   .     S
C509   C138    1.340   1_565 S
C509   O174    1.387   1_565 S
C510   C511    1.434   .     S
C511   O547    1.279   .     A
C511   O553    1.276   .     A
C512   O554    1.273   .     A
C512   O548    1.274   .     A
C513   C516    1.450   .     S
C513   O540    1.275   .     A
C513   O542    1.275   .     A
C514   O541    1.283   .     A
C514   O543    1.289   .     A
C514   C515    1.476   .     S
C515   C518    1.400   .     A
C517   F527    1.358   .     S
C517   C520    1.412   .     A
C518   F529    1.359   .     S
C518   C519    1.414   .     A
C519   C520    1.423   .     A
C519   C521    1.423   .     A
C520   C1082   1.408   .     S
C521   C1080   1.420   .     S
C522   C523    1.411   .     A
C522   C1079   1.420   1_554 S
C523   C524    1.401   .     A
C523   H534    1.076   .     S
C524   O544    1.384   .     S
C524   C1078   1.408   1_554 S
F526   C138    1.361   1_565 S
H536   O544    0.992   .     S
H537   O545    0.992   .     S
H538   O174    0.990   1_565 S
O539   Zn555   1.964   .     S
O539   Zn556   1.948   .     S
O539   Zn557   1.935   .     S
O539   Zn558   1.936   .     S
O540   Zn556   1.929   .     S
O541   Zn558   1.940   .     S
O542   Zn557   1.936   .     S
O543   Zn555   1.926   .     S
O545   C383    1.385   1_655 S
O547   Zn555   1.932   .     S
O548   Zn558   1.934   .     S
O549   Zn556   1.933   .     S
O550   Zn557   1.944   .     S
O551   Zn558   1.940   .     S
O552   Zn555   1.930   .     S
O553   Zn556   1.940   .     S
O554   Zn557   1.935   .     S
C559   C569    1.441   .     S
C559   O613    1.268   .     A
C559   O611    1.270   .     A
C560   C561    1.386   .     A
C560   H597    1.078   .     S
C560   C583    1.414   .     A
C561   H595    1.084   .     S
C561   C5      1.391   1_556 S
C562   C568    1.459   .     S
C562   O612    1.288   .     A
C562   O614    1.274   .     A
C563   C565    1.403   .     A
C563   C564    1.421   .     A
C564   C584    1.426   .     A
C564   C567    1.409   .     A
C565   C566    1.391   .     A
C565   H592    1.084   .     S
C566   C578    1.395   .     A
C566   H594    1.083   .     S
C567   C578    1.392   .     A
C567   H593    1.078   .     S
C568   C631    1.348   .     S
C568   F649    1.363   .     S
C569   C692    1.348   1_455 S
C569   O731    1.385   1_455 S
C570   F590    1.358   .     S
C570   C577    1.403   .     A
C570   C579    1.391   .     A
C571   C574    1.468   .     S
C571   C758    1.340   .     S
C571   O794    1.387   .     S
C572   C573    1.434   .     S
C572   C943    1.340   1_545 S
C572   F960    1.361   1_545 S
C573   O609    1.279   .     A
C573   O615    1.276   .     A
C574   O616    1.273   .     A
C574   O610    1.274   .     A
C575   C578    1.450   .     S
C575   O602    1.275   .     A
C575   O604    1.275   .     A
C576   O603    1.283   .     A
C576   O605    1.289   .     A
C576   C577    1.476   .     S
C577   C580    1.400   .     A
C579   F589    1.358   .     S
C579   C582    1.412   .     A
C580   F591    1.359   .     S
C580   C581    1.414   .     A
C581   C582    1.423   .     A
C581   C583    1.423   .     A
C582   C28     1.408   1_556 S
C583   C26     1.420   1_556 S
C584   C585    1.411   .     A
C585   C586    1.401   .     A
C585   H596    1.076   .     S
C586   O606    1.384   .     S
F587   C692    1.363   1_455 S
F588   C758    1.361   .     S
H598   O606    0.992   .     S
H599   O607    0.992   .     S
H600   O794    0.990   .     S
O601   Zn617   1.964   .     S
O601   Zn618   1.948   .     S
O601   Zn619   1.935   .     S
O601   Zn620   1.936   .     S
O602   Zn618   1.929   .     S
O603   Zn620   1.940   .     S
O604   Zn619   1.936   .     S
O605   Zn617   1.926   .     S
O607   C631    1.385   .     S
O608   C943    1.387   1_545 S
O608   H972    0.990   1_545 S
O609   Zn617   1.932   .     S
O610   Zn620   1.934   .     S
O611   Zn618   1.933   .     S
O612   Zn619   1.944   .     S
O613   Zn620   1.940   .     S
O614   Zn617   1.930   .     S
O615   Zn618   1.940   .     S
O616   Zn619   1.935   .     S
C621   C631    1.441   .     S
C621   O675    1.268   .     A
C621   O673    1.270   .     A
C622   C623    1.386   .     A
C622   H659    1.078   .     S
C622   C645    1.414   .     A
C623   H657    1.084   .     S
C623   C67     1.391   1_556 S
C624   C630    1.459   .     S
C624   O674    1.288   .     A
C624   O676    1.274   .     A
C625   C627    1.403   .     A
C625   C626    1.421   .     A
C626   C646    1.426   .     A
C626   C629    1.409   .     A
C627   C628    1.391   .     A
C627   H654    1.084   .     S
C628   C640    1.395   .     A
C628   H656    1.083   .     S
C629   C640    1.392   .     A
C629   H655    1.078   .     S
C630   C693    1.348   .     S
C630   F711    1.363   .     S
C632   F652    1.358   .     S
C632   C639    1.403   .     A
C632   C641    1.391   .     A
C633   C636    1.468   .     S
C633   C820    1.340   .     S
C633   O856    1.387   .     S
C634   C635    1.434   .     S
C634   C1005   1.340   1_545 S
C634   F1022   1.361   1_545 S
C635   O671    1.279   .     A
C635   O677    1.276   .     A
C636   O678    1.273   .     A
C636   O672    1.274   .     A
C637   C640    1.450   .     S
C637   O664    1.275   .     A
C637   O666    1.275   .     A
C638   O665    1.283   .     A
C638   O667    1.289   .     A
C638   C639    1.476   .     S
C639   C642    1.400   .     A
C641   F651    1.358   .     S
C641   C644    1.412   .     A
C642   F653    1.359   .     S
C642   C643    1.414   .     A
C643   C644    1.423   .     A
C643   C645    1.423   .     A
C644   C90     1.408   1_556 S
C645   C88     1.420   1_556 S
C646   C647    1.411   .     A
C647   C648    1.401   .     A
C647   H658    1.076   .     S
C648   O668    1.384   .     S
F650   C820    1.361   .     S
H660   O668    0.992   .     S
H661   O669    0.992   .     S
H662   O856    0.990   .     S
O663   Zn679   1.964   .     S
O663   Zn680   1.948   .     S
O663   Zn681   1.935   .     S
O663   Zn682   1.936   .     S
O664   Zn680   1.929   .     S
O665   Zn682   1.940   .     S
O666   Zn681   1.936   .     S
O667   Zn679   1.926   .     S
O669   C693    1.385   .     S
O670   C1005   1.387   1_545 S
O670   H1034   0.990   1_545 S
O671   Zn679   1.932   .     S
O672   Zn682   1.934   .     S
O673   Zn680   1.933   .     S
O674   Zn681   1.944   .     S
O675   Zn682   1.940   .     S
O676   Zn679   1.930   .     S
O677   Zn680   1.940   .     S
O678   Zn681   1.935   .     S
C683   C693    1.441   .     S
C683   O737    1.268   .     A
C683   O735    1.270   .     A
C684   C685    1.386   .     A
C684   H721    1.078   .     S
C684   C707    1.414   .     A
C685   H719    1.084   .     S
C685   C129    1.391   1_556 S
C686   C692    1.459   .     S
C686   O736    1.288   .     A
C686   O738    1.274   .     A
C687   C689    1.403   .     A
C687   C688    1.421   .     A
C688   C708    1.426   .     A
C688   C691    1.409   .     A
C689   C690    1.391   .     A
C689   H716    1.084   .     S
C690   C702    1.395   .     A
C690   H718    1.083   .     S
C691   C702    1.392   .     A
C691   H717    1.078   .     S
C692   C569    1.348   1_655 S
C692   F587    1.363   1_655 S
C694   F714    1.358   .     S
C694   C701    1.403   .     A
C694   C703    1.391   .     A
C695   C698    1.468   .     S
C695   C882    1.340   .     S
C695   O918    1.387   .     S
C696   C697    1.434   .     S
C696   C1067   1.340   1_545 S
C696   F1084   1.361   1_545 S
C697   O733    1.279   .     A
C697   O739    1.276   .     A
C698   O740    1.273   .     A
C698   O734    1.274   .     A
C699   C702    1.450   .     S
C699   O726    1.275   .     A
C699   O728    1.275   .     A
C700   O727    1.283   .     A
C700   O729    1.289   .     A
C700   C701    1.476   .     S
C701   C704    1.400   .     A
C703   F713    1.358   .     S
C703   C706    1.412   .     A
C704   F715    1.359   .     S
C704   C705    1.414   .     A
C705   C706    1.423   .     A
C705   C707    1.423   .     A
C706   C152    1.408   1_556 S
C707   C150    1.420   1_556 S
C708   C709    1.411   .     A
C709   C710    1.401   .     A
C709   H720    1.076   .     S
C710   O730    1.384   .     S
F712   C882    1.361   .     S
H722   O730    0.992   .     S
H723   O731    0.992   .     S
H724   O918    0.990   .     S
O725   Zn741   1.964   .     S
O725   Zn742   1.948   .     S
O725   Zn743   1.935   .     S
O725   Zn744   1.936   .     S
O726   Zn742   1.929   .     S
O727   Zn744   1.940   .     S
O728   Zn743   1.936   .     S
O729   Zn741   1.926   .     S
O731   C569    1.385   1_655 S
O732   C1067   1.387   1_545 S
O732   H1096   0.990   1_545 S
O733   Zn741   1.932   .     S
O734   Zn744   1.934   .     S
O735   Zn742   1.933   .     S
O736   Zn743   1.944   .     S
O737   Zn744   1.940   .     S
O738   Zn741   1.930   .     S
O739   Zn742   1.940   .     S
O740   Zn743   1.935   .     S
C745   C755    1.441   .     S
C745   O799    1.268   .     A
C745   O797    1.270   .     A
C746   C747    1.386   .     A
C746   H783    1.078   .     S
C746   C769    1.414   .     A
C747   H781    1.084   .     S
C747   C191    1.391   1_556 S
C748   C754    1.459   .     S
C748   O798    1.288   .     A
C748   O800    1.274   .     A
C749   C751    1.403   .     A
C749   C750    1.421   .     A
C750   C770    1.426   .     A
C750   C753    1.409   .     A
C751   C752    1.391   .     A
C751   H778    1.084   .     S
C752   C764    1.395   .     A
C752   H780    1.083   .     S
C753   C764    1.392   .     A
C753   H779    1.078   .     S
C754   C817    1.348   .     S
C754   F835    1.363   .     S
C755   C878    1.348   1_455 S
C755   O917    1.385   1_455 S
C756   F776    1.358   .     S
C756   C763    1.403   .     A
C756   C765    1.391   .     A
C757   C760    1.468   .     S
C757   C944    1.340   .     S
C757   O980    1.387   .     S
C758   C759    1.434   .     S
C759   O795    1.279   .     A
C759   O801    1.276   .     A
C760   O802    1.273   .     A
C760   O796    1.274   .     A
C761   C764    1.450   .     S
C761   O788    1.275   .     A
C761   O790    1.275   .     A
C762   O789    1.283   .     A
C762   O791    1.289   .     A
C762   C763    1.476   .     S
C763   C766    1.400   .     A
C765   F775    1.358   .     S
C765   C768    1.412   .     A
C766   F777    1.359   .     S
C766   C767    1.414   .     A
C767   C768    1.423   .     A
C767   C769    1.423   .     A
C768   C214    1.408   1_556 S
C769   C212    1.420   1_556 S
C770   C771    1.411   .     A
C771   C772    1.401   .     A
C771   H782    1.076   .     S
C772   O792    1.384   .     S
F773   C878    1.363   1_455 S
F774   C944    1.361   .     S
H784   O792    0.992   .     S
H785   O793    0.992   .     S
H786   O980    0.990   .     S
O787   Zn803   1.964   .     S
O787   Zn804   1.948   .     S
O787   Zn805   1.935   .     S
O787   Zn806   1.936   .     S
O788   Zn804   1.929   .     S
O789   Zn806   1.940   .     S
O790   Zn805   1.936   .     S
O791   Zn803   1.926   .     S
O793   C817    1.385   .     S
O795   Zn803   1.932   .     S
O796   Zn806   1.934   .     S
O797   Zn804   1.933   .     S
O798   Zn805   1.944   .     S
O799   Zn806   1.940   .     S
O800   Zn803   1.930   .     S
O801   Zn804   1.940   .     S
O802   Zn805   1.935   .     S
C807   C817    1.441   .     S
C807   O861    1.268   .     A
C807   O859    1.270   .     A
C808   C809    1.386   .     A
C808   H845    1.078   .     S
C808   C831    1.414   .     A
C809   H843    1.084   .     S
C809   C253    1.391   1_556 S
C810   C816    1.459   .     S
C810   O860    1.288   .     A
C810   O862    1.274   .     A
C811   C813    1.403   .     A
C811   C812    1.421   .     A
C812   C832    1.426   .     A
C812   C815    1.409   .     A
C813   C814    1.391   .     A
C813   H840    1.084   .     S
C814   C826    1.395   .     A
C814   H842    1.083   .     S
C815   C826    1.392   .     A
C815   H841    1.078   .     S
C816   C879    1.348   .     S
C816   F897    1.363   .     S
C818   F838    1.358   .     S
C818   C825    1.403   .     A
C818   C827    1.391   .     A
C819   C822    1.468   .     S
C819   C1006   1.340   .     S
C819   O1042   1.387   .     S
C820   C821    1.434   .     S
C821   O857    1.279   .     A
C821   O863    1.276   .     A
C822   O864    1.273   .     A
C822   O858    1.274   .     A
C823   C826    1.450   .     S
C823   O850    1.275   .     A
C823   O852    1.275   .     A
C824   O851    1.283   .     A
C824   O853    1.289   .     A
C824   C825    1.476   .     S
C825   C828    1.400   .     A
C827   F837    1.358   .     S
C827   C830    1.412   .     A
C828   F839    1.359   .     S
C828   C829    1.414   .     A
C829   C830    1.423   .     A
C829   C831    1.423   .     A
C830   C276    1.408   1_556 S
C831   C274    1.420   1_556 S
C832   C833    1.411   .     A
C833   C834    1.401   .     A
C833   H844    1.076   .     S
C834   O854    1.384   .     S
F836   C1006   1.361   .     S
H846   O854    0.992   .     S
H847   O855    0.992   .     S
H848   O1042   0.990   .     S
O849   Zn865   1.964   .     S
O849   Zn866   1.948   .     S
O849   Zn867   1.935   .     S
O849   Zn868   1.936   .     S
O850   Zn866   1.929   .     S
O851   Zn868   1.940   .     S
O852   Zn867   1.936   .     S
O853   Zn865   1.926   .     S
O855   C879    1.385   .     S
O857   Zn865   1.932   .     S
O858   Zn868   1.934   .     S
O859   Zn866   1.933   .     S
O860   Zn867   1.944   .     S
O861   Zn868   1.940   .     S
O862   Zn865   1.930   .     S
O863   Zn866   1.940   .     S
O864   Zn867   1.935   .     S
C869   C879    1.441   .     S
C869   O923    1.268   .     A
C869   O921    1.270   .     A
C870   C871    1.386   .     A
C870   H907    1.078   .     S
C870   C893    1.414   .     A
C871   H905    1.084   .     S
C871   C315    1.391   1_556 S
C872   C878    1.459   .     S
C872   O922    1.288   .     A
C872   O924    1.274   .     A
C873   C875    1.403   .     A
C873   C874    1.421   .     A
C874   C894    1.426   .     A
C874   C877    1.409   .     A
C875   C876    1.391   .     A
C875   H902    1.084   .     S
C876   C888    1.395   .     A
C876   H904    1.083   .     S
C877   C888    1.392   .     A
C877   H903    1.078   .     S
C878   C755    1.348   1_655 S
C878   F773    1.363   1_655 S
C880   F900    1.358   .     S
C880   C887    1.403   .     A
C880   C889    1.391   .     A
C881   C884    1.468   .     S
C881   C1068   1.340   .     S
C881   O1104   1.387   .     S
C882   C883    1.434   .     S
C883   O919    1.279   .     A
C883   O925    1.276   .     A
C884   O926    1.273   .     A
C884   O920    1.274   .     A
C885   C888    1.450   .     S
C885   O912    1.275   .     A
C885   O914    1.275   .     A
C886   O913    1.283   .     A
C886   O915    1.289   .     A
C886   C887    1.476   .     S
C887   C890    1.400   .     A
C889   F899    1.358   .     S
C889   C892    1.412   .     A
C890   F901    1.359   .     S
C890   C891    1.414   .     A
C891   C892    1.423   .     A
C891   C893    1.423   .     A
C892   C338    1.408   1_556 S
C893   C336    1.420   1_556 S
C894   C895    1.411   .     A
C895   C896    1.401   .     A
C895   H906    1.076   .     S
C896   O916    1.384   .     S
F898   C1068   1.361   .     S
H908   O916    0.992   .     S
H909   O917    0.992   .     S
H910   O1104   0.990   .     S
O911   Zn927   1.964   .     S
O911   Zn928   1.948   .     S
O911   Zn929   1.935   .     S
O911   Zn930   1.936   .     S
O912   Zn928   1.929   .     S
O913   Zn930   1.940   .     S
O914   Zn929   1.936   .     S
O915   Zn927   1.926   .     S
O917   C755    1.385   1_655 S
O919   Zn927   1.932   .     S
O920   Zn930   1.934   .     S
O921   Zn928   1.933   .     S
O922   Zn929   1.944   .     S
O923   Zn930   1.940   .     S
O924   Zn927   1.930   .     S
O925   Zn928   1.940   .     S
O926   Zn929   1.935   .     S
C931   C941    1.441   .     S
C931   O985    1.268   .     A
C931   O983    1.270   .     A
C932   C933    1.386   .     A
C932   H969    1.078   .     S
C932   C955    1.414   .     A
C933   H967    1.084   .     S
C933   C377    1.391   1_556 S
C934   C940    1.459   .     S
C934   O984    1.288   .     A
C934   O986    1.274   .     A
C935   C937    1.403   .     A
C935   C936    1.421   .     A
C936   C956    1.426   .     A
C936   C939    1.409   .     A
C937   C938    1.391   .     A
C937   H964    1.084   .     S
C938   C950    1.395   .     A
C938   H966    1.083   .     S
C939   C950    1.392   .     A
C939   H965    1.078   .     S
C940   C1003   1.348   .     S
C940   F1021   1.363   .     S
C941   C1064   1.348   1_455 S
C941   O1103   1.385   1_455 S
C942   F962    1.358   .     S
C942   C949    1.403   .     A
C942   C951    1.391   .     A
C943   C946    1.468   .     S
C943   C572    1.340   1_565 S
C943   O608    1.387   1_565 S
C944   C945    1.434   .     S
C945   O981    1.279   .     A
C945   O987    1.276   .     A
C946   O988    1.273   .     A
C946   O982    1.274   .     A
C947   C950    1.450   .     S
C947   O974    1.275   .     A
C947   O976    1.275   .     A
C948   O975    1.283   .     A
C948   O977    1.289   .     A
C948   C949    1.476   .     S
C949   C952    1.400   .     A
C951   F961    1.358   .     S
C951   C954    1.412   .     A
C952   F963    1.359   .     S
C952   C953    1.414   .     A
C953   C954    1.423   .     A
C953   C955    1.423   .     A
C954   C400    1.408   1_556 S
C955   C398    1.420   1_556 S
C956   C957    1.411   .     A
C957   C958    1.401   .     A
C957   H968    1.076   .     S
C958   O978    1.384   .     S
F959   C1064   1.363   1_455 S
F960   C572    1.361   1_565 S
H970   O978    0.992   .     S
H971   O979    0.992   .     S
H972   O608    0.990   1_565 S
O973   Zn989   1.964   .     S
O973   Zn990   1.948   .     S
O973   Zn991   1.935   .     S
O973   Zn992   1.936   .     S
O974   Zn990   1.929   .     S
O975   Zn992   1.940   .     S
O976   Zn991   1.936   .     S
O977   Zn989   1.926   .     S
O979   C1003   1.385   .     S
O981   Zn989   1.932   .     S
O982   Zn992   1.934   .     S
O983   Zn990   1.933   .     S
O984   Zn991   1.944   .     S
O985   Zn992   1.940   .     S
O986   Zn989   1.930   .     S
O987   Zn990   1.940   .     S
O988   Zn991   1.935   .     S
C993   C1003   1.441   .     S
C993   O1047   1.268   .     A
C993   O1045   1.270   .     A
C994   C995    1.386   .     A
C994   H1031   1.078   .     S
C994   C1017   1.414   .     A
C995   H1029   1.084   .     S
C995   C439    1.391   1_556 S
C996   C1002   1.459   .     S
C996   O1046   1.288   .     A
C996   O1048   1.274   .     A
C997   C999    1.403   .     A
C997   C998    1.421   .     A
C998   C1018   1.426   .     A
C998   C1001   1.409   .     A
C999   C1000   1.391   .     A
C999   H1026   1.084   .     S
C1000  C1012   1.395   .     A
C1000  H1028   1.083   .     S
C1001  C1012   1.392   .     A
C1001  H1027   1.078   .     S
C1002  C1065   1.348   .     S
C1002  F1083   1.363   .     S
C1004  F1024   1.358   .     S
C1004  C1011   1.403   .     A
C1004  C1013   1.391   .     A
C1005  C1008   1.468   .     S
C1005  C634    1.340   1_565 S
C1005  O670    1.387   1_565 S
C1006  C1007   1.434   .     S
C1007  O1043   1.279   .     A
C1007  O1049   1.276   .     A
C1008  O1050   1.273   .     A
C1008  O1044   1.274   .     A
C1009  C1012   1.450   .     S
C1009  O1036   1.275   .     A
C1009  O1038   1.275   .     A
C1010  O1037   1.283   .     A
C1010  O1039   1.289   .     A
C1010  C1011   1.476   .     S
C1011  C1014   1.400   .     A
C1013  F1023   1.358   .     S
C1013  C1016   1.412   .     A
C1014  F1025   1.359   .     S
C1014  C1015   1.414   .     A
C1015  C1016   1.423   .     A
C1015  C1017   1.423   .     A
C1016  C462    1.408   1_556 S
C1017  C460    1.420   1_556 S
C1018  C1019   1.411   .     A
C1019  C1020   1.401   .     A
C1019  H1030   1.076   .     S
C1020  O1040   1.384   .     S
F1022  C634    1.361   1_565 S
H1032  O1040   0.992   .     S
H1033  O1041   0.992   .     S
H1034  O670    0.990   1_565 S
O1035  Zn1051  1.964   .     S
O1035  Zn1052  1.948   .     S
O1035  Zn1053  1.935   .     S
O1035  Zn1054  1.936   .     S
O1036  Zn1052  1.929   .     S
O1037  Zn1054  1.940   .     S
O1038  Zn1053  1.936   .     S
O1039  Zn1051  1.926   .     S
O1041  C1065   1.385   .     S
O1043  Zn1051  1.932   .     S
O1044  Zn1054  1.934   .     S
O1045  Zn1052  1.933   .     S
O1046  Zn1053  1.944   .     S
O1047  Zn1054  1.940   .     S
O1048  Zn1051  1.930   .     S
O1049  Zn1052  1.940   .     S
O1050  Zn1053  1.935   .     S
C1055  C1065   1.441   .     S
C1055  O1109   1.268   .     A
C1055  O1107   1.270   .     A
C1056  C1057   1.386   .     A
C1056  H1093   1.078   .     S
C1056  C1079   1.414   .     A
C1057  H1091   1.084   .     S
C1057  C501    1.391   1_556 S
C1058  C1064   1.459   .     S
C1058  O1108   1.288   .     A
C1058  O1110   1.274   .     A
C1059  C1061   1.403   .     A
C1059  C1060   1.421   .     A
C1060  C1080   1.426   .     A
C1060  C1063   1.409   .     A
C1061  C1062   1.391   .     A
C1061  H1088   1.084   .     S
C1062  C1074   1.395   .     A
C1062  H1090   1.083   .     S
C1063  C1074   1.392   .     A
C1063  H1089   1.078   .     S
C1064  C941    1.348   1_655 S
C1064  F959    1.363   1_655 S
C1066  F1086   1.358   .     S
C1066  C1073   1.403   .     A
C1066  C1075   1.391   .     A
C1067  C1070   1.468   .     S
C1067  C696    1.340   1_565 S
C1067  O732    1.387   1_565 S
C1068  C1069   1.434   .     S
C1069  O1105   1.279   .     A
C1069  O1111   1.276   .     A
C1070  O1112   1.273   .     A
C1070  O1106   1.274   .     A
C1071  C1074   1.450   .     S
C1071  O1098   1.275   .     A
C1071  O1100   1.275   .     A
C1072  O1099   1.283   .     A
C1072  O1101   1.289   .     A
C1072  C1073   1.476   .     S
C1073  C1076   1.400   .     A
C1075  F1085   1.358   .     S
C1075  C1078   1.412   .     A
C1076  F1087   1.359   .     S
C1076  C1077   1.414   .     A
C1077  C1078   1.423   .     A
C1077  C1079   1.423   .     A
C1078  C524    1.408   1_556 S
C1079  C522    1.420   1_556 S
C1080  C1081   1.411   .     A
C1081  C1082   1.401   .     A
C1081  H1092   1.076   .     S
C1082  O1102   1.384   .     S
F1084  C696    1.361   1_565 S
H1094  O1102   0.992   .     S
H1095  O1103   0.992   .     S
H1096  O732    0.990   1_565 S
O1097  Zn1113  1.964   .     S
O1097  Zn1114  1.948   .     S
O1097  Zn1115  1.935   .     S
O1097  Zn1116  1.936   .     S
O1098  Zn1114  1.929   .     S
O1099  Zn1116  1.940   .     S
O1100  Zn1115  1.936   .     S
O1101  Zn1113  1.926   .     S
O1103  C941    1.385   1_655 S
O1105  Zn1113  1.932   .     S
O1106  Zn1116  1.934   .     S
O1107  Zn1114  1.933   .     S
O1108  Zn1115  1.944   .     S
O1109  Zn1116  1.940   .     S
O1110  Zn1113  1.930   .     S
O1111  Zn1114  1.940   .     S
O1112  Zn1115  1.935   .     S
