data_str_m2_o1_o17_pcu_sym.19
_audit_creation_date              2020-01-03
_audit_creation_method            'Materials Studio'
_symmetry_space_group_name_H-M    'P1'
_symmetry_Int_Tables_number       1
_symmetry_cell_setting            triclinic
loop_
_symmetry_equiv_pos_as_xyz
  x,y,z
_cell_length_a                    32.9360
_cell_length_b                    28.9078
_cell_length_c                    30.0456
_cell_angle_alpha                 89.2819
_cell_angle_beta                  94.4641
_cell_angle_gamma                 88.2682
loop_
_atom_site_label
_atom_site_type_symbol
_atom_site_fract_x
_atom_site_fract_y
_atom_site_fract_z
_atom_site_U_iso_or_equiv
_atom_site_adp_type
_atom_site_occupancy
O1     O     0.10655   0.20625   0.25000   0.00000  Uiso   1.00
O2     O     0.22679   0.12709   0.25001   0.00000  Uiso   1.00
O3     O     0.22679   0.20625   0.25001   0.00000  Uiso   1.00
O4     O     0.10655   0.12709   0.25000   0.00000  Uiso   1.00
C5     C     0.08752   0.16743   0.25076   0.00000  Uiso   1.00
C6     C     0.24581   0.16591   0.24924   0.00000  Uiso   1.00
O7     O     0.16666   0.20627   0.18513   0.00000  Uiso   1.00
O8     O     0.16668   0.12707   0.31487   0.00000  Uiso   1.00
O9     O     0.16668   0.20627   0.31487   0.00000  Uiso   1.00
O10    O     0.16666   0.12707   0.18513   0.00000  Uiso   1.00
C11    C     0.16577   0.16694   0.16455   0.00000  Uiso   1.00
C12    C     0.16756   0.16639   0.33545   0.00000  Uiso   1.00
Cu13   Cu    0.16667   0.21355   0.25000   0.00000  Uiso   1.00
Cu14   Cu    0.16667   0.11978   0.25000   0.00000  Uiso   1.00
C15    C     0.20480   0.17524   0.41012   0.00000  Uiso   1.00
C16    C     0.12854   0.15809   0.08988   0.00000  Uiso   1.00
C17    C     0.16873   0.16575   0.38380   0.00000  Uiso   1.00
C18    C     0.16461   0.16758   0.11621   0.00000  Uiso   1.00
C19    C     0.13257   0.15741   0.40333   0.00000  Uiso   1.00
C20    C     0.20077   0.17591   0.09667   0.00000  Uiso   1.00
C21    C     0.13142   0.15829   0.44947   0.00000  Uiso   1.00
C22    C     0.20193   0.17502   0.05053   0.00000  Uiso   1.00
C23    C     0.16728   0.16663   0.47661   0.00000  Uiso   1.00
C24    C     0.16607   0.16668   0.02339   0.00000  Uiso   1.00
C25    C     0.20428   0.17483   0.45707   0.00000  Uiso   1.00
C26    C     0.12906   0.15848   0.04293   0.00000  Uiso   1.00
C27    C     0.09476   0.15132   0.46878   0.00000  Uiso   1.00
C28    C     0.23858   0.18198   0.03122   0.00000  Uiso   1.00
C29    C     0.09346   0.15183   0.01494   0.00000  Uiso   1.00
C30    C     0.23989   0.18146   0.48506   0.00000  Uiso   1.00
H31    H     0.10503   0.15118   0.38234   0.00000  Uiso   1.00
H32    H     0.22831   0.18214   0.11766   0.00000  Uiso   1.00
H33    H     0.06693   0.14569   0.44810   0.00000  Uiso   1.00
H34    H     0.26642   0.18760   0.05191   0.00000  Uiso   1.00
H35    H     0.06422   0.14744   0.02823   0.00000  Uiso   1.00
H36    H     0.26914   0.18583   0.47177   0.00000  Uiso   1.00
C37    C     0.02434   0.13102   0.27255   0.00000  Uiso   1.00
C38    C     0.30900   0.20232   0.22746   0.00000  Uiso   1.00
C39    C     0.31503   0.12823   0.26880   0.00000  Uiso   1.00
C40    C     0.01830   0.20511   0.23123   0.00000  Uiso   1.00
C41    C     0.29053   0.16454   0.24737   0.00000  Uiso   1.00
C42    C     0.04281   0.16879   0.25264   0.00000  Uiso   1.00
C43    C     0.14028   0.02595   0.22112   0.00000  Uiso   1.00
C44    C     0.19306   0.30739   0.27887   0.00000  Uiso   1.00
C45    C     0.19097   0.02347   0.28089   0.00000  Uiso   1.00
C46    C     0.14236   0.30987   0.21911   0.00000  Uiso   1.00
N47    N     0.16667   0.28402   0.25000   0.00000  Uiso   1.00
N48    N     0.16667   0.04931   0.25000   0.00000  Uiso   1.00
N49    N     0.24136   0.18559   0.38922   0.00000  Uiso   1.00
O50    O     0.25456   0.15847   0.35892   0.00000  Uiso   1.00
O51    O     0.26002   0.22381   0.39822   0.00000  Uiso   1.00
N52    N     0.09198   0.14775   0.11078   0.00000  Uiso   1.00
O53    O     0.07871   0.17496   0.14096   0.00000  Uiso   1.00
O54    O     0.07335   0.10950   0.10184   0.00000  Uiso   1.00
C55    C     0.04987   0.09505   0.29880   0.00000  Uiso   1.00
H56    H     0.07454   0.10545   0.32220   0.00000  Uiso   1.00
O57    O     0.04479   0.05382   0.29297   0.00000  Uiso   1.00
C58    C     0.28347   0.23829   0.20121   0.00000  Uiso   1.00
H59    H     0.25882   0.22790   0.17779   0.00000  Uiso   1.00
O60    O     0.28852   0.27952   0.20708   0.00000  Uiso   1.00
C61    C     0.29672   0.08720   0.28814   0.00000  Uiso   1.00
H62    H     0.27829   0.06475   0.26675   0.00000  Uiso   1.00
O63    O     0.30302   0.07765   0.32785   0.00000  Uiso   1.00
C64    C     0.03662   0.24617   0.21195   0.00000  Uiso   1.00
H65    H     0.05506   0.26858   0.23337   0.00000  Uiso   1.00
O66    O     0.03031   0.25579   0.17226   0.00000  Uiso   1.00
C67    C     0.10601   0.05122   0.19550   0.00000  Uiso   1.00
H68    H     0.10982   0.08397   0.17956   0.00000  Uiso   1.00
O69    O     0.07191   0.03550   0.19280   0.00000  Uiso   1.00
C70    C     0.22734   0.28212   0.30449   0.00000  Uiso   1.00
H71    H     0.22356   0.24929   0.32033   0.00000  Uiso   1.00
O72    O     0.26142   0.29792   0.30730   0.00000  Uiso   1.00
C73    C     0.21187   0.04643   0.31962   0.00000  Uiso   1.00
H74    H     0.22460   0.07983   0.31616   0.00000  Uiso   1.00
O75    O     0.21400   0.02848   0.35678   0.00000  Uiso   1.00
C76    C     0.12144   0.28690   0.18040   0.00000  Uiso   1.00
H77    H     0.10873   0.25349   0.18386   0.00000  Uiso   1.00
O78    O     0.11927   0.30486   0.14323   0.00000  Uiso   1.00
O79    O     0.43988   0.20625   0.25000   0.00000  Uiso   1.00
O80    O     0.56012   0.12709   0.25001   0.00000  Uiso   1.00
O81    O     0.56012   0.20625   0.25001   0.00000  Uiso   1.00
O82    O     0.43988   0.12709   0.25000   0.00000  Uiso   1.00
C83    C     0.42085   0.16743   0.25076   0.00000  Uiso   1.00
C84    C     0.57915   0.16591   0.24924   0.00000  Uiso   1.00
O85    O     0.49999   0.20627   0.18513   0.00000  Uiso   1.00
O86    O     0.50001   0.12707   0.31487   0.00000  Uiso   1.00
O87    O     0.50001   0.20627   0.31487   0.00000  Uiso   1.00
O88    O     0.49999   0.12707   0.18513   0.00000  Uiso   1.00
C89    C     0.49911   0.16694   0.16455   0.00000  Uiso   1.00
C90    C     0.50089   0.16639   0.33545   0.00000  Uiso   1.00
Cu91   Cu    0.50000   0.21355   0.25000   0.00000  Uiso   1.00
Cu92   Cu    0.50000   0.11978   0.25000   0.00000  Uiso   1.00
C93    C     0.53813   0.17524   0.41012   0.00000  Uiso   1.00
C94    C     0.46188   0.15809   0.08988   0.00000  Uiso   1.00
C95    C     0.50206   0.16575   0.38380   0.00000  Uiso   1.00
C96    C     0.49794   0.16758   0.11621   0.00000  Uiso   1.00
C97    C     0.46590   0.15741   0.40333   0.00000  Uiso   1.00
C98    C     0.53411   0.17591   0.09667   0.00000  Uiso   1.00
C99    C     0.46475   0.15829   0.44947   0.00000  Uiso   1.00
C100   C     0.53526   0.17502   0.05053   0.00000  Uiso   1.00
C101   C     0.50061   0.16663   0.47661   0.00000  Uiso   1.00
C102   C     0.49940   0.16668   0.02339   0.00000  Uiso   1.00
C103   C     0.53762   0.17483   0.45707   0.00000  Uiso   1.00
C104   C     0.46239   0.15848   0.04293   0.00000  Uiso   1.00
C105   C     0.42810   0.15132   0.46878   0.00000  Uiso   1.00
C106   C     0.57192   0.18198   0.03122   0.00000  Uiso   1.00
C107   C     0.42679   0.15183   0.01494   0.00000  Uiso   1.00
C108   C     0.57323   0.18146   0.48506   0.00000  Uiso   1.00
H109   H     0.43836   0.15118   0.38234   0.00000  Uiso   1.00
H110   H     0.56165   0.18214   0.11766   0.00000  Uiso   1.00
H111   H     0.40026   0.14569   0.44810   0.00000  Uiso   1.00
H112   H     0.59976   0.18760   0.05191   0.00000  Uiso   1.00
H113   H     0.39755   0.14744   0.02823   0.00000  Uiso   1.00
H114   H     0.60247   0.18583   0.47177   0.00000  Uiso   1.00
C115   C     0.35767   0.13102   0.27255   0.00000  Uiso   1.00
C116   C     0.64233   0.20232   0.22746   0.00000  Uiso   1.00
C117   C     0.64836   0.12823   0.26880   0.00000  Uiso   1.00
C118   C     0.35164   0.20511   0.23123   0.00000  Uiso   1.00
C119   C     0.62386   0.16454   0.24737   0.00000  Uiso   1.00
C120   C     0.37614   0.16879   0.25264   0.00000  Uiso   1.00
C121   C     0.47361   0.02595   0.22112   0.00000  Uiso   1.00
C122   C     0.52639   0.30739   0.27887   0.00000  Uiso   1.00
C123   C     0.52431   0.02347   0.28089   0.00000  Uiso   1.00
C124   C     0.47569   0.30987   0.21911   0.00000  Uiso   1.00
N125   N     0.50000   0.28402   0.25000   0.00000  Uiso   1.00
N126   N     0.50000   0.04931   0.25000   0.00000  Uiso   1.00
N127   N     0.57470   0.18559   0.38922   0.00000  Uiso   1.00
O128   O     0.58789   0.15847   0.35892   0.00000  Uiso   1.00
O129   O     0.59335   0.22381   0.39822   0.00000  Uiso   1.00
N130   N     0.42531   0.14775   0.11078   0.00000  Uiso   1.00
O131   O     0.41204   0.17496   0.14096   0.00000  Uiso   1.00
O132   O     0.40669   0.10950   0.10184   0.00000  Uiso   1.00
C133   C     0.38320   0.09505   0.29880   0.00000  Uiso   1.00
H134   H     0.40787   0.10545   0.32220   0.00000  Uiso   1.00
O135   O     0.37812   0.05382   0.29297   0.00000  Uiso   1.00
C136   C     0.61680   0.23829   0.20121   0.00000  Uiso   1.00
H137   H     0.59215   0.22790   0.17779   0.00000  Uiso   1.00
O138   O     0.62185   0.27952   0.20708   0.00000  Uiso   1.00
C139   C     0.63005   0.08720   0.28814   0.00000  Uiso   1.00
H140   H     0.61162   0.06475   0.26675   0.00000  Uiso   1.00
O141   O     0.63635   0.07765   0.32785   0.00000  Uiso   1.00
C142   C     0.36995   0.24617   0.21195   0.00000  Uiso   1.00
H143   H     0.38839   0.26858   0.23337   0.00000  Uiso   1.00
O144   O     0.36364   0.25579   0.17226   0.00000  Uiso   1.00
C145   C     0.43934   0.05122   0.19550   0.00000  Uiso   1.00
H146   H     0.44315   0.08397   0.17956   0.00000  Uiso   1.00
O147   O     0.40524   0.03550   0.19280   0.00000  Uiso   1.00
C148   C     0.56067   0.28212   0.30449   0.00000  Uiso   1.00
H149   H     0.55690   0.24929   0.32033   0.00000  Uiso   1.00
O150   O     0.59475   0.29792   0.30730   0.00000  Uiso   1.00
C151   C     0.54521   0.04643   0.31962   0.00000  Uiso   1.00
H152   H     0.55793   0.07983   0.31616   0.00000  Uiso   1.00
O153   O     0.54733   0.02848   0.35678   0.00000  Uiso   1.00
C154   C     0.45477   0.28690   0.18040   0.00000  Uiso   1.00
H155   H     0.44206   0.25349   0.18386   0.00000  Uiso   1.00
O156   O     0.45260   0.30486   0.14323   0.00000  Uiso   1.00
O157   O     0.77321   0.20625   0.25000   0.00000  Uiso   1.00
O158   O     0.89345   0.12709   0.25001   0.00000  Uiso   1.00
O159   O     0.89345   0.20625   0.25001   0.00000  Uiso   1.00
O160   O     0.77321   0.12709   0.25000   0.00000  Uiso   1.00
C161   C     0.75419   0.16743   0.25076   0.00000  Uiso   1.00
C162   C     0.91248   0.16591   0.24924   0.00000  Uiso   1.00
O163   O     0.83332   0.20627   0.18513   0.00000  Uiso   1.00
O164   O     0.83334   0.12707   0.31487   0.00000  Uiso   1.00
O165   O     0.83334   0.20627   0.31487   0.00000  Uiso   1.00
O166   O     0.83332   0.12707   0.18513   0.00000  Uiso   1.00
C167   C     0.83244   0.16694   0.16455   0.00000  Uiso   1.00
C168   C     0.83423   0.16639   0.33545   0.00000  Uiso   1.00
Cu169  Cu    0.83333   0.21355   0.25000   0.00000  Uiso   1.00
Cu170  Cu    0.83333   0.11978   0.25000   0.00000  Uiso   1.00
C171   C     0.87147   0.17524   0.41012   0.00000  Uiso   1.00
C172   C     0.79521   0.15809   0.08988   0.00000  Uiso   1.00
C173   C     0.83540   0.16575   0.38380   0.00000  Uiso   1.00
C174   C     0.83127   0.16758   0.11621   0.00000  Uiso   1.00
C175   C     0.79924   0.15741   0.40333   0.00000  Uiso   1.00
C176   C     0.86744   0.17591   0.09667   0.00000  Uiso   1.00
C177   C     0.79809   0.15829   0.44947   0.00000  Uiso   1.00
C178   C     0.86859   0.17502   0.05053   0.00000  Uiso   1.00
C179   C     0.83394   0.16663   0.47661   0.00000  Uiso   1.00
C180   C     0.83274   0.16668   0.02339   0.00000  Uiso   1.00
C181   C     0.87095   0.17483   0.45707   0.00000  Uiso   1.00
C182   C     0.79573   0.15848   0.04293   0.00000  Uiso   1.00
C183   C     0.76143   0.15132   0.46878   0.00000  Uiso   1.00
C184   C     0.90525   0.18198   0.03122   0.00000  Uiso   1.00
C185   C     0.76012   0.15183   0.01494   0.00000  Uiso   1.00
C186   C     0.90656   0.18146   0.48506   0.00000  Uiso   1.00
H187   H     0.77170   0.15118   0.38234   0.00000  Uiso   1.00
H188   H     0.89498   0.18214   0.11766   0.00000  Uiso   1.00
H189   H     0.73360   0.14569   0.44810   0.00000  Uiso   1.00
H190   H     0.93309   0.18760   0.05191   0.00000  Uiso   1.00
H191   H     0.73088   0.14744   0.02823   0.00000  Uiso   1.00
H192   H     0.93580   0.18583   0.47177   0.00000  Uiso   1.00
C193   C     0.69100   0.13102   0.27255   0.00000  Uiso   1.00
C194   C     0.97567   0.20232   0.22746   0.00000  Uiso   1.00
C195   C     0.98170   0.12823   0.26880   0.00000  Uiso   1.00
C196   C     0.68497   0.20511   0.23123   0.00000  Uiso   1.00
C197   C     0.95719   0.16454   0.24737   0.00000  Uiso   1.00
C198   C     0.70947   0.16879   0.25264   0.00000  Uiso   1.00
C199   C     0.80694   0.02595   0.22112   0.00000  Uiso   1.00
C200   C     0.85973   0.30739   0.27887   0.00000  Uiso   1.00
C201   C     0.85764   0.02347   0.28089   0.00000  Uiso   1.00
C202   C     0.80902   0.30987   0.21911   0.00000  Uiso   1.00
N203   N     0.83333   0.28402   0.25000   0.00000  Uiso   1.00
N204   N     0.83333   0.04931   0.25000   0.00000  Uiso   1.00
N205   N     0.90803   0.18559   0.38922   0.00000  Uiso   1.00
O206   O     0.92123   0.15847   0.35892   0.00000  Uiso   1.00
O207   O     0.92669   0.22381   0.39822   0.00000  Uiso   1.00
N208   N     0.75864   0.14775   0.11078   0.00000  Uiso   1.00
O209   O     0.74538   0.17496   0.14096   0.00000  Uiso   1.00
O210   O     0.74002   0.10950   0.10184   0.00000  Uiso   1.00
C211   C     0.71653   0.09505   0.29880   0.00000  Uiso   1.00
H212   H     0.74120   0.10545   0.32220   0.00000  Uiso   1.00
O213   O     0.71145   0.05382   0.29297   0.00000  Uiso   1.00
C214   C     0.95014   0.23829   0.20121   0.00000  Uiso   1.00
H215   H     0.92549   0.22790   0.17779   0.00000  Uiso   1.00
O216   O     0.95519   0.27952   0.20708   0.00000  Uiso   1.00
C217   C     0.96338   0.08720   0.28814   0.00000  Uiso   1.00
H218   H     0.94496   0.06475   0.26675   0.00000  Uiso   1.00
O219   O     0.96968   0.07765   0.32785   0.00000  Uiso   1.00
C220   C     0.70328   0.24617   0.21195   0.00000  Uiso   1.00
H221   H     0.72172   0.26858   0.23337   0.00000  Uiso   1.00
O222   O     0.69697   0.25579   0.17226   0.00000  Uiso   1.00
C223   C     0.77268   0.05122   0.19550   0.00000  Uiso   1.00
H224   H     0.77649   0.08397   0.17956   0.00000  Uiso   1.00
O225   O     0.73857   0.03550   0.19280   0.00000  Uiso   1.00
C226   C     0.89401   0.28212   0.30449   0.00000  Uiso   1.00
H227   H     0.89023   0.24929   0.32033   0.00000  Uiso   1.00
O228   O     0.92809   0.29792   0.30730   0.00000  Uiso   1.00
C229   C     0.87854   0.04643   0.31962   0.00000  Uiso   1.00
H230   H     0.89126   0.07983   0.31616   0.00000  Uiso   1.00
O231   O     0.88066   0.02848   0.35678   0.00000  Uiso   1.00
C232   C     0.78810   0.28690   0.18040   0.00000  Uiso   1.00
H233   H     0.77539   0.25349   0.18386   0.00000  Uiso   1.00
O234   O     0.78594   0.30486   0.14323   0.00000  Uiso   1.00
O235   O     0.10655   0.53958   0.25000   0.00000  Uiso   1.00
O236   O     0.22679   0.46042   0.25001   0.00000  Uiso   1.00
O237   O     0.22679   0.53958   0.25001   0.00000  Uiso   1.00
O238   O     0.10655   0.46042   0.25000   0.00000  Uiso   1.00
C239   C     0.08752   0.50076   0.25076   0.00000  Uiso   1.00
C240   C     0.24581   0.49924   0.24924   0.00000  Uiso   1.00
O241   O     0.16666   0.53960   0.18513   0.00000  Uiso   1.00
O242   O     0.16668   0.46040   0.31487   0.00000  Uiso   1.00
O243   O     0.16668   0.53960   0.31487   0.00000  Uiso   1.00
O244   O     0.16666   0.46040   0.18513   0.00000  Uiso   1.00
C245   C     0.16577   0.50027   0.16455   0.00000  Uiso   1.00
C246   C     0.16756   0.49973   0.33545   0.00000  Uiso   1.00
Cu247  Cu    0.16667   0.54689   0.25000   0.00000  Uiso   1.00
Cu248  Cu    0.16667   0.45311   0.25000   0.00000  Uiso   1.00
C249   C     0.20480   0.50858   0.41012   0.00000  Uiso   1.00
C250   C     0.12854   0.49142   0.08988   0.00000  Uiso   1.00
C251   C     0.16873   0.49908   0.38380   0.00000  Uiso   1.00
C252   C     0.16461   0.50092   0.11621   0.00000  Uiso   1.00
C253   C     0.13257   0.49074   0.40333   0.00000  Uiso   1.00
C254   C     0.20077   0.50925   0.09667   0.00000  Uiso   1.00
C255   C     0.13142   0.49163   0.44947   0.00000  Uiso   1.00
C256   C     0.20193   0.50835   0.05053   0.00000  Uiso   1.00
C257   C     0.16728   0.49997   0.47661   0.00000  Uiso   1.00
C258   C     0.16607   0.50002   0.02339   0.00000  Uiso   1.00
C259   C     0.20428   0.50817   0.45707   0.00000  Uiso   1.00
C260   C     0.12906   0.49182   0.04293   0.00000  Uiso   1.00
C261   C     0.09476   0.48465   0.46878   0.00000  Uiso   1.00
C262   C     0.23858   0.51531   0.03122   0.00000  Uiso   1.00
C263   C     0.09346   0.48517   0.01494   0.00000  Uiso   1.00
C264   C     0.23989   0.51480   0.48506   0.00000  Uiso   1.00
H265   H     0.10503   0.48451   0.38234   0.00000  Uiso   1.00
H266   H     0.22831   0.51547   0.11766   0.00000  Uiso   1.00
H267   H     0.06693   0.47902   0.44810   0.00000  Uiso   1.00
H268   H     0.26642   0.52093   0.05191   0.00000  Uiso   1.00
H269   H     0.06422   0.48077   0.02823   0.00000  Uiso   1.00
H270   H     0.26914   0.51917   0.47177   0.00000  Uiso   1.00
C271   C     0.02434   0.46435   0.27255   0.00000  Uiso   1.00
C272   C     0.30900   0.53565   0.22746   0.00000  Uiso   1.00
C273   C     0.31503   0.46157   0.26880   0.00000  Uiso   1.00
C274   C     0.01830   0.53844   0.23123   0.00000  Uiso   1.00
C275   C     0.29053   0.49788   0.24737   0.00000  Uiso   1.00
C276   C     0.04281   0.50213   0.25264   0.00000  Uiso   1.00
C277   C     0.14028   0.35928   0.22112   0.00000  Uiso   1.00
C278   C     0.19306   0.64072   0.27887   0.00000  Uiso   1.00
C279   C     0.19097   0.35680   0.28089   0.00000  Uiso   1.00
C280   C     0.14236   0.64320   0.21911   0.00000  Uiso   1.00
N281   N     0.16667   0.61736   0.25000   0.00000  Uiso   1.00
N282   N     0.16667   0.38264   0.25000   0.00000  Uiso   1.00
N283   N     0.24136   0.51892   0.38922   0.00000  Uiso   1.00
O284   O     0.25456   0.49180   0.35892   0.00000  Uiso   1.00
O285   O     0.26002   0.55714   0.39822   0.00000  Uiso   1.00
N286   N     0.09198   0.48109   0.11078   0.00000  Uiso   1.00
O287   O     0.07871   0.50829   0.14096   0.00000  Uiso   1.00
O288   O     0.07335   0.44283   0.10184   0.00000  Uiso   1.00
C289   C     0.04987   0.42838   0.29880   0.00000  Uiso   1.00
H290   H     0.07454   0.43878   0.32220   0.00000  Uiso   1.00
O291   O     0.04479   0.38715   0.29297   0.00000  Uiso   1.00
C292   C     0.28347   0.57163   0.20121   0.00000  Uiso   1.00
H293   H     0.25882   0.56123   0.17779   0.00000  Uiso   1.00
O294   O     0.28852   0.61285   0.20708   0.00000  Uiso   1.00
C295   C     0.29672   0.42054   0.28814   0.00000  Uiso   1.00
H296   H     0.27829   0.39808   0.26675   0.00000  Uiso   1.00
O297   O     0.30302   0.41099   0.32785   0.00000  Uiso   1.00
C298   C     0.03662   0.57950   0.21195   0.00000  Uiso   1.00
H299   H     0.05506   0.60191   0.23337   0.00000  Uiso   1.00
O300   O     0.03031   0.58912   0.17226   0.00000  Uiso   1.00
C301   C     0.10601   0.38455   0.19550   0.00000  Uiso   1.00
H302   H     0.10982   0.41730   0.17956   0.00000  Uiso   1.00
O303   O     0.07191   0.36883   0.19280   0.00000  Uiso   1.00
C304   C     0.22734   0.61545   0.30449   0.00000  Uiso   1.00
H305   H     0.22356   0.58262   0.32033   0.00000  Uiso   1.00
O306   O     0.26142   0.63126   0.30730   0.00000  Uiso   1.00
C307   C     0.21187   0.37976   0.31962   0.00000  Uiso   1.00
H308   H     0.22460   0.41317   0.31616   0.00000  Uiso   1.00
O309   O     0.21400   0.36181   0.35678   0.00000  Uiso   1.00
C310   C     0.12144   0.62024   0.18040   0.00000  Uiso   1.00
H311   H     0.10873   0.58682   0.18386   0.00000  Uiso   1.00
O312   O     0.11927   0.63820   0.14323   0.00000  Uiso   1.00
O313   O     0.43988   0.53958   0.25000   0.00000  Uiso   1.00
O314   O     0.56012   0.46042   0.25001   0.00000  Uiso   1.00
O315   O     0.56012   0.53958   0.25001   0.00000  Uiso   1.00
O316   O     0.43988   0.46042   0.25000   0.00000  Uiso   1.00
C317   C     0.42085   0.50076   0.25076   0.00000  Uiso   1.00
C318   C     0.57915   0.49924   0.24924   0.00000  Uiso   1.00
O319   O     0.49999   0.53960   0.18513   0.00000  Uiso   1.00
O320   O     0.50001   0.46040   0.31487   0.00000  Uiso   1.00
O321   O     0.50001   0.53960   0.31487   0.00000  Uiso   1.00
O322   O     0.49999   0.46040   0.18513   0.00000  Uiso   1.00
C323   C     0.49911   0.50027   0.16455   0.00000  Uiso   1.00
C324   C     0.50089   0.49973   0.33545   0.00000  Uiso   1.00
Cu325  Cu    0.50000   0.54689   0.25000   0.00000  Uiso   1.00
Cu326  Cu    0.50000   0.45311   0.25000   0.00000  Uiso   1.00
C327   C     0.53813   0.50858   0.41012   0.00000  Uiso   1.00
C328   C     0.46188   0.49142   0.08988   0.00000  Uiso   1.00
C329   C     0.50206   0.49908   0.38380   0.00000  Uiso   1.00
C330   C     0.49794   0.50092   0.11621   0.00000  Uiso   1.00
C331   C     0.46590   0.49074   0.40333   0.00000  Uiso   1.00
C332   C     0.53411   0.50925   0.09667   0.00000  Uiso   1.00
C333   C     0.46475   0.49163   0.44947   0.00000  Uiso   1.00
C334   C     0.53526   0.50835   0.05053   0.00000  Uiso   1.00
C335   C     0.50061   0.49997   0.47661   0.00000  Uiso   1.00
C336   C     0.49940   0.50002   0.02339   0.00000  Uiso   1.00
C337   C     0.53762   0.50817   0.45707   0.00000  Uiso   1.00
C338   C     0.46239   0.49182   0.04293   0.00000  Uiso   1.00
C339   C     0.42810   0.48465   0.46878   0.00000  Uiso   1.00
C340   C     0.57192   0.51531   0.03122   0.00000  Uiso   1.00
C341   C     0.42679   0.48517   0.01494   0.00000  Uiso   1.00
C342   C     0.57323   0.51480   0.48506   0.00000  Uiso   1.00
H343   H     0.43836   0.48451   0.38234   0.00000  Uiso   1.00
H344   H     0.56165   0.51547   0.11766   0.00000  Uiso   1.00
H345   H     0.40026   0.47902   0.44810   0.00000  Uiso   1.00
H346   H     0.59976   0.52093   0.05191   0.00000  Uiso   1.00
H347   H     0.39755   0.48077   0.02823   0.00000  Uiso   1.00
H348   H     0.60247   0.51917   0.47177   0.00000  Uiso   1.00
C349   C     0.35767   0.46435   0.27255   0.00000  Uiso   1.00
C350   C     0.64233   0.53565   0.22746   0.00000  Uiso   1.00
C351   C     0.64836   0.46157   0.26880   0.00000  Uiso   1.00
C352   C     0.35164   0.53844   0.23123   0.00000  Uiso   1.00
C353   C     0.62386   0.49788   0.24737   0.00000  Uiso   1.00
C354   C     0.37614   0.50213   0.25264   0.00000  Uiso   1.00
C355   C     0.47361   0.35928   0.22112   0.00000  Uiso   1.00
C356   C     0.52639   0.64072   0.27887   0.00000  Uiso   1.00
C357   C     0.52431   0.35680   0.28089   0.00000  Uiso   1.00
C358   C     0.47569   0.64320   0.21911   0.00000  Uiso   1.00
N359   N     0.50000   0.61736   0.25000   0.00000  Uiso   1.00
N360   N     0.50000   0.38264   0.25000   0.00000  Uiso   1.00
N361   N     0.57470   0.51892   0.38922   0.00000  Uiso   1.00
O362   O     0.58789   0.49180   0.35892   0.00000  Uiso   1.00
O363   O     0.59335   0.55714   0.39822   0.00000  Uiso   1.00
N364   N     0.42531   0.48109   0.11078   0.00000  Uiso   1.00
O365   O     0.41204   0.50829   0.14096   0.00000  Uiso   1.00
O366   O     0.40669   0.44283   0.10184   0.00000  Uiso   1.00
C367   C     0.38320   0.42838   0.29880   0.00000  Uiso   1.00
H368   H     0.40787   0.43878   0.32220   0.00000  Uiso   1.00
O369   O     0.37812   0.38715   0.29297   0.00000  Uiso   1.00
C370   C     0.61680   0.57163   0.20121   0.00000  Uiso   1.00
H371   H     0.59215   0.56123   0.17779   0.00000  Uiso   1.00
O372   O     0.62185   0.61285   0.20708   0.00000  Uiso   1.00
C373   C     0.63005   0.42054   0.28814   0.00000  Uiso   1.00
H374   H     0.61162   0.39808   0.26675   0.00000  Uiso   1.00
O375   O     0.63635   0.41099   0.32785   0.00000  Uiso   1.00
C376   C     0.36995   0.57950   0.21195   0.00000  Uiso   1.00
H377   H     0.38839   0.60191   0.23337   0.00000  Uiso   1.00
O378   O     0.36364   0.58912   0.17226   0.00000  Uiso   1.00
C379   C     0.43934   0.38455   0.19550   0.00000  Uiso   1.00
H380   H     0.44315   0.41730   0.17956   0.00000  Uiso   1.00
O381   O     0.40524   0.36883   0.19280   0.00000  Uiso   1.00
C382   C     0.56067   0.61545   0.30449   0.00000  Uiso   1.00
H383   H     0.55690   0.58262   0.32033   0.00000  Uiso   1.00
O384   O     0.59475   0.63126   0.30730   0.00000  Uiso   1.00
C385   C     0.54521   0.37976   0.31962   0.00000  Uiso   1.00
H386   H     0.55793   0.41317   0.31616   0.00000  Uiso   1.00
O387   O     0.54733   0.36181   0.35678   0.00000  Uiso   1.00
C388   C     0.45477   0.62024   0.18040   0.00000  Uiso   1.00
H389   H     0.44206   0.58682   0.18386   0.00000  Uiso   1.00
O390   O     0.45260   0.63820   0.14323   0.00000  Uiso   1.00
O391   O     0.77321   0.53958   0.25000   0.00000  Uiso   1.00
O392   O     0.89345   0.46042   0.25001   0.00000  Uiso   1.00
O393   O     0.89345   0.53958   0.25001   0.00000  Uiso   1.00
O394   O     0.77321   0.46042   0.25000   0.00000  Uiso   1.00
C395   C     0.75419   0.50076   0.25076   0.00000  Uiso   1.00
C396   C     0.91248   0.49924   0.24924   0.00000  Uiso   1.00
O397   O     0.83332   0.53960   0.18513   0.00000  Uiso   1.00
O398   O     0.83334   0.46040   0.31487   0.00000  Uiso   1.00
O399   O     0.83334   0.53960   0.31487   0.00000  Uiso   1.00
O400   O     0.83332   0.46040   0.18513   0.00000  Uiso   1.00
C401   C     0.83244   0.50027   0.16455   0.00000  Uiso   1.00
C402   C     0.83423   0.49973   0.33545   0.00000  Uiso   1.00
Cu403  Cu    0.83333   0.54689   0.25000   0.00000  Uiso   1.00
Cu404  Cu    0.83333   0.45311   0.25000   0.00000  Uiso   1.00
C405   C     0.87147   0.50858   0.41012   0.00000  Uiso   1.00
C406   C     0.79521   0.49142   0.08988   0.00000  Uiso   1.00
C407   C     0.83540   0.49908   0.38380   0.00000  Uiso   1.00
C408   C     0.83127   0.50092   0.11621   0.00000  Uiso   1.00
C409   C     0.79924   0.49074   0.40333   0.00000  Uiso   1.00
C410   C     0.86744   0.50925   0.09667   0.00000  Uiso   1.00
C411   C     0.79809   0.49163   0.44947   0.00000  Uiso   1.00
C412   C     0.86859   0.50835   0.05053   0.00000  Uiso   1.00
C413   C     0.83394   0.49997   0.47661   0.00000  Uiso   1.00
C414   C     0.83274   0.50002   0.02339   0.00000  Uiso   1.00
C415   C     0.87095   0.50817   0.45707   0.00000  Uiso   1.00
C416   C     0.79573   0.49182   0.04293   0.00000  Uiso   1.00
C417   C     0.76143   0.48465   0.46878   0.00000  Uiso   1.00
C418   C     0.90525   0.51531   0.03122   0.00000  Uiso   1.00
C419   C     0.76012   0.48517   0.01494   0.00000  Uiso   1.00
C420   C     0.90656   0.51480   0.48506   0.00000  Uiso   1.00
H421   H     0.77170   0.48451   0.38234   0.00000  Uiso   1.00
H422   H     0.89498   0.51547   0.11766   0.00000  Uiso   1.00
H423   H     0.73360   0.47902   0.44810   0.00000  Uiso   1.00
H424   H     0.93309   0.52093   0.05191   0.00000  Uiso   1.00
H425   H     0.73088   0.48077   0.02823   0.00000  Uiso   1.00
H426   H     0.93580   0.51917   0.47177   0.00000  Uiso   1.00
C427   C     0.69100   0.46435   0.27255   0.00000  Uiso   1.00
C428   C     0.97567   0.53565   0.22746   0.00000  Uiso   1.00
C429   C     0.98170   0.46157   0.26880   0.00000  Uiso   1.00
C430   C     0.68497   0.53844   0.23123   0.00000  Uiso   1.00
C431   C     0.95719   0.49788   0.24737   0.00000  Uiso   1.00
C432   C     0.70947   0.50213   0.25264   0.00000  Uiso   1.00
C433   C     0.80694   0.35928   0.22112   0.00000  Uiso   1.00
C434   C     0.85973   0.64072   0.27887   0.00000  Uiso   1.00
C435   C     0.85764   0.35680   0.28089   0.00000  Uiso   1.00
C436   C     0.80902   0.64320   0.21911   0.00000  Uiso   1.00
N437   N     0.83333   0.61736   0.25000   0.00000  Uiso   1.00
N438   N     0.83333   0.38264   0.25000   0.00000  Uiso   1.00
N439   N     0.90803   0.51892   0.38922   0.00000  Uiso   1.00
O440   O     0.92123   0.49180   0.35892   0.00000  Uiso   1.00
O441   O     0.92669   0.55714   0.39822   0.00000  Uiso   1.00
N442   N     0.75864   0.48109   0.11078   0.00000  Uiso   1.00
O443   O     0.74538   0.50829   0.14096   0.00000  Uiso   1.00
O444   O     0.74002   0.44283   0.10184   0.00000  Uiso   1.00
C445   C     0.71653   0.42838   0.29880   0.00000  Uiso   1.00
H446   H     0.74120   0.43878   0.32220   0.00000  Uiso   1.00
O447   O     0.71145   0.38715   0.29297   0.00000  Uiso   1.00
C448   C     0.95014   0.57163   0.20121   0.00000  Uiso   1.00
H449   H     0.92549   0.56123   0.17779   0.00000  Uiso   1.00
O450   O     0.95519   0.61285   0.20708   0.00000  Uiso   1.00
C451   C     0.96338   0.42054   0.28814   0.00000  Uiso   1.00
H452   H     0.94496   0.39808   0.26675   0.00000  Uiso   1.00
O453   O     0.96968   0.41099   0.32785   0.00000  Uiso   1.00
C454   C     0.70328   0.57950   0.21195   0.00000  Uiso   1.00
H455   H     0.72172   0.60191   0.23337   0.00000  Uiso   1.00
O456   O     0.69697   0.58912   0.17226   0.00000  Uiso   1.00
C457   C     0.77268   0.38455   0.19550   0.00000  Uiso   1.00
H458   H     0.77649   0.41730   0.17956   0.00000  Uiso   1.00
O459   O     0.73857   0.36883   0.19280   0.00000  Uiso   1.00
C460   C     0.89401   0.61545   0.30449   0.00000  Uiso   1.00
H461   H     0.89023   0.58262   0.32033   0.00000  Uiso   1.00
O462   O     0.92809   0.63126   0.30730   0.00000  Uiso   1.00
C463   C     0.87854   0.37976   0.31962   0.00000  Uiso   1.00
H464   H     0.89126   0.41317   0.31616   0.00000  Uiso   1.00
O465   O     0.88066   0.36181   0.35678   0.00000  Uiso   1.00
C466   C     0.78810   0.62024   0.18040   0.00000  Uiso   1.00
H467   H     0.77539   0.58682   0.18386   0.00000  Uiso   1.00
O468   O     0.78594   0.63820   0.14323   0.00000  Uiso   1.00
O469   O     0.10655   0.87291   0.25000   0.00000  Uiso   1.00
O470   O     0.22679   0.79375   0.25001   0.00000  Uiso   1.00
O471   O     0.22679   0.87291   0.25001   0.00000  Uiso   1.00
O472   O     0.10655   0.79375   0.25000   0.00000  Uiso   1.00
C473   C     0.08752   0.83409   0.25076   0.00000  Uiso   1.00
C474   C     0.24581   0.83257   0.24924   0.00000  Uiso   1.00
O475   O     0.16666   0.87293   0.18513   0.00000  Uiso   1.00
O476   O     0.16668   0.79373   0.31487   0.00000  Uiso   1.00
O477   O     0.16668   0.87293   0.31487   0.00000  Uiso   1.00
O478   O     0.16666   0.79373   0.18513   0.00000  Uiso   1.00
C479   C     0.16577   0.83361   0.16455   0.00000  Uiso   1.00
C480   C     0.16756   0.83306   0.33545   0.00000  Uiso   1.00
Cu481  Cu    0.16667   0.88022   0.25000   0.00000  Uiso   1.00
Cu482  Cu    0.16667   0.78645   0.25000   0.00000  Uiso   1.00
C483   C     0.20480   0.84191   0.41012   0.00000  Uiso   1.00
C484   C     0.12854   0.82475   0.08988   0.00000  Uiso   1.00
C485   C     0.16873   0.83242   0.38380   0.00000  Uiso   1.00
C486   C     0.16461   0.83425   0.11621   0.00000  Uiso   1.00
C487   C     0.13257   0.82407   0.40333   0.00000  Uiso   1.00
C488   C     0.20077   0.84258   0.09667   0.00000  Uiso   1.00
C489   C     0.13142   0.82496   0.44947   0.00000  Uiso   1.00
C490   C     0.20193   0.84169   0.05053   0.00000  Uiso   1.00
C491   C     0.16728   0.83330   0.47661   0.00000  Uiso   1.00
C492   C     0.16607   0.83335   0.02339   0.00000  Uiso   1.00
C493   C     0.20428   0.84150   0.45707   0.00000  Uiso   1.00
C494   C     0.12906   0.82515   0.04293   0.00000  Uiso   1.00
C495   C     0.09476   0.81798   0.46878   0.00000  Uiso   1.00
C496   C     0.23858   0.84865   0.03122   0.00000  Uiso   1.00
C497   C     0.09346   0.81850   0.01494   0.00000  Uiso   1.00
C498   C     0.23989   0.84813   0.48506   0.00000  Uiso   1.00
H499   H     0.10503   0.81784   0.38234   0.00000  Uiso   1.00
H500   H     0.22831   0.84881   0.11766   0.00000  Uiso   1.00
H501   H     0.06693   0.81235   0.44810   0.00000  Uiso   1.00
H502   H     0.26642   0.85426   0.05191   0.00000  Uiso   1.00
H503   H     0.06422   0.81411   0.02823   0.00000  Uiso   1.00
H504   H     0.26914   0.85250   0.47177   0.00000  Uiso   1.00
C505   C     0.02434   0.79769   0.27255   0.00000  Uiso   1.00
C506   C     0.30900   0.86898   0.22746   0.00000  Uiso   1.00
C507   C     0.31503   0.79490   0.26880   0.00000  Uiso   1.00
C508   C     0.01830   0.87178   0.23123   0.00000  Uiso   1.00
C509   C     0.29053   0.83121   0.24737   0.00000  Uiso   1.00
C510   C     0.04281   0.83546   0.25264   0.00000  Uiso   1.00
C511   C     0.14028   0.69261   0.22112   0.00000  Uiso   1.00
C512   C     0.19306   0.97405   0.27887   0.00000  Uiso   1.00
C513   C     0.19097   0.69013   0.28089   0.00000  Uiso   1.00
C514   C     0.14236   0.97653   0.21911   0.00000  Uiso   1.00
N515   N     0.16667   0.95069   0.25000   0.00000  Uiso   1.00
N516   N     0.16667   0.71598   0.25000   0.00000  Uiso   1.00
N517   N     0.24136   0.85225   0.38922   0.00000  Uiso   1.00
O518   O     0.25456   0.82513   0.35892   0.00000  Uiso   1.00
O519   O     0.26002   0.89047   0.39822   0.00000  Uiso   1.00
N520   N     0.09198   0.81442   0.11078   0.00000  Uiso   1.00
O521   O     0.07871   0.84163   0.14096   0.00000  Uiso   1.00
O522   O     0.07335   0.77617   0.10184   0.00000  Uiso   1.00
C523   C     0.04987   0.76171   0.29880   0.00000  Uiso   1.00
H524   H     0.07454   0.77211   0.32220   0.00000  Uiso   1.00
O525   O     0.04479   0.72049   0.29297   0.00000  Uiso   1.00
C526   C     0.28347   0.90496   0.20121   0.00000  Uiso   1.00
H527   H     0.25882   0.89456   0.17779   0.00000  Uiso   1.00
O528   O     0.28852   0.94618   0.20708   0.00000  Uiso   1.00
C529   C     0.29672   0.75387   0.28814   0.00000  Uiso   1.00
H530   H     0.27829   0.73141   0.26675   0.00000  Uiso   1.00
O531   O     0.30302   0.74432   0.32785   0.00000  Uiso   1.00
C532   C     0.03662   0.91283   0.21195   0.00000  Uiso   1.00
H533   H     0.05506   0.93525   0.23337   0.00000  Uiso   1.00
O534   O     0.03031   0.92246   0.17226   0.00000  Uiso   1.00
C535   C     0.10601   0.71789   0.19550   0.00000  Uiso   1.00
H536   H     0.10982   0.75063   0.17956   0.00000  Uiso   1.00
O537   O     0.07191   0.70217   0.19280   0.00000  Uiso   1.00
C538   C     0.22734   0.94878   0.30449   0.00000  Uiso   1.00
H539   H     0.22356   0.91596   0.32033   0.00000  Uiso   1.00
O540   O     0.26142   0.96459   0.30730   0.00000  Uiso   1.00
C541   C     0.21187   0.71310   0.31962   0.00000  Uiso   1.00
H542   H     0.22460   0.74650   0.31616   0.00000  Uiso   1.00
O543   O     0.21400   0.69514   0.35678   0.00000  Uiso   1.00
C544   C     0.12144   0.95357   0.18040   0.00000  Uiso   1.00
H545   H     0.10873   0.92016   0.18386   0.00000  Uiso   1.00
O546   O     0.11927   0.97153   0.14323   0.00000  Uiso   1.00
O547   O     0.43988   0.87291   0.25000   0.00000  Uiso   1.00
O548   O     0.56012   0.79375   0.25001   0.00000  Uiso   1.00
O549   O     0.56012   0.87291   0.25001   0.00000  Uiso   1.00
O550   O     0.43988   0.79375   0.25000   0.00000  Uiso   1.00
C551   C     0.42085   0.83409   0.25076   0.00000  Uiso   1.00
C552   C     0.57915   0.83257   0.24924   0.00000  Uiso   1.00
O553   O     0.49999   0.87293   0.18513   0.00000  Uiso   1.00
O554   O     0.50001   0.79373   0.31487   0.00000  Uiso   1.00
O555   O     0.50001   0.87293   0.31487   0.00000  Uiso   1.00
O556   O     0.49999   0.79373   0.18513   0.00000  Uiso   1.00
C557   C     0.49911   0.83361   0.16455   0.00000  Uiso   1.00
C558   C     0.50089   0.83306   0.33545   0.00000  Uiso   1.00
Cu559  Cu    0.50000   0.88022   0.25000   0.00000  Uiso   1.00
Cu560  Cu    0.50000   0.78645   0.25000   0.00000  Uiso   1.00
C561   C     0.53813   0.84191   0.41012   0.00000  Uiso   1.00
C562   C     0.46188   0.82475   0.08988   0.00000  Uiso   1.00
C563   C     0.50206   0.83242   0.38380   0.00000  Uiso   1.00
C564   C     0.49794   0.83425   0.11621   0.00000  Uiso   1.00
C565   C     0.46590   0.82407   0.40333   0.00000  Uiso   1.00
C566   C     0.53411   0.84258   0.09667   0.00000  Uiso   1.00
C567   C     0.46475   0.82496   0.44947   0.00000  Uiso   1.00
C568   C     0.53526   0.84169   0.05053   0.00000  Uiso   1.00
C569   C     0.50061   0.83330   0.47661   0.00000  Uiso   1.00
C570   C     0.49940   0.83335   0.02339   0.00000  Uiso   1.00
C571   C     0.53762   0.84150   0.45707   0.00000  Uiso   1.00
C572   C     0.46239   0.82515   0.04293   0.00000  Uiso   1.00
C573   C     0.42810   0.81798   0.46878   0.00000  Uiso   1.00
C574   C     0.57192   0.84865   0.03122   0.00000  Uiso   1.00
C575   C     0.42679   0.81850   0.01494   0.00000  Uiso   1.00
C576   C     0.57323   0.84813   0.48506   0.00000  Uiso   1.00
H577   H     0.43836   0.81784   0.38234   0.00000  Uiso   1.00
H578   H     0.56165   0.84881   0.11766   0.00000  Uiso   1.00
H579   H     0.40026   0.81235   0.44810   0.00000  Uiso   1.00
H580   H     0.59976   0.85426   0.05191   0.00000  Uiso   1.00
H581   H     0.39755   0.81411   0.02823   0.00000  Uiso   1.00
H582   H     0.60247   0.85250   0.47177   0.00000  Uiso   1.00
C583   C     0.35767   0.79769   0.27255   0.00000  Uiso   1.00
C584   C     0.64233   0.86898   0.22746   0.00000  Uiso   1.00
C585   C     0.64836   0.79490   0.26880   0.00000  Uiso   1.00
C586   C     0.35164   0.87178   0.23123   0.00000  Uiso   1.00
C587   C     0.62386   0.83121   0.24737   0.00000  Uiso   1.00
C588   C     0.37614   0.83546   0.25264   0.00000  Uiso   1.00
C589   C     0.47361   0.69261   0.22112   0.00000  Uiso   1.00
C590   C     0.52639   0.97405   0.27887   0.00000  Uiso   1.00
C591   C     0.52431   0.69013   0.28089   0.00000  Uiso   1.00
C592   C     0.47569   0.97653   0.21911   0.00000  Uiso   1.00
N593   N     0.50000   0.95069   0.25000   0.00000  Uiso   1.00
N594   N     0.50000   0.71598   0.25000   0.00000  Uiso   1.00
N595   N     0.57470   0.85225   0.38922   0.00000  Uiso   1.00
O596   O     0.58789   0.82513   0.35892   0.00000  Uiso   1.00
O597   O     0.59335   0.89047   0.39822   0.00000  Uiso   1.00
N598   N     0.42531   0.81442   0.11078   0.00000  Uiso   1.00
O599   O     0.41204   0.84163   0.14096   0.00000  Uiso   1.00
O600   O     0.40669   0.77617   0.10184   0.00000  Uiso   1.00
C601   C     0.38320   0.76171   0.29880   0.00000  Uiso   1.00
H602   H     0.40787   0.77211   0.32220   0.00000  Uiso   1.00
O603   O     0.37812   0.72049   0.29297   0.00000  Uiso   1.00
C604   C     0.61680   0.90496   0.20121   0.00000  Uiso   1.00
H605   H     0.59215   0.89456   0.17779   0.00000  Uiso   1.00
O606   O     0.62185   0.94618   0.20708   0.00000  Uiso   1.00
C607   C     0.63005   0.75387   0.28814   0.00000  Uiso   1.00
H608   H     0.61162   0.73141   0.26675   0.00000  Uiso   1.00
O609   O     0.63635   0.74432   0.32785   0.00000  Uiso   1.00
C610   C     0.36995   0.91283   0.21195   0.00000  Uiso   1.00
H611   H     0.38839   0.93525   0.23337   0.00000  Uiso   1.00
O612   O     0.36364   0.92246   0.17226   0.00000  Uiso   1.00
C613   C     0.43934   0.71789   0.19550   0.00000  Uiso   1.00
H614   H     0.44315   0.75063   0.17956   0.00000  Uiso   1.00
O615   O     0.40524   0.70217   0.19280   0.00000  Uiso   1.00
C616   C     0.56067   0.94878   0.30449   0.00000  Uiso   1.00
H617   H     0.55690   0.91596   0.32033   0.00000  Uiso   1.00
O618   O     0.59475   0.96459   0.30730   0.00000  Uiso   1.00
C619   C     0.54521   0.71310   0.31962   0.00000  Uiso   1.00
H620   H     0.55793   0.74650   0.31616   0.00000  Uiso   1.00
O621   O     0.54733   0.69514   0.35678   0.00000  Uiso   1.00
C622   C     0.45477   0.95357   0.18040   0.00000  Uiso   1.00
H623   H     0.44206   0.92016   0.18386   0.00000  Uiso   1.00
O624   O     0.45260   0.97153   0.14323   0.00000  Uiso   1.00
O625   O     0.77321   0.87291   0.25000   0.00000  Uiso   1.00
O626   O     0.89345   0.79375   0.25001   0.00000  Uiso   1.00
O627   O     0.89345   0.87291   0.25001   0.00000  Uiso   1.00
O628   O     0.77321   0.79375   0.25000   0.00000  Uiso   1.00
C629   C     0.75419   0.83409   0.25076   0.00000  Uiso   1.00
C630   C     0.91248   0.83257   0.24924   0.00000  Uiso   1.00
O631   O     0.83332   0.87293   0.18513   0.00000  Uiso   1.00
O632   O     0.83334   0.79373   0.31487   0.00000  Uiso   1.00
O633   O     0.83334   0.87293   0.31487   0.00000  Uiso   1.00
O634   O     0.83332   0.79373   0.18513   0.00000  Uiso   1.00
C635   C     0.83244   0.83361   0.16455   0.00000  Uiso   1.00
C636   C     0.83423   0.83306   0.33545   0.00000  Uiso   1.00
Cu637  Cu    0.83333   0.88022   0.25000   0.00000  Uiso   1.00
Cu638  Cu    0.83333   0.78645   0.25000   0.00000  Uiso   1.00
C639   C     0.87147   0.84191   0.41012   0.00000  Uiso   1.00
C640   C     0.79521   0.82475   0.08988   0.00000  Uiso   1.00
C641   C     0.83540   0.83242   0.38380   0.00000  Uiso   1.00
C642   C     0.83127   0.83425   0.11621   0.00000  Uiso   1.00
C643   C     0.79924   0.82407   0.40333   0.00000  Uiso   1.00
C644   C     0.86744   0.84258   0.09667   0.00000  Uiso   1.00
C645   C     0.79809   0.82496   0.44947   0.00000  Uiso   1.00
C646   C     0.86859   0.84169   0.05053   0.00000  Uiso   1.00
C647   C     0.83394   0.83330   0.47661   0.00000  Uiso   1.00
C648   C     0.83274   0.83335   0.02339   0.00000  Uiso   1.00
C649   C     0.87095   0.84150   0.45707   0.00000  Uiso   1.00
C650   C     0.79573   0.82515   0.04293   0.00000  Uiso   1.00
C651   C     0.76143   0.81798   0.46878   0.00000  Uiso   1.00
C652   C     0.90525   0.84865   0.03122   0.00000  Uiso   1.00
C653   C     0.76012   0.81850   0.01494   0.00000  Uiso   1.00
C654   C     0.90656   0.84813   0.48506   0.00000  Uiso   1.00
H655   H     0.77170   0.81784   0.38234   0.00000  Uiso   1.00
H656   H     0.89498   0.84881   0.11766   0.00000  Uiso   1.00
H657   H     0.73360   0.81235   0.44810   0.00000  Uiso   1.00
H658   H     0.93309   0.85426   0.05191   0.00000  Uiso   1.00
H659   H     0.73088   0.81411   0.02823   0.00000  Uiso   1.00
H660   H     0.93580   0.85250   0.47177   0.00000  Uiso   1.00
C661   C     0.69100   0.79769   0.27255   0.00000  Uiso   1.00
C662   C     0.97567   0.86898   0.22746   0.00000  Uiso   1.00
C663   C     0.98170   0.79490   0.26880   0.00000  Uiso   1.00
C664   C     0.68497   0.87178   0.23123   0.00000  Uiso   1.00
C665   C     0.95719   0.83121   0.24737   0.00000  Uiso   1.00
C666   C     0.70947   0.83546   0.25264   0.00000  Uiso   1.00
C667   C     0.80694   0.69261   0.22112   0.00000  Uiso   1.00
C668   C     0.85973   0.97405   0.27887   0.00000  Uiso   1.00
C669   C     0.85764   0.69013   0.28089   0.00000  Uiso   1.00
C670   C     0.80902   0.97653   0.21911   0.00000  Uiso   1.00
N671   N     0.83333   0.95069   0.25000   0.00000  Uiso   1.00
N672   N     0.83333   0.71598   0.25000   0.00000  Uiso   1.00
N673   N     0.90803   0.85225   0.38922   0.00000  Uiso   1.00
O674   O     0.92123   0.82513   0.35892   0.00000  Uiso   1.00
O675   O     0.92669   0.89047   0.39822   0.00000  Uiso   1.00
N676   N     0.75864   0.81442   0.11078   0.00000  Uiso   1.00
O677   O     0.74538   0.84163   0.14096   0.00000  Uiso   1.00
O678   O     0.74002   0.77617   0.10184   0.00000  Uiso   1.00
C679   C     0.71653   0.76171   0.29880   0.00000  Uiso   1.00
H680   H     0.74120   0.77211   0.32220   0.00000  Uiso   1.00
O681   O     0.71145   0.72049   0.29297   0.00000  Uiso   1.00
C682   C     0.95014   0.90496   0.20121   0.00000  Uiso   1.00
H683   H     0.92549   0.89456   0.17779   0.00000  Uiso   1.00
O684   O     0.95519   0.94618   0.20708   0.00000  Uiso   1.00
C685   C     0.96338   0.75387   0.28814   0.00000  Uiso   1.00
H686   H     0.94496   0.73141   0.26675   0.00000  Uiso   1.00
O687   O     0.96968   0.74432   0.32785   0.00000  Uiso   1.00
C688   C     0.70328   0.91283   0.21195   0.00000  Uiso   1.00
H689   H     0.72172   0.93525   0.23337   0.00000  Uiso   1.00
O690   O     0.69697   0.92246   0.17226   0.00000  Uiso   1.00
C691   C     0.77268   0.71789   0.19550   0.00000  Uiso   1.00
H692   H     0.77649   0.75063   0.17956   0.00000  Uiso   1.00
O693   O     0.73857   0.70217   0.19280   0.00000  Uiso   1.00
C694   C     0.89401   0.94878   0.30449   0.00000  Uiso   1.00
H695   H     0.89023   0.91596   0.32033   0.00000  Uiso   1.00
O696   O     0.92809   0.96459   0.30730   0.00000  Uiso   1.00
C697   C     0.87854   0.71310   0.31962   0.00000  Uiso   1.00
H698   H     0.89126   0.74650   0.31616   0.00000  Uiso   1.00
O699   O     0.88066   0.69514   0.35678   0.00000  Uiso   1.00
C700   C     0.78810   0.95357   0.18040   0.00000  Uiso   1.00
H701   H     0.77539   0.92016   0.18386   0.00000  Uiso   1.00
O702   O     0.78594   0.97153   0.14323   0.00000  Uiso   1.00
O703   O     0.10655   0.20625   0.75000   0.00000  Uiso   1.00
O704   O     0.22679   0.12709   0.75001   0.00000  Uiso   1.00
O705   O     0.22679   0.20625   0.75001   0.00000  Uiso   1.00
O706   O     0.10655   0.12709   0.75000   0.00000  Uiso   1.00
C707   C     0.08752   0.16743   0.75076   0.00000  Uiso   1.00
C708   C     0.24581   0.16591   0.74924   0.00000  Uiso   1.00
O709   O     0.16666   0.20627   0.68513   0.00000  Uiso   1.00
O710   O     0.16668   0.12707   0.81487   0.00000  Uiso   1.00
O711   O     0.16668   0.20627   0.81487   0.00000  Uiso   1.00
O712   O     0.16666   0.12707   0.68513   0.00000  Uiso   1.00
C713   C     0.16577   0.16694   0.66455   0.00000  Uiso   1.00
C714   C     0.16756   0.16639   0.83545   0.00000  Uiso   1.00
Cu715  Cu    0.16667   0.21355   0.75000   0.00000  Uiso   1.00
Cu716  Cu    0.16667   0.11978   0.75000   0.00000  Uiso   1.00
C717   C     0.20480   0.17524   0.91012   0.00000  Uiso   1.00
C718   C     0.12854   0.15809   0.58988   0.00000  Uiso   1.00
C719   C     0.16873   0.16575   0.88380   0.00000  Uiso   1.00
C720   C     0.16461   0.16758   0.61621   0.00000  Uiso   1.00
C721   C     0.13257   0.15741   0.90333   0.00000  Uiso   1.00
C722   C     0.20077   0.17591   0.59667   0.00000  Uiso   1.00
C723   C     0.13142   0.15829   0.94947   0.00000  Uiso   1.00
C724   C     0.20193   0.17502   0.55053   0.00000  Uiso   1.00
C725   C     0.16728   0.16663   0.97661   0.00000  Uiso   1.00
C726   C     0.16607   0.16668   0.52339   0.00000  Uiso   1.00
C727   C     0.20428   0.17483   0.95707   0.00000  Uiso   1.00
C728   C     0.12906   0.15848   0.54293   0.00000  Uiso   1.00
C729   C     0.09476   0.15132   0.96878   0.00000  Uiso   1.00
C730   C     0.23858   0.18198   0.53122   0.00000  Uiso   1.00
C731   C     0.09346   0.15183   0.51494   0.00000  Uiso   1.00
C732   C     0.23989   0.18146   0.98506   0.00000  Uiso   1.00
H733   H     0.10503   0.15118   0.88234   0.00000  Uiso   1.00
H734   H     0.22831   0.18214   0.61766   0.00000  Uiso   1.00
H735   H     0.06693   0.14569   0.94810   0.00000  Uiso   1.00
H736   H     0.26642   0.18760   0.55191   0.00000  Uiso   1.00
H737   H     0.06422   0.14744   0.52823   0.00000  Uiso   1.00
H738   H     0.26914   0.18583   0.97177   0.00000  Uiso   1.00
C739   C     0.02434   0.13102   0.77255   0.00000  Uiso   1.00
C740   C     0.30900   0.20232   0.72746   0.00000  Uiso   1.00
C741   C     0.31503   0.12823   0.76880   0.00000  Uiso   1.00
C742   C     0.01830   0.20511   0.73123   0.00000  Uiso   1.00
C743   C     0.29053   0.16454   0.74737   0.00000  Uiso   1.00
C744   C     0.04281   0.16879   0.75264   0.00000  Uiso   1.00
C745   C     0.14028   0.02595   0.72112   0.00000  Uiso   1.00
C746   C     0.19306   0.30739   0.77887   0.00000  Uiso   1.00
C747   C     0.19097   0.02347   0.78089   0.00000  Uiso   1.00
C748   C     0.14236   0.30987   0.71911   0.00000  Uiso   1.00
N749   N     0.16667   0.28402   0.75000   0.00000  Uiso   1.00
N750   N     0.16667   0.04931   0.75000   0.00000  Uiso   1.00
N751   N     0.24136   0.18559   0.88922   0.00000  Uiso   1.00
O752   O     0.25456   0.15847   0.85892   0.00000  Uiso   1.00
O753   O     0.26002   0.22381   0.89822   0.00000  Uiso   1.00
N754   N     0.09198   0.14775   0.61078   0.00000  Uiso   1.00
O755   O     0.07871   0.17496   0.64096   0.00000  Uiso   1.00
O756   O     0.07335   0.10950   0.60184   0.00000  Uiso   1.00
C757   C     0.04987   0.09505   0.79880   0.00000  Uiso   1.00
H758   H     0.07454   0.10545   0.82220   0.00000  Uiso   1.00
O759   O     0.04479   0.05382   0.79297   0.00000  Uiso   1.00
C760   C     0.28347   0.23829   0.70121   0.00000  Uiso   1.00
H761   H     0.25882   0.22790   0.67779   0.00000  Uiso   1.00
O762   O     0.28852   0.27952   0.70708   0.00000  Uiso   1.00
C763   C     0.29672   0.08720   0.78814   0.00000  Uiso   1.00
H764   H     0.27829   0.06475   0.76675   0.00000  Uiso   1.00
O765   O     0.30302   0.07765   0.82785   0.00000  Uiso   1.00
C766   C     0.03662   0.24617   0.71195   0.00000  Uiso   1.00
H767   H     0.05506   0.26858   0.73337   0.00000  Uiso   1.00
O768   O     0.03031   0.25579   0.67226   0.00000  Uiso   1.00
C769   C     0.10601   0.05122   0.69550   0.00000  Uiso   1.00
H770   H     0.10982   0.08397   0.67956   0.00000  Uiso   1.00
O771   O     0.07191   0.03550   0.69280   0.00000  Uiso   1.00
C772   C     0.22734   0.28212   0.80449   0.00000  Uiso   1.00
H773   H     0.22356   0.24929   0.82033   0.00000  Uiso   1.00
O774   O     0.26142   0.29792   0.80730   0.00000  Uiso   1.00
C775   C     0.21187   0.04643   0.81962   0.00000  Uiso   1.00
H776   H     0.22460   0.07983   0.81616   0.00000  Uiso   1.00
O777   O     0.21400   0.02848   0.85678   0.00000  Uiso   1.00
C778   C     0.12144   0.28690   0.68040   0.00000  Uiso   1.00
H779   H     0.10873   0.25349   0.68386   0.00000  Uiso   1.00
O780   O     0.11927   0.30486   0.64323   0.00000  Uiso   1.00
O781   O     0.43988   0.20625   0.75000   0.00000  Uiso   1.00
O782   O     0.56012   0.12709   0.75001   0.00000  Uiso   1.00
O783   O     0.56012   0.20625   0.75001   0.00000  Uiso   1.00
O784   O     0.43988   0.12709   0.75000   0.00000  Uiso   1.00
C785   C     0.42085   0.16743   0.75076   0.00000  Uiso   1.00
C786   C     0.57915   0.16591   0.74924   0.00000  Uiso   1.00
O787   O     0.49999   0.20627   0.68513   0.00000  Uiso   1.00
O788   O     0.50001   0.12707   0.81487   0.00000  Uiso   1.00
O789   O     0.50001   0.20627   0.81487   0.00000  Uiso   1.00
O790   O     0.49999   0.12707   0.68513   0.00000  Uiso   1.00
C791   C     0.49911   0.16694   0.66455   0.00000  Uiso   1.00
C792   C     0.50089   0.16639   0.83545   0.00000  Uiso   1.00
Cu793  Cu    0.50000   0.21355   0.75000   0.00000  Uiso   1.00
Cu794  Cu    0.50000   0.11978   0.75000   0.00000  Uiso   1.00
C795   C     0.53813   0.17524   0.91012   0.00000  Uiso   1.00
C796   C     0.46188   0.15809   0.58988   0.00000  Uiso   1.00
C797   C     0.50206   0.16575   0.88380   0.00000  Uiso   1.00
C798   C     0.49794   0.16758   0.61621   0.00000  Uiso   1.00
C799   C     0.46590   0.15741   0.90333   0.00000  Uiso   1.00
C800   C     0.53411   0.17591   0.59667   0.00000  Uiso   1.00
C801   C     0.46475   0.15829   0.94947   0.00000  Uiso   1.00
C802   C     0.53526   0.17502   0.55053   0.00000  Uiso   1.00
C803   C     0.50061   0.16663   0.97661   0.00000  Uiso   1.00
C804   C     0.49940   0.16668   0.52339   0.00000  Uiso   1.00
C805   C     0.53762   0.17483   0.95707   0.00000  Uiso   1.00
C806   C     0.46239   0.15848   0.54293   0.00000  Uiso   1.00
C807   C     0.42810   0.15132   0.96878   0.00000  Uiso   1.00
C808   C     0.57192   0.18198   0.53122   0.00000  Uiso   1.00
C809   C     0.42679   0.15183   0.51494   0.00000  Uiso   1.00
C810   C     0.57323   0.18146   0.98506   0.00000  Uiso   1.00
H811   H     0.43836   0.15118   0.88234   0.00000  Uiso   1.00
H812   H     0.56165   0.18214   0.61766   0.00000  Uiso   1.00
H813   H     0.40026   0.14569   0.94810   0.00000  Uiso   1.00
H814   H     0.59976   0.18760   0.55191   0.00000  Uiso   1.00
H815   H     0.39755   0.14744   0.52823   0.00000  Uiso   1.00
H816   H     0.60247   0.18583   0.97177   0.00000  Uiso   1.00
C817   C     0.35767   0.13102   0.77255   0.00000  Uiso   1.00
C818   C     0.64233   0.20232   0.72746   0.00000  Uiso   1.00
C819   C     0.64836   0.12823   0.76880   0.00000  Uiso   1.00
C820   C     0.35164   0.20511   0.73123   0.00000  Uiso   1.00
C821   C     0.62386   0.16454   0.74737   0.00000  Uiso   1.00
C822   C     0.37614   0.16879   0.75264   0.00000  Uiso   1.00
C823   C     0.47361   0.02595   0.72112   0.00000  Uiso   1.00
C824   C     0.52639   0.30739   0.77887   0.00000  Uiso   1.00
C825   C     0.52431   0.02347   0.78089   0.00000  Uiso   1.00
C826   C     0.47569   0.30987   0.71911   0.00000  Uiso   1.00
N827   N     0.50000   0.28402   0.75000   0.00000  Uiso   1.00
N828   N     0.50000   0.04931   0.75000   0.00000  Uiso   1.00
N829   N     0.57470   0.18559   0.88922   0.00000  Uiso   1.00
O830   O     0.58789   0.15847   0.85892   0.00000  Uiso   1.00
O831   O     0.59335   0.22381   0.89822   0.00000  Uiso   1.00
N832   N     0.42531   0.14775   0.61078   0.00000  Uiso   1.00
O833   O     0.41204   0.17496   0.64096   0.00000  Uiso   1.00
O834   O     0.40669   0.10950   0.60184   0.00000  Uiso   1.00
C835   C     0.38320   0.09505   0.79880   0.00000  Uiso   1.00
H836   H     0.40787   0.10545   0.82220   0.00000  Uiso   1.00
O837   O     0.37812   0.05382   0.79297   0.00000  Uiso   1.00
C838   C     0.61680   0.23829   0.70121   0.00000  Uiso   1.00
H839   H     0.59215   0.22790   0.67779   0.00000  Uiso   1.00
O840   O     0.62185   0.27952   0.70708   0.00000  Uiso   1.00
C841   C     0.63005   0.08720   0.78814   0.00000  Uiso   1.00
H842   H     0.61162   0.06475   0.76675   0.00000  Uiso   1.00
O843   O     0.63635   0.07765   0.82785   0.00000  Uiso   1.00
C844   C     0.36995   0.24617   0.71195   0.00000  Uiso   1.00
H845   H     0.38839   0.26858   0.73337   0.00000  Uiso   1.00
O846   O     0.36364   0.25579   0.67226   0.00000  Uiso   1.00
C847   C     0.43934   0.05122   0.69550   0.00000  Uiso   1.00
H848   H     0.44315   0.08397   0.67956   0.00000  Uiso   1.00
O849   O     0.40524   0.03550   0.69280   0.00000  Uiso   1.00
C850   C     0.56067   0.28212   0.80449   0.00000  Uiso   1.00
H851   H     0.55690   0.24929   0.82033   0.00000  Uiso   1.00
O852   O     0.59475   0.29792   0.80730   0.00000  Uiso   1.00
C853   C     0.54521   0.04643   0.81962   0.00000  Uiso   1.00
H854   H     0.55793   0.07983   0.81616   0.00000  Uiso   1.00
O855   O     0.54733   0.02848   0.85678   0.00000  Uiso   1.00
C856   C     0.45477   0.28690   0.68040   0.00000  Uiso   1.00
H857   H     0.44206   0.25349   0.68386   0.00000  Uiso   1.00
O858   O     0.45260   0.30486   0.64323   0.00000  Uiso   1.00
O859   O     0.77321   0.20625   0.75000   0.00000  Uiso   1.00
O860   O     0.89345   0.12709   0.75001   0.00000  Uiso   1.00
O861   O     0.89345   0.20625   0.75001   0.00000  Uiso   1.00
O862   O     0.77321   0.12709   0.75000   0.00000  Uiso   1.00
C863   C     0.75419   0.16743   0.75076   0.00000  Uiso   1.00
C864   C     0.91248   0.16591   0.74924   0.00000  Uiso   1.00
O865   O     0.83332   0.20627   0.68513   0.00000  Uiso   1.00
O866   O     0.83334   0.12707   0.81487   0.00000  Uiso   1.00
O867   O     0.83334   0.20627   0.81487   0.00000  Uiso   1.00
O868   O     0.83332   0.12707   0.68513   0.00000  Uiso   1.00
C869   C     0.83244   0.16694   0.66455   0.00000  Uiso   1.00
C870   C     0.83423   0.16639   0.83545   0.00000  Uiso   1.00
Cu871  Cu    0.83333   0.21355   0.75000   0.00000  Uiso   1.00
Cu872  Cu    0.83333   0.11978   0.75000   0.00000  Uiso   1.00
C873   C     0.87147   0.17524   0.91012   0.00000  Uiso   1.00
C874   C     0.79521   0.15809   0.58988   0.00000  Uiso   1.00
C875   C     0.83540   0.16575   0.88380   0.00000  Uiso   1.00
C876   C     0.83127   0.16758   0.61621   0.00000  Uiso   1.00
C877   C     0.79924   0.15741   0.90333   0.00000  Uiso   1.00
C878   C     0.86744   0.17591   0.59667   0.00000  Uiso   1.00
C879   C     0.79809   0.15829   0.94947   0.00000  Uiso   1.00
C880   C     0.86859   0.17502   0.55053   0.00000  Uiso   1.00
C881   C     0.83394   0.16663   0.97661   0.00000  Uiso   1.00
C882   C     0.83274   0.16668   0.52339   0.00000  Uiso   1.00
C883   C     0.87095   0.17483   0.95707   0.00000  Uiso   1.00
C884   C     0.79573   0.15848   0.54293   0.00000  Uiso   1.00
C885   C     0.76143   0.15132   0.96878   0.00000  Uiso   1.00
C886   C     0.90525   0.18198   0.53122   0.00000  Uiso   1.00
C887   C     0.76012   0.15183   0.51494   0.00000  Uiso   1.00
C888   C     0.90656   0.18146   0.98506   0.00000  Uiso   1.00
H889   H     0.77170   0.15118   0.88234   0.00000  Uiso   1.00
H890   H     0.89498   0.18214   0.61766   0.00000  Uiso   1.00
H891   H     0.73360   0.14569   0.94810   0.00000  Uiso   1.00
H892   H     0.93309   0.18760   0.55191   0.00000  Uiso   1.00
H893   H     0.73088   0.14744   0.52823   0.00000  Uiso   1.00
H894   H     0.93580   0.18583   0.97177   0.00000  Uiso   1.00
C895   C     0.69100   0.13102   0.77255   0.00000  Uiso   1.00
C896   C     0.97567   0.20232   0.72746   0.00000  Uiso   1.00
C897   C     0.98170   0.12823   0.76880   0.00000  Uiso   1.00
C898   C     0.68497   0.20511   0.73123   0.00000  Uiso   1.00
C899   C     0.95719   0.16454   0.74737   0.00000  Uiso   1.00
C900   C     0.70947   0.16879   0.75264   0.00000  Uiso   1.00
C901   C     0.80694   0.02595   0.72112   0.00000  Uiso   1.00
C902   C     0.85973   0.30739   0.77887   0.00000  Uiso   1.00
C903   C     0.85764   0.02347   0.78089   0.00000  Uiso   1.00
C904   C     0.80902   0.30987   0.71911   0.00000  Uiso   1.00
N905   N     0.83333   0.28402   0.75000   0.00000  Uiso   1.00
N906   N     0.83333   0.04931   0.75000   0.00000  Uiso   1.00
N907   N     0.90803   0.18559   0.88922   0.00000  Uiso   1.00
O908   O     0.92123   0.15847   0.85892   0.00000  Uiso   1.00
O909   O     0.92669   0.22381   0.89822   0.00000  Uiso   1.00
N910   N     0.75864   0.14775   0.61078   0.00000  Uiso   1.00
O911   O     0.74538   0.17496   0.64096   0.00000  Uiso   1.00
O912   O     0.74002   0.10950   0.60184   0.00000  Uiso   1.00
C913   C     0.71653   0.09505   0.79880   0.00000  Uiso   1.00
H914   H     0.74120   0.10545   0.82220   0.00000  Uiso   1.00
O915   O     0.71145   0.05382   0.79297   0.00000  Uiso   1.00
C916   C     0.95014   0.23829   0.70121   0.00000  Uiso   1.00
H917   H     0.92549   0.22790   0.67779   0.00000  Uiso   1.00
O918   O     0.95519   0.27952   0.70708   0.00000  Uiso   1.00
C919   C     0.96338   0.08720   0.78814   0.00000  Uiso   1.00
H920   H     0.94496   0.06475   0.76675   0.00000  Uiso   1.00
O921   O     0.96968   0.07765   0.82785   0.00000  Uiso   1.00
C922   C     0.70328   0.24617   0.71195   0.00000  Uiso   1.00
H923   H     0.72172   0.26858   0.73337   0.00000  Uiso   1.00
O924   O     0.69697   0.25579   0.67226   0.00000  Uiso   1.00
C925   C     0.77268   0.05122   0.69550   0.00000  Uiso   1.00
H926   H     0.77649   0.08397   0.67956   0.00000  Uiso   1.00
O927   O     0.73857   0.03550   0.69280   0.00000  Uiso   1.00
C928   C     0.89401   0.28212   0.80449   0.00000  Uiso   1.00
H929   H     0.89023   0.24929   0.82033   0.00000  Uiso   1.00
O930   O     0.92809   0.29792   0.80730   0.00000  Uiso   1.00
C931   C     0.87854   0.04643   0.81962   0.00000  Uiso   1.00
H932   H     0.89126   0.07983   0.81616   0.00000  Uiso   1.00
O933   O     0.88066   0.02848   0.85678   0.00000  Uiso   1.00
C934   C     0.78810   0.28690   0.68040   0.00000  Uiso   1.00
H935   H     0.77539   0.25349   0.68386   0.00000  Uiso   1.00
O936   O     0.78594   0.30486   0.64323   0.00000  Uiso   1.00
O937   O     0.10655   0.53958   0.75000   0.00000  Uiso   1.00
O938   O     0.22679   0.46042   0.75001   0.00000  Uiso   1.00
O939   O     0.22679   0.53958   0.75001   0.00000  Uiso   1.00
O940   O     0.10655   0.46042   0.75000   0.00000  Uiso   1.00
C941   C     0.08752   0.50076   0.75076   0.00000  Uiso   1.00
C942   C     0.24581   0.49924   0.74924   0.00000  Uiso   1.00
O943   O     0.16666   0.53960   0.68513   0.00000  Uiso   1.00
O944   O     0.16668   0.46040   0.81487   0.00000  Uiso   1.00
O945   O     0.16668   0.53960   0.81487   0.00000  Uiso   1.00
O946   O     0.16666   0.46040   0.68513   0.00000  Uiso   1.00
C947   C     0.16577   0.50027   0.66455   0.00000  Uiso   1.00
C948   C     0.16756   0.49973   0.83545   0.00000  Uiso   1.00
Cu949  Cu    0.16667   0.54689   0.75000   0.00000  Uiso   1.00
Cu950  Cu    0.16667   0.45311   0.75000   0.00000  Uiso   1.00
C951   C     0.20480   0.50858   0.91012   0.00000  Uiso   1.00
C952   C     0.12854   0.49142   0.58988   0.00000  Uiso   1.00
C953   C     0.16873   0.49908   0.88380   0.00000  Uiso   1.00
C954   C     0.16461   0.50092   0.61621   0.00000  Uiso   1.00
C955   C     0.13257   0.49074   0.90333   0.00000  Uiso   1.00
C956   C     0.20077   0.50925   0.59667   0.00000  Uiso   1.00
C957   C     0.13142   0.49163   0.94947   0.00000  Uiso   1.00
C958   C     0.20193   0.50835   0.55053   0.00000  Uiso   1.00
C959   C     0.16728   0.49997   0.97661   0.00000  Uiso   1.00
C960   C     0.16607   0.50002   0.52339   0.00000  Uiso   1.00
C961   C     0.20428   0.50817   0.95707   0.00000  Uiso   1.00
C962   C     0.12906   0.49182   0.54293   0.00000  Uiso   1.00
C963   C     0.09476   0.48465   0.96878   0.00000  Uiso   1.00
C964   C     0.23858   0.51531   0.53122   0.00000  Uiso   1.00
C965   C     0.09346   0.48517   0.51494   0.00000  Uiso   1.00
C966   C     0.23989   0.51480   0.98506   0.00000  Uiso   1.00
H967   H     0.10503   0.48451   0.88234   0.00000  Uiso   1.00
H968   H     0.22831   0.51547   0.61766   0.00000  Uiso   1.00
H969   H     0.06693   0.47902   0.94810   0.00000  Uiso   1.00
H970   H     0.26642   0.52093   0.55191   0.00000  Uiso   1.00
H971   H     0.06422   0.48077   0.52823   0.00000  Uiso   1.00
H972   H     0.26914   0.51917   0.97177   0.00000  Uiso   1.00
C973   C     0.02434   0.46435   0.77255   0.00000  Uiso   1.00
C974   C     0.30900   0.53565   0.72746   0.00000  Uiso   1.00
C975   C     0.31503   0.46157   0.76880   0.00000  Uiso   1.00
C976   C     0.01830   0.53844   0.73123   0.00000  Uiso   1.00
C977   C     0.29053   0.49788   0.74737   0.00000  Uiso   1.00
C978   C     0.04281   0.50213   0.75264   0.00000  Uiso   1.00
C979   C     0.14028   0.35928   0.72112   0.00000  Uiso   1.00
C980   C     0.19306   0.64072   0.77887   0.00000  Uiso   1.00
C981   C     0.19097   0.35680   0.78089   0.00000  Uiso   1.00
C982   C     0.14236   0.64320   0.71911   0.00000  Uiso   1.00
N983   N     0.16667   0.61736   0.75000   0.00000  Uiso   1.00
N984   N     0.16667   0.38264   0.75000   0.00000  Uiso   1.00
N985   N     0.24136   0.51892   0.88922   0.00000  Uiso   1.00
O986   O     0.25456   0.49180   0.85892   0.00000  Uiso   1.00
O987   O     0.26002   0.55714   0.89822   0.00000  Uiso   1.00
N988   N     0.09198   0.48109   0.61078   0.00000  Uiso   1.00
O989   O     0.07871   0.50829   0.64096   0.00000  Uiso   1.00
O990   O     0.07335   0.44283   0.60184   0.00000  Uiso   1.00
C991   C     0.04987   0.42838   0.79880   0.00000  Uiso   1.00
H992   H     0.07454   0.43878   0.82220   0.00000  Uiso   1.00
O993   O     0.04479   0.38715   0.79297   0.00000  Uiso   1.00
C994   C     0.28347   0.57163   0.70121   0.00000  Uiso   1.00
H995   H     0.25882   0.56123   0.67779   0.00000  Uiso   1.00
O996   O     0.28852   0.61285   0.70708   0.00000  Uiso   1.00
C997   C     0.29672   0.42054   0.78814   0.00000  Uiso   1.00
H998   H     0.27829   0.39808   0.76675   0.00000  Uiso   1.00
O999   O     0.30302   0.41099   0.82785   0.00000  Uiso   1.00
C1000  C     0.03662   0.57950   0.71195   0.00000  Uiso   1.00
H1001  H     0.05506   0.60191   0.73337   0.00000  Uiso   1.00
O1002  O     0.03031   0.58912   0.67226   0.00000  Uiso   1.00
C1003  C     0.10601   0.38455   0.69550   0.00000  Uiso   1.00
H1004  H     0.10982   0.41730   0.67956   0.00000  Uiso   1.00
O1005  O     0.07191   0.36883   0.69280   0.00000  Uiso   1.00
C1006  C     0.22734   0.61545   0.80449   0.00000  Uiso   1.00
H1007  H     0.22356   0.58262   0.82033   0.00000  Uiso   1.00
O1008  O     0.26142   0.63126   0.80730   0.00000  Uiso   1.00
C1009  C     0.21187   0.37976   0.81962   0.00000  Uiso   1.00
H1010  H     0.22460   0.41317   0.81616   0.00000  Uiso   1.00
O1011  O     0.21400   0.36181   0.85678   0.00000  Uiso   1.00
C1012  C     0.12144   0.62024   0.68040   0.00000  Uiso   1.00
H1013  H     0.10873   0.58682   0.68386   0.00000  Uiso   1.00
O1014  O     0.11927   0.63820   0.64323   0.00000  Uiso   1.00
O1015  O     0.43988   0.53958   0.75000   0.00000  Uiso   1.00
O1016  O     0.56012   0.46042   0.75001   0.00000  Uiso   1.00
O1017  O     0.56012   0.53958   0.75001   0.00000  Uiso   1.00
O1018  O     0.43988   0.46042   0.75000   0.00000  Uiso   1.00
C1019  C     0.42085   0.50076   0.75076   0.00000  Uiso   1.00
C1020  C     0.57915   0.49924   0.74924   0.00000  Uiso   1.00
O1021  O     0.49999   0.53960   0.68513   0.00000  Uiso   1.00
O1022  O     0.50001   0.46040   0.81487   0.00000  Uiso   1.00
O1023  O     0.50001   0.53960   0.81487   0.00000  Uiso   1.00
O1024  O     0.49999   0.46040   0.68513   0.00000  Uiso   1.00
C1025  C     0.49911   0.50027   0.66455   0.00000  Uiso   1.00
C1026  C     0.50089   0.49973   0.83545   0.00000  Uiso   1.00
Cu1027 Cu    0.50000   0.54689   0.75000   0.00000  Uiso   1.00
Cu1028 Cu    0.50000   0.45311   0.75000   0.00000  Uiso   1.00
C1029  C     0.53813   0.50858   0.91012   0.00000  Uiso   1.00
C1030  C     0.46188   0.49142   0.58988   0.00000  Uiso   1.00
C1031  C     0.50206   0.49908   0.88380   0.00000  Uiso   1.00
C1032  C     0.49794   0.50092   0.61621   0.00000  Uiso   1.00
C1033  C     0.46590   0.49074   0.90333   0.00000  Uiso   1.00
C1034  C     0.53411   0.50925   0.59667   0.00000  Uiso   1.00
C1035  C     0.46475   0.49163   0.94947   0.00000  Uiso   1.00
C1036  C     0.53526   0.50835   0.55053   0.00000  Uiso   1.00
C1037  C     0.50061   0.49997   0.97661   0.00000  Uiso   1.00
C1038  C     0.49940   0.50002   0.52339   0.00000  Uiso   1.00
C1039  C     0.53762   0.50817   0.95707   0.00000  Uiso   1.00
C1040  C     0.46239   0.49182   0.54293   0.00000  Uiso   1.00
C1041  C     0.42810   0.48465   0.96878   0.00000  Uiso   1.00
C1042  C     0.57192   0.51531   0.53122   0.00000  Uiso   1.00
C1043  C     0.42679   0.48517   0.51494   0.00000  Uiso   1.00
C1044  C     0.57323   0.51480   0.98506   0.00000  Uiso   1.00
H1045  H     0.43836   0.48451   0.88234   0.00000  Uiso   1.00
H1046  H     0.56165   0.51547   0.61766   0.00000  Uiso   1.00
H1047  H     0.40026   0.47902   0.94810   0.00000  Uiso   1.00
H1048  H     0.59976   0.52093   0.55191   0.00000  Uiso   1.00
H1049  H     0.39755   0.48077   0.52823   0.00000  Uiso   1.00
H1050  H     0.60247   0.51917   0.97177   0.00000  Uiso   1.00
C1051  C     0.35767   0.46435   0.77255   0.00000  Uiso   1.00
C1052  C     0.64233   0.53565   0.72746   0.00000  Uiso   1.00
C1053  C     0.64836   0.46157   0.76880   0.00000  Uiso   1.00
C1054  C     0.35164   0.53844   0.73123   0.00000  Uiso   1.00
C1055  C     0.62386   0.49788   0.74737   0.00000  Uiso   1.00
C1056  C     0.37614   0.50213   0.75264   0.00000  Uiso   1.00
C1057  C     0.47361   0.35928   0.72112   0.00000  Uiso   1.00
C1058  C     0.52639   0.64072   0.77887   0.00000  Uiso   1.00
C1059  C     0.52431   0.35680   0.78089   0.00000  Uiso   1.00
C1060  C     0.47569   0.64320   0.71911   0.00000  Uiso   1.00
N1061  N     0.50000   0.61736   0.75000   0.00000  Uiso   1.00
N1062  N     0.50000   0.38264   0.75000   0.00000  Uiso   1.00
N1063  N     0.57470   0.51892   0.88922   0.00000  Uiso   1.00
O1064  O     0.58789   0.49180   0.85892   0.00000  Uiso   1.00
O1065  O     0.59335   0.55714   0.89822   0.00000  Uiso   1.00
N1066  N     0.42531   0.48109   0.61078   0.00000  Uiso   1.00
O1067  O     0.41204   0.50829   0.64096   0.00000  Uiso   1.00
O1068  O     0.40669   0.44283   0.60184   0.00000  Uiso   1.00
C1069  C     0.38320   0.42838   0.79880   0.00000  Uiso   1.00
H1070  H     0.40787   0.43878   0.82220   0.00000  Uiso   1.00
O1071  O     0.37812   0.38715   0.79297   0.00000  Uiso   1.00
C1072  C     0.61680   0.57163   0.70121   0.00000  Uiso   1.00
H1073  H     0.59215   0.56123   0.67779   0.00000  Uiso   1.00
O1074  O     0.62185   0.61285   0.70708   0.00000  Uiso   1.00
C1075  C     0.63005   0.42054   0.78814   0.00000  Uiso   1.00
H1076  H     0.61162   0.39808   0.76675   0.00000  Uiso   1.00
O1077  O     0.63635   0.41099   0.82785   0.00000  Uiso   1.00
C1078  C     0.36995   0.57950   0.71195   0.00000  Uiso   1.00
H1079  H     0.38839   0.60191   0.73337   0.00000  Uiso   1.00
O1080  O     0.36364   0.58912   0.67226   0.00000  Uiso   1.00
C1081  C     0.43934   0.38455   0.69550   0.00000  Uiso   1.00
H1082  H     0.44315   0.41730   0.67956   0.00000  Uiso   1.00
O1083  O     0.40524   0.36883   0.69280   0.00000  Uiso   1.00
C1084  C     0.56067   0.61545   0.80449   0.00000  Uiso   1.00
H1085  H     0.55690   0.58262   0.82033   0.00000  Uiso   1.00
O1086  O     0.59475   0.63126   0.80730   0.00000  Uiso   1.00
C1087  C     0.54521   0.37976   0.81962   0.00000  Uiso   1.00
H1088  H     0.55793   0.41317   0.81616   0.00000  Uiso   1.00
O1089  O     0.54733   0.36181   0.85678   0.00000  Uiso   1.00
C1090  C     0.45477   0.62024   0.68040   0.00000  Uiso   1.00
H1091  H     0.44206   0.58682   0.68386   0.00000  Uiso   1.00
O1092  O     0.45260   0.63820   0.64323   0.00000  Uiso   1.00
O1093  O     0.77321   0.53958   0.75000   0.00000  Uiso   1.00
O1094  O     0.89345   0.46042   0.75001   0.00000  Uiso   1.00
O1095  O     0.89345   0.53958   0.75001   0.00000  Uiso   1.00
O1096  O     0.77321   0.46042   0.75000   0.00000  Uiso   1.00
C1097  C     0.75419   0.50076   0.75076   0.00000  Uiso   1.00
C1098  C     0.91248   0.49924   0.74924   0.00000  Uiso   1.00
O1099  O     0.83332   0.53960   0.68513   0.00000  Uiso   1.00
O1100  O     0.83334   0.46040   0.81487   0.00000  Uiso   1.00
O1101  O     0.83334   0.53960   0.81487   0.00000  Uiso   1.00
O1102  O     0.83332   0.46040   0.68513   0.00000  Uiso   1.00
C1103  C     0.83244   0.50027   0.66455   0.00000  Uiso   1.00
C1104  C     0.83423   0.49973   0.83545   0.00000  Uiso   1.00
Cu1105 Cu    0.83333   0.54689   0.75000   0.00000  Uiso   1.00
Cu1106 Cu    0.83333   0.45311   0.75000   0.00000  Uiso   1.00
C1107  C     0.87147   0.50858   0.91012   0.00000  Uiso   1.00
C1108  C     0.79521   0.49142   0.58988   0.00000  Uiso   1.00
C1109  C     0.83540   0.49908   0.88380   0.00000  Uiso   1.00
C1110  C     0.83127   0.50092   0.61621   0.00000  Uiso   1.00
C1111  C     0.79924   0.49074   0.90333   0.00000  Uiso   1.00
C1112  C     0.86744   0.50925   0.59667   0.00000  Uiso   1.00
C1113  C     0.79809   0.49163   0.94947   0.00000  Uiso   1.00
C1114  C     0.86859   0.50835   0.55053   0.00000  Uiso   1.00
C1115  C     0.83394   0.49997   0.97661   0.00000  Uiso   1.00
C1116  C     0.83274   0.50002   0.52339   0.00000  Uiso   1.00
C1117  C     0.87095   0.50817   0.95707   0.00000  Uiso   1.00
C1118  C     0.79573   0.49182   0.54293   0.00000  Uiso   1.00
C1119  C     0.76143   0.48465   0.96878   0.00000  Uiso   1.00
C1120  C     0.90525   0.51531   0.53122   0.00000  Uiso   1.00
C1121  C     0.76012   0.48517   0.51494   0.00000  Uiso   1.00
C1122  C     0.90656   0.51480   0.98506   0.00000  Uiso   1.00
H1123  H     0.77170   0.48451   0.88234   0.00000  Uiso   1.00
H1124  H     0.89498   0.51547   0.61766   0.00000  Uiso   1.00
H1125  H     0.73360   0.47902   0.94810   0.00000  Uiso   1.00
H1126  H     0.93309   0.52093   0.55191   0.00000  Uiso   1.00
H1127  H     0.73088   0.48077   0.52823   0.00000  Uiso   1.00
H1128  H     0.93580   0.51917   0.97177   0.00000  Uiso   1.00
C1129  C     0.69100   0.46435   0.77255   0.00000  Uiso   1.00
C1130  C     0.97567   0.53565   0.72746   0.00000  Uiso   1.00
C1131  C     0.98170   0.46157   0.76880   0.00000  Uiso   1.00
C1132  C     0.68497   0.53844   0.73123   0.00000  Uiso   1.00
C1133  C     0.95719   0.49788   0.74737   0.00000  Uiso   1.00
C1134  C     0.70947   0.50213   0.75264   0.00000  Uiso   1.00
C1135  C     0.80694   0.35928   0.72112   0.00000  Uiso   1.00
C1136  C     0.85973   0.64072   0.77887   0.00000  Uiso   1.00
C1137  C     0.85764   0.35680   0.78089   0.00000  Uiso   1.00
C1138  C     0.80902   0.64320   0.71911   0.00000  Uiso   1.00
N1139  N     0.83333   0.61736   0.75000   0.00000  Uiso   1.00
N1140  N     0.83333   0.38264   0.75000   0.00000  Uiso   1.00
N1141  N     0.90803   0.51892   0.88922   0.00000  Uiso   1.00
O1142  O     0.92123   0.49180   0.85892   0.00000  Uiso   1.00
O1143  O     0.92669   0.55714   0.89822   0.00000  Uiso   1.00
N1144  N     0.75864   0.48109   0.61078   0.00000  Uiso   1.00
O1145  O     0.74538   0.50829   0.64096   0.00000  Uiso   1.00
O1146  O     0.74002   0.44283   0.60184   0.00000  Uiso   1.00
C1147  C     0.71653   0.42838   0.79880   0.00000  Uiso   1.00
H1148  H     0.74120   0.43878   0.82220   0.00000  Uiso   1.00
O1149  O     0.71145   0.38715   0.79297   0.00000  Uiso   1.00
C1150  C     0.95014   0.57163   0.70121   0.00000  Uiso   1.00
H1151  H     0.92549   0.56123   0.67779   0.00000  Uiso   1.00
O1152  O     0.95519   0.61285   0.70708   0.00000  Uiso   1.00
C1153  C     0.96338   0.42054   0.78814   0.00000  Uiso   1.00
H1154  H     0.94496   0.39808   0.76675   0.00000  Uiso   1.00
O1155  O     0.96968   0.41099   0.82785   0.00000  Uiso   1.00
C1156  C     0.70328   0.57950   0.71195   0.00000  Uiso   1.00
H1157  H     0.72172   0.60191   0.73337   0.00000  Uiso   1.00
O1158  O     0.69697   0.58912   0.67226   0.00000  Uiso   1.00
C1159  C     0.77268   0.38455   0.69550   0.00000  Uiso   1.00
H1160  H     0.77649   0.41730   0.67956   0.00000  Uiso   1.00
O1161  O     0.73857   0.36883   0.69280   0.00000  Uiso   1.00
C1162  C     0.89401   0.61545   0.80449   0.00000  Uiso   1.00
H1163  H     0.89023   0.58262   0.82033   0.00000  Uiso   1.00
O1164  O     0.92809   0.63126   0.80730   0.00000  Uiso   1.00
C1165  C     0.87854   0.37976   0.81962   0.00000  Uiso   1.00
H1166  H     0.89126   0.41317   0.81616   0.00000  Uiso   1.00
O1167  O     0.88066   0.36181   0.85678   0.00000  Uiso   1.00
C1168  C     0.78810   0.62024   0.68040   0.00000  Uiso   1.00
H1169  H     0.77539   0.58682   0.68386   0.00000  Uiso   1.00
O1170  O     0.78594   0.63820   0.64323   0.00000  Uiso   1.00
O1171  O     0.10655   0.87291   0.75000   0.00000  Uiso   1.00
O1172  O     0.22679   0.79375   0.75001   0.00000  Uiso   1.00
O1173  O     0.22679   0.87291   0.75001   0.00000  Uiso   1.00
O1174  O     0.10655   0.79375   0.75000   0.00000  Uiso   1.00
C1175  C     0.08752   0.83409   0.75076   0.00000  Uiso   1.00
C1176  C     0.24581   0.83257   0.74924   0.00000  Uiso   1.00
O1177  O     0.16666   0.87293   0.68513   0.00000  Uiso   1.00
O1178  O     0.16668   0.79373   0.81487   0.00000  Uiso   1.00
O1179  O     0.16668   0.87293   0.81487   0.00000  Uiso   1.00
O1180  O     0.16666   0.79373   0.68513   0.00000  Uiso   1.00
C1181  C     0.16577   0.83361   0.66455   0.00000  Uiso   1.00
C1182  C     0.16756   0.83306   0.83545   0.00000  Uiso   1.00
Cu1183 Cu    0.16667   0.88022   0.75000   0.00000  Uiso   1.00
Cu1184 Cu    0.16667   0.78645   0.75000   0.00000  Uiso   1.00
C1185  C     0.20480   0.84191   0.91012   0.00000  Uiso   1.00
C1186  C     0.12854   0.82475   0.58988   0.00000  Uiso   1.00
C1187  C     0.16873   0.83242   0.88380   0.00000  Uiso   1.00
C1188  C     0.16461   0.83425   0.61621   0.00000  Uiso   1.00
C1189  C     0.13257   0.82407   0.90333   0.00000  Uiso   1.00
C1190  C     0.20077   0.84258   0.59667   0.00000  Uiso   1.00
C1191  C     0.13142   0.82496   0.94947   0.00000  Uiso   1.00
C1192  C     0.20193   0.84169   0.55053   0.00000  Uiso   1.00
C1193  C     0.16728   0.83330   0.97661   0.00000  Uiso   1.00
C1194  C     0.16607   0.83335   0.52339   0.00000  Uiso   1.00
C1195  C     0.20428   0.84150   0.95707   0.00000  Uiso   1.00
C1196  C     0.12906   0.82515   0.54293   0.00000  Uiso   1.00
C1197  C     0.09476   0.81798   0.96878   0.00000  Uiso   1.00
C1198  C     0.23858   0.84865   0.53122   0.00000  Uiso   1.00
C1199  C     0.09346   0.81850   0.51494   0.00000  Uiso   1.00
C1200  C     0.23989   0.84813   0.98506   0.00000  Uiso   1.00
H1201  H     0.10503   0.81784   0.88234   0.00000  Uiso   1.00
H1202  H     0.22831   0.84881   0.61766   0.00000  Uiso   1.00
H1203  H     0.06693   0.81235   0.94810   0.00000  Uiso   1.00
H1204  H     0.26642   0.85426   0.55191   0.00000  Uiso   1.00
H1205  H     0.06422   0.81411   0.52823   0.00000  Uiso   1.00
H1206  H     0.26914   0.85250   0.97177   0.00000  Uiso   1.00
C1207  C     0.02434   0.79769   0.77255   0.00000  Uiso   1.00
C1208  C     0.30900   0.86898   0.72746   0.00000  Uiso   1.00
C1209  C     0.31503   0.79490   0.76880   0.00000  Uiso   1.00
C1210  C     0.01830   0.87178   0.73123   0.00000  Uiso   1.00
C1211  C     0.29053   0.83121   0.74737   0.00000  Uiso   1.00
C1212  C     0.04281   0.83546   0.75264   0.00000  Uiso   1.00
C1213  C     0.14028   0.69261   0.72112   0.00000  Uiso   1.00
C1214  C     0.19306   0.97405   0.77887   0.00000  Uiso   1.00
C1215  C     0.19097   0.69013   0.78089   0.00000  Uiso   1.00
C1216  C     0.14236   0.97653   0.71911   0.00000  Uiso   1.00
N1217  N     0.16667   0.95069   0.75000   0.00000  Uiso   1.00
N1218  N     0.16667   0.71598   0.75000   0.00000  Uiso   1.00
N1219  N     0.24136   0.85225   0.88922   0.00000  Uiso   1.00
O1220  O     0.25456   0.82513   0.85892   0.00000  Uiso   1.00
O1221  O     0.26002   0.89047   0.89822   0.00000  Uiso   1.00
N1222  N     0.09198   0.81442   0.61078   0.00000  Uiso   1.00
O1223  O     0.07871   0.84163   0.64096   0.00000  Uiso   1.00
O1224  O     0.07335   0.77617   0.60184   0.00000  Uiso   1.00
C1225  C     0.04987   0.76171   0.79880   0.00000  Uiso   1.00
H1226  H     0.07454   0.77211   0.82220   0.00000  Uiso   1.00
O1227  O     0.04479   0.72049   0.79297   0.00000  Uiso   1.00
C1228  C     0.28347   0.90496   0.70121   0.00000  Uiso   1.00
H1229  H     0.25882   0.89456   0.67779   0.00000  Uiso   1.00
O1230  O     0.28852   0.94618   0.70708   0.00000  Uiso   1.00
C1231  C     0.29672   0.75387   0.78814   0.00000  Uiso   1.00
H1232  H     0.27829   0.73141   0.76675   0.00000  Uiso   1.00
O1233  O     0.30302   0.74432   0.82785   0.00000  Uiso   1.00
C1234  C     0.03662   0.91283   0.71195   0.00000  Uiso   1.00
H1235  H     0.05506   0.93525   0.73337   0.00000  Uiso   1.00
O1236  O     0.03031   0.92246   0.67226   0.00000  Uiso   1.00
C1237  C     0.10601   0.71789   0.69550   0.00000  Uiso   1.00
H1238  H     0.10982   0.75063   0.67956   0.00000  Uiso   1.00
O1239  O     0.07191   0.70217   0.69280   0.00000  Uiso   1.00
C1240  C     0.22734   0.94878   0.80449   0.00000  Uiso   1.00
H1241  H     0.22356   0.91596   0.82033   0.00000  Uiso   1.00
O1242  O     0.26142   0.96459   0.80730   0.00000  Uiso   1.00
C1243  C     0.21187   0.71310   0.81962   0.00000  Uiso   1.00
H1244  H     0.22460   0.74650   0.81616   0.00000  Uiso   1.00
O1245  O     0.21400   0.69514   0.85678   0.00000  Uiso   1.00
C1246  C     0.12144   0.95357   0.68040   0.00000  Uiso   1.00
H1247  H     0.10873   0.92016   0.68386   0.00000  Uiso   1.00
O1248  O     0.11927   0.97153   0.64323   0.00000  Uiso   1.00
O1249  O     0.43988   0.87291   0.75000   0.00000  Uiso   1.00
O1250  O     0.56012   0.79375   0.75001   0.00000  Uiso   1.00
O1251  O     0.56012   0.87291   0.75001   0.00000  Uiso   1.00
O1252  O     0.43988   0.79375   0.75000   0.00000  Uiso   1.00
C1253  C     0.42085   0.83409   0.75076   0.00000  Uiso   1.00
C1254  C     0.57915   0.83257   0.74924   0.00000  Uiso   1.00
O1255  O     0.49999   0.87293   0.68513   0.00000  Uiso   1.00
O1256  O     0.50001   0.79373   0.81487   0.00000  Uiso   1.00
O1257  O     0.50001   0.87293   0.81487   0.00000  Uiso   1.00
O1258  O     0.49999   0.79373   0.68513   0.00000  Uiso   1.00
C1259  C     0.49911   0.83361   0.66455   0.00000  Uiso   1.00
C1260  C     0.50089   0.83306   0.83545   0.00000  Uiso   1.00
Cu1261 Cu    0.50000   0.88022   0.75000   0.00000  Uiso   1.00
Cu1262 Cu    0.50000   0.78645   0.75000   0.00000  Uiso   1.00
C1263  C     0.53813   0.84191   0.91012   0.00000  Uiso   1.00
C1264  C     0.46188   0.82475   0.58988   0.00000  Uiso   1.00
C1265  C     0.50206   0.83242   0.88380   0.00000  Uiso   1.00
C1266  C     0.49794   0.83425   0.61621   0.00000  Uiso   1.00
C1267  C     0.46590   0.82407   0.90333   0.00000  Uiso   1.00
C1268  C     0.53411   0.84258   0.59667   0.00000  Uiso   1.00
C1269  C     0.46475   0.82496   0.94947   0.00000  Uiso   1.00
C1270  C     0.53526   0.84169   0.55053   0.00000  Uiso   1.00
C1271  C     0.50061   0.83330   0.97661   0.00000  Uiso   1.00
C1272  C     0.49940   0.83335   0.52339   0.00000  Uiso   1.00
C1273  C     0.53762   0.84150   0.95707   0.00000  Uiso   1.00
C1274  C     0.46239   0.82515   0.54293   0.00000  Uiso   1.00
C1275  C     0.42810   0.81798   0.96878   0.00000  Uiso   1.00
C1276  C     0.57192   0.84865   0.53122   0.00000  Uiso   1.00
C1277  C     0.42679   0.81850   0.51494   0.00000  Uiso   1.00
C1278  C     0.57323   0.84813   0.98506   0.00000  Uiso   1.00
H1279  H     0.43836   0.81784   0.88234   0.00000  Uiso   1.00
H1280  H     0.56165   0.84881   0.61766   0.00000  Uiso   1.00
H1281  H     0.40026   0.81235   0.94810   0.00000  Uiso   1.00
H1282  H     0.59976   0.85426   0.55191   0.00000  Uiso   1.00
H1283  H     0.39755   0.81411   0.52823   0.00000  Uiso   1.00
H1284  H     0.60247   0.85250   0.97177   0.00000  Uiso   1.00
C1285  C     0.35767   0.79769   0.77255   0.00000  Uiso   1.00
C1286  C     0.64233   0.86898   0.72746   0.00000  Uiso   1.00
C1287  C     0.64836   0.79490   0.76880   0.00000  Uiso   1.00
C1288  C     0.35164   0.87178   0.73123   0.00000  Uiso   1.00
C1289  C     0.62386   0.83121   0.74737   0.00000  Uiso   1.00
C1290  C     0.37614   0.83546   0.75264   0.00000  Uiso   1.00
C1291  C     0.47361   0.69261   0.72112   0.00000  Uiso   1.00
C1292  C     0.52639   0.97405   0.77887   0.00000  Uiso   1.00
C1293  C     0.52431   0.69013   0.78089   0.00000  Uiso   1.00
C1294  C     0.47569   0.97653   0.71911   0.00000  Uiso   1.00
N1295  N     0.50000   0.95069   0.75000   0.00000  Uiso   1.00
N1296  N     0.50000   0.71598   0.75000   0.00000  Uiso   1.00
N1297  N     0.57470   0.85225   0.88922   0.00000  Uiso   1.00
O1298  O     0.58789   0.82513   0.85892   0.00000  Uiso   1.00
O1299  O     0.59335   0.89047   0.89822   0.00000  Uiso   1.00
N1300  N     0.42531   0.81442   0.61078   0.00000  Uiso   1.00
O1301  O     0.41204   0.84163   0.64096   0.00000  Uiso   1.00
O1302  O     0.40669   0.77617   0.60184   0.00000  Uiso   1.00
C1303  C     0.38320   0.76171   0.79880   0.00000  Uiso   1.00
H1304  H     0.40787   0.77211   0.82220   0.00000  Uiso   1.00
O1305  O     0.37812   0.72049   0.79297   0.00000  Uiso   1.00
C1306  C     0.61680   0.90496   0.70121   0.00000  Uiso   1.00
H1307  H     0.59215   0.89456   0.67779   0.00000  Uiso   1.00
O1308  O     0.62185   0.94618   0.70708   0.00000  Uiso   1.00
C1309  C     0.63005   0.75387   0.78814   0.00000  Uiso   1.00
H1310  H     0.61162   0.73141   0.76675   0.00000  Uiso   1.00
O1311  O     0.63635   0.74432   0.82785   0.00000  Uiso   1.00
C1312  C     0.36995   0.91283   0.71195   0.00000  Uiso   1.00
H1313  H     0.38839   0.93525   0.73337   0.00000  Uiso   1.00
O1314  O     0.36364   0.92246   0.67226   0.00000  Uiso   1.00
C1315  C     0.43934   0.71789   0.69550   0.00000  Uiso   1.00
H1316  H     0.44315   0.75063   0.67956   0.00000  Uiso   1.00
O1317  O     0.40524   0.70217   0.69280   0.00000  Uiso   1.00
C1318  C     0.56067   0.94878   0.80449   0.00000  Uiso   1.00
H1319  H     0.55690   0.91596   0.82033   0.00000  Uiso   1.00
O1320  O     0.59475   0.96459   0.80730   0.00000  Uiso   1.00
C1321  C     0.54521   0.71310   0.81962   0.00000  Uiso   1.00
H1322  H     0.55793   0.74650   0.81616   0.00000  Uiso   1.00
O1323  O     0.54733   0.69514   0.85678   0.00000  Uiso   1.00
C1324  C     0.45477   0.95357   0.68040   0.00000  Uiso   1.00
H1325  H     0.44206   0.92016   0.68386   0.00000  Uiso   1.00
O1326  O     0.45260   0.97153   0.64323   0.00000  Uiso   1.00
O1327  O     0.77321   0.87291   0.75000   0.00000  Uiso   1.00
O1328  O     0.89345   0.79375   0.75001   0.00000  Uiso   1.00
O1329  O     0.89345   0.87291   0.75001   0.00000  Uiso   1.00
O1330  O     0.77321   0.79375   0.75000   0.00000  Uiso   1.00
C1331  C     0.75419   0.83409   0.75076   0.00000  Uiso   1.00
C1332  C     0.91248   0.83257   0.74924   0.00000  Uiso   1.00
O1333  O     0.83332   0.87293   0.68513   0.00000  Uiso   1.00
O1334  O     0.83334   0.79373   0.81487   0.00000  Uiso   1.00
O1335  O     0.83334   0.87293   0.81487   0.00000  Uiso   1.00
O1336  O     0.83332   0.79373   0.68513   0.00000  Uiso   1.00
C1337  C     0.83244   0.83361   0.66455   0.00000  Uiso   1.00
C1338  C     0.83423   0.83306   0.83545   0.00000  Uiso   1.00
Cu1339 Cu    0.83333   0.88022   0.75000   0.00000  Uiso   1.00
Cu1340 Cu    0.83333   0.78645   0.75000   0.00000  Uiso   1.00
C1341  C     0.87147   0.84191   0.91012   0.00000  Uiso   1.00
C1342  C     0.79521   0.82475   0.58988   0.00000  Uiso   1.00
C1343  C     0.83540   0.83242   0.88380   0.00000  Uiso   1.00
C1344  C     0.83127   0.83425   0.61621   0.00000  Uiso   1.00
C1345  C     0.79924   0.82407   0.90333   0.00000  Uiso   1.00
C1346  C     0.86744   0.84258   0.59667   0.00000  Uiso   1.00
C1347  C     0.79809   0.82496   0.94947   0.00000  Uiso   1.00
C1348  C     0.86859   0.84169   0.55053   0.00000  Uiso   1.00
C1349  C     0.83394   0.83330   0.97661   0.00000  Uiso   1.00
C1350  C     0.83274   0.83335   0.52339   0.00000  Uiso   1.00
C1351  C     0.87095   0.84150   0.95707   0.00000  Uiso   1.00
C1352  C     0.79573   0.82515   0.54293   0.00000  Uiso   1.00
C1353  C     0.76143   0.81798   0.96878   0.00000  Uiso   1.00
C1354  C     0.90525   0.84865   0.53122   0.00000  Uiso   1.00
C1355  C     0.76012   0.81850   0.51494   0.00000  Uiso   1.00
C1356  C     0.90656   0.84813   0.98506   0.00000  Uiso   1.00
H1357  H     0.77170   0.81784   0.88234   0.00000  Uiso   1.00
H1358  H     0.89498   0.84881   0.61766   0.00000  Uiso   1.00
H1359  H     0.73360   0.81235   0.94810   0.00000  Uiso   1.00
H1360  H     0.93309   0.85426   0.55191   0.00000  Uiso   1.00
H1361  H     0.73088   0.81411   0.52823   0.00000  Uiso   1.00
H1362  H     0.93580   0.85250   0.97177   0.00000  Uiso   1.00
C1363  C     0.69100   0.79769   0.77255   0.00000  Uiso   1.00
C1364  C     0.97567   0.86898   0.72746   0.00000  Uiso   1.00
C1365  C     0.98170   0.79490   0.76880   0.00000  Uiso   1.00
C1366  C     0.68497   0.87178   0.73123   0.00000  Uiso   1.00
C1367  C     0.95719   0.83121   0.74737   0.00000  Uiso   1.00
C1368  C     0.70947   0.83546   0.75264   0.00000  Uiso   1.00
C1369  C     0.80694   0.69261   0.72112   0.00000  Uiso   1.00
C1370  C     0.85973   0.97405   0.77887   0.00000  Uiso   1.00
C1371  C     0.85764   0.69013   0.78089   0.00000  Uiso   1.00
C1372  C     0.80902   0.97653   0.71911   0.00000  Uiso   1.00
N1373  N     0.83333   0.95069   0.75000   0.00000  Uiso   1.00
N1374  N     0.83333   0.71598   0.75000   0.00000  Uiso   1.00
N1375  N     0.90803   0.85225   0.88922   0.00000  Uiso   1.00
O1376  O     0.92123   0.82513   0.85892   0.00000  Uiso   1.00
O1377  O     0.92669   0.89047   0.89822   0.00000  Uiso   1.00
N1378  N     0.75864   0.81442   0.61078   0.00000  Uiso   1.00
O1379  O     0.74538   0.84163   0.64096   0.00000  Uiso   1.00
O1380  O     0.74002   0.77617   0.60184   0.00000  Uiso   1.00
C1381  C     0.71653   0.76171   0.79880   0.00000  Uiso   1.00
H1382  H     0.74120   0.77211   0.82220   0.00000  Uiso   1.00
O1383  O     0.71145   0.72049   0.79297   0.00000  Uiso   1.00
C1384  C     0.95014   0.90496   0.70121   0.00000  Uiso   1.00
H1385  H     0.92549   0.89456   0.67779   0.00000  Uiso   1.00
O1386  O     0.95519   0.94618   0.70708   0.00000  Uiso   1.00
C1387  C     0.96338   0.75387   0.78814   0.00000  Uiso   1.00
H1388  H     0.94496   0.73141   0.76675   0.00000  Uiso   1.00
O1389  O     0.96968   0.74432   0.82785   0.00000  Uiso   1.00
C1390  C     0.70328   0.91283   0.71195   0.00000  Uiso   1.00
H1391  H     0.72172   0.93525   0.73337   0.00000  Uiso   1.00
O1392  O     0.69697   0.92246   0.67226   0.00000  Uiso   1.00
C1393  C     0.77268   0.71789   0.69550   0.00000  Uiso   1.00
H1394  H     0.77649   0.75063   0.67956   0.00000  Uiso   1.00
O1395  O     0.73857   0.70217   0.69280   0.00000  Uiso   1.00
C1396  C     0.89401   0.94878   0.80449   0.00000  Uiso   1.00
H1397  H     0.89023   0.91596   0.82033   0.00000  Uiso   1.00
O1398  O     0.92809   0.96459   0.80730   0.00000  Uiso   1.00
C1399  C     0.87854   0.71310   0.81962   0.00000  Uiso   1.00
H1400  H     0.89126   0.74650   0.81616   0.00000  Uiso   1.00
O1401  O     0.88066   0.69514   0.85678   0.00000  Uiso   1.00
C1402  C     0.78810   0.95357   0.68040   0.00000  Uiso   1.00
H1403  H     0.77539   0.92016   0.68386   0.00000  Uiso   1.00
O1404  O     0.78594   0.97153   0.64323   0.00000  Uiso   1.00
loop_
_geom_bond_atom_site_label_1
_geom_bond_atom_site_label_2
_geom_bond_distance
_geom_bond_site_symmetry_2
_ccdc_geom_bond_type
O1     C5      1.303   .     A
O1     Cu13    1.998   .     S
O2     C6      1.303   .     A
O2     Cu14    1.998   .     S
O3     C6      1.308   .     A
O3     Cu13    1.985   .     S
O4     C5      1.308   .     A
O4     Cu14    1.985   .     S
C5     C42     1.477   .     S
C6     C41     1.477   .     S
O7     C11     1.301   .     A
O7     Cu13    1.963   .     S
O8     C12     1.301   .     A
O8     Cu14    1.963   .     S
O9     Cu13    1.958   .     S
O9     C12     1.300   .     A
O10    Cu14    1.958   .     S
O10    C11     1.300   .     A
C11    C18     1.450   .     S
C12    C17     1.450   .     S
Cu13   Cu14    2.711   .     S
Cu13   N47     2.037   .     S
Cu14   N48     2.037   .     S
C15    C25     1.412   .     A
C15    C17     1.411   .     A
C15    N49     1.438   .     S
C16    C26     1.412   .     A
C16    C18     1.411   .     A
C16    N52     1.438   .     S
C17    C19     1.394   .     A
C18    C20     1.394   .     A
C19    H31     1.085   .     S
C19    C21     1.390   .     A
C20    C22     1.390   .     A
C20    H32     1.085   .     S
C21    C27     1.398   .     A
C21    C23     1.411   .     A
C22    C28     1.398   .     A
C22    C24     1.411   .     A
C23    C25     1.419   .     A
C23    C726    1.409   .     S
C24    C26     1.419   .     A
C24    C725    1.409   1_554 S
C25    C30     1.408   .     A
C26    C29     1.408   .     A
C27    H33     1.084   .     S
C27    C731    1.391   .     S
C28    H34     1.084   .     S
C28    C732    1.391   1_554 S
C29    H35     1.081   .     S
C29    C729    1.391   1_554 S
C30    H36     1.081   .     S
C30    C730    1.391   .     S
C37    C42     1.415   .     A
C37    C55     1.495   .     S
C37    C195    1.405   1_455 S
C38    C58     1.495   .     S
C38    C41     1.414   .     A
C38    C118    1.405   .     S
C39    C41     1.421   .     A
C39    C61     1.479   .     S
C39    C115    1.405   .     S
C40    C42     1.421   .     A
C40    C64     1.479   .     S
C40    C194    1.405   1_455 S
C43    N48     1.377   .     A
C43    C67     1.484   .     S
C43    C514    1.430   1_545 S
C44    C70     1.484   .     S
C44    N47     1.377   .     A
C44    C279    1.430   .     S
C45    C73     1.480   .     S
C45    N48     1.375   .     A
C45    C512    1.430   1_545 S
C46    C76     1.480   .     S
C46    N47     1.375   .     A
C46    C277    1.430   .     S
N49    O51     1.302   .     A
N49    O50     1.300   .     A
N52    O54     1.302   .     A
N52    O53     1.300   .     A
C55    H56     1.084   .     S
C55    O57     1.221   .     D
C58    O60     1.221   .     D
C58    H59     1.084   .     S
C61    O63     1.222   .     D
C61    H62     1.085   .     S
C64    O66     1.221   .     D
C64    H65     1.084   .     S
C67    H68     1.071   .     S
C67    O69     1.222   .     D
C70    H71     1.071   .     S
C70    O72     1.222   .     D
C73    H74     1.071   .     S
C73    O75     1.222   .     D
C76    H77     1.071   .     S
C76    O78     1.222   .     D
O79    C83     1.303   .     A
O79    Cu91    1.998   .     S
O80    C84     1.303   .     A
O80    Cu92    1.998   .     S
O81    C84     1.308   .     A
O81    Cu91    1.985   .     S
O82    C83     1.308   .     A
O82    Cu92    1.985   .     S
C83    C120    1.477   .     S
C84    C119    1.477   .     S
O85    C89     1.301   .     A
O85    Cu91    1.963   .     S
O86    C90     1.301   .     A
O86    Cu92    1.963   .     S
O87    Cu91    1.958   .     S
O87    C90     1.300   .     A
O88    Cu92    1.958   .     S
O88    C89     1.300   .     A
C89    C96     1.450   .     S
C90    C95     1.450   .     S
Cu91   Cu92    2.711   .     S
Cu91   N125    2.037   .     S
Cu92   N126    2.037   .     S
C93    C103    1.412   .     A
C93    C95     1.411   .     A
C93    N127    1.438   .     S
C94    C104    1.412   .     A
C94    C96     1.411   .     A
C94    N130    1.438   .     S
C95    C97     1.394   .     A
C96    C98     1.394   .     A
C97    H109    1.085   .     S
C97    C99     1.390   .     A
C98    C100    1.390   .     A
C98    H110    1.085   .     S
C99    C105    1.398   .     A
C99    C101    1.411   .     A
C100   C106    1.398   .     A
C100   C102    1.411   .     A
C101   C103    1.419   .     A
C101   C804    1.409   .     S
C102   C104    1.419   .     A
C102   C803    1.409   1_554 S
C103   C108    1.408   .     A
C104   C107    1.408   .     A
C105   H111    1.084   .     S
C105   C809    1.391   .     S
C106   H112    1.084   .     S
C106   C810    1.391   1_554 S
C107   H113    1.081   .     S
C107   C807    1.391   1_554 S
C108   H114    1.081   .     S
C108   C808    1.391   .     S
C115   C120    1.415   .     A
C115   C133    1.495   .     S
C116   C136    1.495   .     S
C116   C119    1.414   .     A
C116   C196    1.405   .     S
C117   C119    1.421   .     A
C117   C139    1.479   .     S
C117   C193    1.405   .     S
C118   C120    1.421   .     A
C118   C142    1.479   .     S
C121   N126    1.377   .     A
C121   C145    1.484   .     S
C121   C592    1.430   1_545 S
C122   C148    1.484   .     S
C122   N125    1.377   .     A
C122   C357    1.430   .     S
C123   C151    1.480   .     S
C123   N126    1.375   .     A
C123   C590    1.430   1_545 S
C124   C154    1.480   .     S
C124   N125    1.375   .     A
C124   C355    1.430   .     S
N127   O129    1.302   .     A
N127   O128    1.300   .     A
N130   O132    1.302   .     A
N130   O131    1.300   .     A
C133   H134    1.084   .     S
C133   O135    1.221   .     D
C136   O138    1.221   .     D
C136   H137    1.084   .     S
C139   O141    1.222   .     D
C139   H140    1.085   .     S
C142   O144    1.221   .     D
C142   H143    1.084   .     S
C145   H146    1.071   .     S
C145   O147    1.222   .     D
C148   H149    1.071   .     S
C148   O150    1.222   .     D
C151   H152    1.071   .     S
C151   O153    1.222   .     D
C154   H155    1.071   .     S
C154   O156    1.222   .     D
O157   C161    1.303   .     A
O157   Cu169   1.998   .     S
O158   C162    1.303   .     A
O158   Cu170   1.998   .     S
O159   C162    1.308   .     A
O159   Cu169   1.985   .     S
O160   C161    1.308   .     A
O160   Cu170   1.985   .     S
C161   C198    1.477   .     S
C162   C197    1.477   .     S
O163   C167    1.301   .     A
O163   Cu169   1.963   .     S
O164   C168    1.301   .     A
O164   Cu170   1.963   .     S
O165   Cu169   1.958   .     S
O165   C168    1.300   .     A
O166   Cu170   1.958   .     S
O166   C167    1.300   .     A
C167   C174    1.450   .     S
C168   C173    1.450   .     S
Cu169  Cu170   2.711   .     S
Cu169  N203    2.037   .     S
Cu170  N204    2.037   .     S
C171   C181    1.412   .     A
C171   C173    1.411   .     A
C171   N205    1.438   .     S
C172   C182    1.412   .     A
C172   C174    1.411   .     A
C172   N208    1.438   .     S
C173   C175    1.394   .     A
C174   C176    1.394   .     A
C175   H187    1.085   .     S
C175   C177    1.390   .     A
C176   C178    1.390   .     A
C176   H188    1.085   .     S
C177   C183    1.398   .     A
C177   C179    1.411   .     A
C178   C184    1.398   .     A
C178   C180    1.411   .     A
C179   C181    1.419   .     A
C179   C882    1.409   .     S
C180   C182    1.419   .     A
C180   C881    1.409   1_554 S
C181   C186    1.408   .     A
C182   C185    1.408   .     A
C183   H189    1.084   .     S
C183   C887    1.391   .     S
C184   H190    1.084   .     S
C184   C888    1.391   1_554 S
C185   H191    1.081   .     S
C185   C885    1.391   1_554 S
C186   H192    1.081   .     S
C186   C886    1.391   .     S
C193   C198    1.415   .     A
C193   C211    1.495   .     S
C194   C214    1.495   .     S
C194   C197    1.414   .     A
C194   C40     1.405   1_655 S
C195   C197    1.421   .     A
C195   C217    1.479   .     S
C195   C37     1.405   1_655 S
C196   C198    1.421   .     A
C196   C220    1.479   .     S
C199   N204    1.377   .     A
C199   C223    1.484   .     S
C199   C670    1.430   1_545 S
C200   C226    1.484   .     S
C200   N203    1.377   .     A
C200   C435    1.430   .     S
C201   C229    1.480   .     S
C201   N204    1.375   .     A
C201   C668    1.430   1_545 S
C202   C232    1.480   .     S
C202   N203    1.375   .     A
C202   C433    1.430   .     S
N205   O207    1.302   .     A
N205   O206    1.300   .     A
N208   O210    1.302   .     A
N208   O209    1.300   .     A
C211   H212    1.084   .     S
C211   O213    1.221   .     D
C214   O216    1.221   .     D
C214   H215    1.084   .     S
C217   O219    1.222   .     D
C217   H218    1.085   .     S
C220   O222    1.221   .     D
C220   H221    1.084   .     S
C223   H224    1.071   .     S
C223   O225    1.222   .     D
C226   H227    1.071   .     S
C226   O228    1.222   .     D
C229   H230    1.071   .     S
C229   O231    1.222   .     D
C232   H233    1.071   .     S
C232   O234    1.222   .     D
O235   C239    1.303   .     A
O235   Cu247   1.998   .     S
O236   C240    1.303   .     A
O236   Cu248   1.998   .     S
O237   C240    1.308   .     A
O237   Cu247   1.985   .     S
O238   C239    1.308   .     A
O238   Cu248   1.985   .     S
C239   C276    1.477   .     S
C240   C275    1.477   .     S
O241   C245    1.301   .     A
O241   Cu247   1.963   .     S
O242   C246    1.301   .     A
O242   Cu248   1.963   .     S
O243   Cu247   1.958   .     S
O243   C246    1.300   .     A
O244   Cu248   1.958   .     S
O244   C245    1.300   .     A
C245   C252    1.450   .     S
C246   C251    1.450   .     S
Cu247  Cu248   2.711   .     S
Cu247  N281    2.037   .     S
Cu248  N282    2.037   .     S
C249   C259    1.412   .     A
C249   C251    1.411   .     A
C249   N283    1.438   .     S
C250   C260    1.412   .     A
C250   C252    1.411   .     A
C250   N286    1.438   .     S
C251   C253    1.394   .     A
C252   C254    1.394   .     A
C253   H265    1.085   .     S
C253   C255    1.390   .     A
C254   C256    1.390   .     A
C254   H266    1.085   .     S
C255   C261    1.398   .     A
C255   C257    1.411   .     A
C256   C262    1.398   .     A
C256   C258    1.411   .     A
C257   C259    1.419   .     A
C257   C960    1.409   .     S
C258   C260    1.419   .     A
C258   C959    1.409   1_554 S
C259   C264    1.408   .     A
C260   C263    1.408   .     A
C261   H267    1.084   .     S
C261   C965    1.391   .     S
C262   H268    1.084   .     S
C262   C966    1.391   1_554 S
C263   H269    1.081   .     S
C263   C963    1.391   1_554 S
C264   H270    1.081   .     S
C264   C964    1.391   .     S
C271   C276    1.415   .     A
C271   C289    1.495   .     S
C271   C429    1.405   1_455 S
C272   C292    1.495   .     S
C272   C275    1.414   .     A
C272   C352    1.405   .     S
C273   C275    1.421   .     A
C273   C295    1.479   .     S
C273   C349    1.405   .     S
C274   C276    1.421   .     A
C274   C298    1.479   .     S
C274   C428    1.405   1_455 S
C277   N282    1.377   .     A
C277   C301    1.484   .     S
C278   C304    1.484   .     S
C278   N281    1.377   .     A
C278   C513    1.430   .     S
C279   C307    1.480   .     S
C279   N282    1.375   .     A
C280   C310    1.480   .     S
C280   N281    1.375   .     A
C280   C511    1.430   .     S
N283   O285    1.302   .     A
N283   O284    1.300   .     A
N286   O288    1.302   .     A
N286   O287    1.300   .     A
C289   H290    1.084   .     S
C289   O291    1.221   .     D
C292   O294    1.221   .     D
C292   H293    1.084   .     S
C295   O297    1.222   .     D
C295   H296    1.085   .     S
C298   O300    1.221   .     D
C298   H299    1.084   .     S
C301   H302    1.071   .     S
C301   O303    1.222   .     D
C304   H305    1.071   .     S
C304   O306    1.222   .     D
C307   H308    1.071   .     S
C307   O309    1.222   .     D
C310   H311    1.071   .     S
C310   O312    1.222   .     D
O313   C317    1.303   .     A
O313   Cu325   1.998   .     S
O314   C318    1.303   .     A
O314   Cu326   1.998   .     S
O315   C318    1.308   .     A
O315   Cu325   1.985   .     S
O316   C317    1.308   .     A
O316   Cu326   1.985   .     S
C317   C354    1.477   .     S
C318   C353    1.477   .     S
O319   C323    1.301   .     A
O319   Cu325   1.963   .     S
O320   C324    1.301   .     A
O320   Cu326   1.963   .     S
O321   Cu325   1.958   .     S
O321   C324    1.300   .     A
O322   Cu326   1.958   .     S
O322   C323    1.300   .     A
C323   C330    1.450   .     S
C324   C329    1.450   .     S
Cu325  Cu326   2.711   .     S
Cu325  N359    2.037   .     S
Cu326  N360    2.037   .     S
C327   C337    1.412   .     A
C327   C329    1.411   .     A
C327   N361    1.438   .     S
C328   C338    1.412   .     A
C328   C330    1.411   .     A
C328   N364    1.438   .     S
C329   C331    1.394   .     A
C330   C332    1.394   .     A
C331   H343    1.085   .     S
C331   C333    1.390   .     A
C332   C334    1.390   .     A
C332   H344    1.085   .     S
C333   C339    1.398   .     A
C333   C335    1.411   .     A
C334   C340    1.398   .     A
C334   C336    1.411   .     A
C335   C337    1.419   .     A
C335   C1038   1.409   .     S
C336   C338    1.419   .     A
C336   C1037   1.409   1_554 S
C337   C342    1.408   .     A
C338   C341    1.408   .     A
C339   H345    1.084   .     S
C339   C1043   1.391   .     S
C340   H346    1.084   .     S
C340   C1044   1.391   1_554 S
C341   H347    1.081   .     S
C341   C1041   1.391   1_554 S
C342   H348    1.081   .     S
C342   C1042   1.391   .     S
C349   C354    1.415   .     A
C349   C367    1.495   .     S
C350   C370    1.495   .     S
C350   C353    1.414   .     A
C350   C430    1.405   .     S
C351   C353    1.421   .     A
C351   C373    1.479   .     S
C351   C427    1.405   .     S
C352   C354    1.421   .     A
C352   C376    1.479   .     S
C355   N360    1.377   .     A
C355   C379    1.484   .     S
C356   C382    1.484   .     S
C356   N359    1.377   .     A
C356   C591    1.430   .     S
C357   C385    1.480   .     S
C357   N360    1.375   .     A
C358   C388    1.480   .     S
C358   N359    1.375   .     A
C358   C589    1.430   .     S
N361   O363    1.302   .     A
N361   O362    1.300   .     A
N364   O366    1.302   .     A
N364   O365    1.300   .     A
C367   H368    1.084   .     S
C367   O369    1.221   .     D
C370   O372    1.221   .     D
C370   H371    1.084   .     S
C373   O375    1.222   .     D
C373   H374    1.085   .     S
C376   O378    1.221   .     D
C376   H377    1.084   .     S
C379   H380    1.071   .     S
C379   O381    1.222   .     D
C382   H383    1.071   .     S
C382   O384    1.222   .     D
C385   H386    1.071   .     S
C385   O387    1.222   .     D
C388   H389    1.071   .     S
C388   O390    1.222   .     D
O391   C395    1.303   .     A
O391   Cu403   1.998   .     S
O392   C396    1.303   .     A
O392   Cu404   1.998   .     S
O393   C396    1.308   .     A
O393   Cu403   1.985   .     S
O394   C395    1.308   .     A
O394   Cu404   1.985   .     S
C395   C432    1.477   .     S
C396   C431    1.477   .     S
O397   C401    1.301   .     A
O397   Cu403   1.963   .     S
O398   C402    1.301   .     A
O398   Cu404   1.963   .     S
O399   Cu403   1.958   .     S
O399   C402    1.300   .     A
O400   Cu404   1.958   .     S
O400   C401    1.300   .     A
C401   C408    1.450   .     S
C402   C407    1.450   .     S
Cu403  Cu404   2.711   .     S
Cu403  N437    2.037   .     S
Cu404  N438    2.037   .     S
C405   C415    1.412   .     A
C405   C407    1.411   .     A
C405   N439    1.438   .     S
C406   C416    1.412   .     A
C406   C408    1.411   .     A
C406   N442    1.438   .     S
C407   C409    1.394   .     A
C408   C410    1.394   .     A
C409   H421    1.085   .     S
C409   C411    1.390   .     A
C410   C412    1.390   .     A
C410   H422    1.085   .     S
C411   C417    1.398   .     A
C411   C413    1.411   .     A
C412   C418    1.398   .     A
C412   C414    1.411   .     A
C413   C415    1.419   .     A
C413   C1116   1.409   .     S
C414   C416    1.419   .     A
C414   C1115   1.409   1_554 S
C415   C420    1.408   .     A
C416   C419    1.408   .     A
C417   H423    1.084   .     S
C417   C1121   1.391   .     S
C418   H424    1.084   .     S
C418   C1122   1.391   1_554 S
C419   H425    1.081   .     S
C419   C1119   1.391   1_554 S
C420   H426    1.081   .     S
C420   C1120   1.391   .     S
C427   C432    1.415   .     A
C427   C445    1.495   .     S
C428   C448    1.495   .     S
C428   C431    1.414   .     A
C428   C274    1.405   1_655 S
C429   C431    1.421   .     A
C429   C451    1.479   .     S
C429   C271    1.405   1_655 S
C430   C432    1.421   .     A
C430   C454    1.479   .     S
C433   N438    1.377   .     A
C433   C457    1.484   .     S
C434   C460    1.484   .     S
C434   N437    1.377   .     A
C434   C669    1.430   .     S
C435   C463    1.480   .     S
C435   N438    1.375   .     A
C436   C466    1.480   .     S
C436   N437    1.375   .     A
C436   C667    1.430   .     S
N439   O441    1.302   .     A
N439   O440    1.300   .     A
N442   O444    1.302   .     A
N442   O443    1.300   .     A
C445   H446    1.084   .     S
C445   O447    1.221   .     D
C448   O450    1.221   .     D
C448   H449    1.084   .     S
C451   O453    1.222   .     D
C451   H452    1.085   .     S
C454   O456    1.221   .     D
C454   H455    1.084   .     S
C457   H458    1.071   .     S
C457   O459    1.222   .     D
C460   H461    1.071   .     S
C460   O462    1.222   .     D
C463   H464    1.071   .     S
C463   O465    1.222   .     D
C466   H467    1.071   .     S
C466   O468    1.222   .     D
O469   C473    1.303   .     A
O469   Cu481   1.998   .     S
O470   C474    1.303   .     A
O470   Cu482   1.998   .     S
O471   C474    1.308   .     A
O471   Cu481   1.985   .     S
O472   C473    1.308   .     A
O472   Cu482   1.985   .     S
C473   C510    1.477   .     S
C474   C509    1.477   .     S
O475   C479    1.301   .     A
O475   Cu481   1.963   .     S
O476   C480    1.301   .     A
O476   Cu482   1.963   .     S
O477   Cu481   1.958   .     S
O477   C480    1.300   .     A
O478   Cu482   1.958   .     S
O478   C479    1.300   .     A
C479   C486    1.450   .     S
C480   C485    1.450   .     S
Cu481  Cu482   2.711   .     S
Cu481  N515    2.037   .     S
Cu482  N516    2.037   .     S
C483   C493    1.412   .     A
C483   C485    1.411   .     A
C483   N517    1.438   .     S
C484   C494    1.412   .     A
C484   C486    1.411   .     A
C484   N520    1.438   .     S
C485   C487    1.394   .     A
C486   C488    1.394   .     A
C487   H499    1.085   .     S
C487   C489    1.390   .     A
C488   C490    1.390   .     A
C488   H500    1.085   .     S
C489   C495    1.398   .     A
C489   C491    1.411   .     A
C490   C496    1.398   .     A
C490   C492    1.411   .     A
C491   C493    1.419   .     A
C491   C1194   1.409   .     S
C492   C494    1.419   .     A
C492   C1193   1.409   1_554 S
C493   C498    1.408   .     A
C494   C497    1.408   .     A
C495   H501    1.084   .     S
C495   C1199   1.391   .     S
C496   H502    1.084   .     S
C496   C1200   1.391   1_554 S
C497   H503    1.081   .     S
C497   C1197   1.391   1_554 S
C498   H504    1.081   .     S
C498   C1198   1.391   .     S
C505   C510    1.415   .     A
C505   C523    1.495   .     S
C505   C663    1.405   1_455 S
C506   C526    1.495   .     S
C506   C509    1.414   .     A
C506   C586    1.405   .     S
C507   C509    1.421   .     A
C507   C529    1.479   .     S
C507   C583    1.405   .     S
C508   C510    1.421   .     A
C508   C532    1.479   .     S
C508   C662    1.405   1_455 S
C511   N516    1.377   .     A
C511   C535    1.484   .     S
C512   C538    1.484   .     S
C512   N515    1.377   .     A
C512   C45     1.430   1_565 S
C513   C541    1.480   .     S
C513   N516    1.375   .     A
C514   C544    1.480   .     S
C514   N515    1.375   .     A
C514   C43     1.430   1_565 S
N517   O519    1.302   .     A
N517   O518    1.300   .     A
N520   O522    1.302   .     A
N520   O521    1.300   .     A
C523   H524    1.084   .     S
C523   O525    1.221   .     D
C526   O528    1.221   .     D
C526   H527    1.084   .     S
C529   O531    1.222   .     D
C529   H530    1.085   .     S
C532   O534    1.221   .     D
C532   H533    1.084   .     S
C535   H536    1.071   .     S
C535   O537    1.222   .     D
C538   H539    1.071   .     S
C538   O540    1.222   .     D
C541   H542    1.071   .     S
C541   O543    1.222   .     D
C544   H545    1.071   .     S
C544   O546    1.222   .     D
O547   C551    1.303   .     A
O547   Cu559   1.998   .     S
O548   C552    1.303   .     A
O548   Cu560   1.998   .     S
O549   C552    1.308   .     A
O549   Cu559   1.985   .     S
O550   C551    1.308   .     A
O550   Cu560   1.985   .     S
C551   C588    1.477   .     S
C552   C587    1.477   .     S
O553   C557    1.301   .     A
O553   Cu559   1.963   .     S
O554   C558    1.301   .     A
O554   Cu560   1.963   .     S
O555   Cu559   1.958   .     S
O555   C558    1.300   .     A
O556   Cu560   1.958   .     S
O556   C557    1.300   .     A
C557   C564    1.450   .     S
C558   C563    1.450   .     S
Cu559  Cu560   2.711   .     S
Cu559  N593    2.037   .     S
Cu560  N594    2.037   .     S
C561   C571    1.412   .     A
C561   C563    1.411   .     A
C561   N595    1.438   .     S
C562   C572    1.412   .     A
C562   C564    1.411   .     A
C562   N598    1.438   .     S
C563   C565    1.394   .     A
C564   C566    1.394   .     A
C565   H577    1.085   .     S
C565   C567    1.390   .     A
C566   C568    1.390   .     A
C566   H578    1.085   .     S
C567   C573    1.398   .     A
C567   C569    1.411   .     A
C568   C574    1.398   .     A
C568   C570    1.411   .     A
C569   C571    1.419   .     A
C569   C1272   1.409   .     S
C570   C572    1.419   .     A
C570   C1271   1.409   1_554 S
C571   C576    1.408   .     A
C572   C575    1.408   .     A
C573   H579    1.084   .     S
C573   C1277   1.391   .     S
C574   H580    1.084   .     S
C574   C1278   1.391   1_554 S
C575   H581    1.081   .     S
C575   C1275   1.391   1_554 S
C576   H582    1.081   .     S
C576   C1276   1.391   .     S
C583   C588    1.415   .     A
C583   C601    1.495   .     S
C584   C604    1.495   .     S
C584   C587    1.414   .     A
C584   C664    1.405   .     S
C585   C587    1.421   .     A
C585   C607    1.479   .     S
C585   C661    1.405   .     S
C586   C588    1.421   .     A
C586   C610    1.479   .     S
C589   N594    1.377   .     A
C589   C613    1.484   .     S
C590   C616    1.484   .     S
C590   N593    1.377   .     A
C590   C123    1.430   1_565 S
C591   C619    1.480   .     S
C591   N594    1.375   .     A
C592   C622    1.480   .     S
C592   N593    1.375   .     A
C592   C121    1.430   1_565 S
N595   O597    1.302   .     A
N595   O596    1.300   .     A
N598   O600    1.302   .     A
N598   O599    1.300   .     A
C601   H602    1.084   .     S
C601   O603    1.221   .     D
C604   O606    1.221   .     D
C604   H605    1.084   .     S
C607   O609    1.222   .     D
C607   H608    1.085   .     S
C610   O612    1.221   .     D
C610   H611    1.084   .     S
C613   H614    1.071   .     S
C613   O615    1.222   .     D
C616   H617    1.071   .     S
C616   O618    1.222   .     D
C619   H620    1.071   .     S
C619   O621    1.222   .     D
C622   H623    1.071   .     S
C622   O624    1.222   .     D
O625   C629    1.303   .     A
O625   Cu637   1.998   .     S
O626   C630    1.303   .     A
O626   Cu638   1.998   .     S
O627   C630    1.308   .     A
O627   Cu637   1.985   .     S
O628   C629    1.308   .     A
O628   Cu638   1.985   .     S
C629   C666    1.477   .     S
C630   C665    1.477   .     S
O631   C635    1.301   .     A
O631   Cu637   1.963   .     S
O632   C636    1.301   .     A
O632   Cu638   1.963   .     S
O633   Cu637   1.958   .     S
O633   C636    1.300   .     A
O634   Cu638   1.958   .     S
O634   C635    1.300   .     A
C635   C642    1.450   .     S
C636   C641    1.450   .     S
Cu637  Cu638   2.711   .     S
Cu637  N671    2.037   .     S
Cu638  N672    2.037   .     S
C639   C649    1.412   .     A
C639   C641    1.411   .     A
C639   N673    1.438   .     S
C640   C650    1.412   .     A
C640   C642    1.411   .     A
C640   N676    1.438   .     S
C641   C643    1.394   .     A
C642   C644    1.394   .     A
C643   H655    1.085   .     S
C643   C645    1.390   .     A
C644   C646    1.390   .     A
C644   H656    1.085   .     S
C645   C651    1.398   .     A
C645   C647    1.411   .     A
C646   C652    1.398   .     A
C646   C648    1.411   .     A
C647   C649    1.419   .     A
C647   C1350   1.409   .     S
C648   C650    1.419   .     A
C648   C1349   1.409   1_554 S
C649   C654    1.408   .     A
C650   C653    1.408   .     A
C651   H657    1.084   .     S
C651   C1355   1.391   .     S
C652   H658    1.084   .     S
C652   C1356   1.391   1_554 S
C653   H659    1.081   .     S
C653   C1353   1.391   1_554 S
C654   H660    1.081   .     S
C654   C1354   1.391   .     S
C661   C666    1.415   .     A
C661   C679    1.495   .     S
C662   C682    1.495   .     S
C662   C665    1.414   .     A
C662   C508    1.405   1_655 S
C663   C665    1.421   .     A
C663   C685    1.479   .     S
C663   C505    1.405   1_655 S
C664   C666    1.421   .     A
C664   C688    1.479   .     S
C667   N672    1.377   .     A
C667   C691    1.484   .     S
C668   C694    1.484   .     S
C668   N671    1.377   .     A
C668   C201    1.430   1_565 S
C669   C697    1.480   .     S
C669   N672    1.375   .     A
C670   C700    1.480   .     S
C670   N671    1.375   .     A
C670   C199    1.430   1_565 S
N673   O675    1.302   .     A
N673   O674    1.300   .     A
N676   O678    1.302   .     A
N676   O677    1.300   .     A
C679   H680    1.084   .     S
C679   O681    1.221   .     D
C682   O684    1.221   .     D
C682   H683    1.084   .     S
C685   O687    1.222   .     D
C685   H686    1.085   .     S
C688   O690    1.221   .     D
C688   H689    1.084   .     S
C691   H692    1.071   .     S
C691   O693    1.222   .     D
C694   H695    1.071   .     S
C694   O696    1.222   .     D
C697   H698    1.071   .     S
C697   O699    1.222   .     D
C700   H701    1.071   .     S
C700   O702    1.222   .     D
O703   C707    1.303   .     A
O703   Cu715   1.998   .     S
O704   C708    1.303   .     A
O704   Cu716   1.998   .     S
O705   C708    1.308   .     A
O705   Cu715   1.985   .     S
O706   C707    1.308   .     A
O706   Cu716   1.985   .     S
C707   C744    1.477   .     S
C708   C743    1.477   .     S
O709   C713    1.301   .     A
O709   Cu715   1.963   .     S
O710   C714    1.301   .     A
O710   Cu716   1.963   .     S
O711   Cu715   1.958   .     S
O711   C714    1.300   .     A
O712   Cu716   1.958   .     S
O712   C713    1.300   .     A
C713   C720    1.450   .     S
C714   C719    1.450   .     S
Cu715  Cu716   2.711   .     S
Cu715  N749    2.037   .     S
Cu716  N750    2.037   .     S
C717   C727    1.412   .     A
C717   C719    1.411   .     A
C717   N751    1.438   .     S
C718   C728    1.412   .     A
C718   C720    1.411   .     A
C718   N754    1.438   .     S
C719   C721    1.394   .     A
C720   C722    1.394   .     A
C721   H733    1.085   .     S
C721   C723    1.390   .     A
C722   C724    1.390   .     A
C722   H734    1.085   .     S
C723   C729    1.398   .     A
C723   C725    1.411   .     A
C724   C730    1.398   .     A
C724   C726    1.411   .     A
C725   C727    1.419   .     A
C725   C24     1.409   1_556 S
C726   C728    1.419   .     A
C727   C732    1.408   .     A
C728   C731    1.408   .     A
C729   H735    1.084   .     S
C729   C29     1.391   1_556 S
C730   H736    1.084   .     S
C731   H737    1.081   .     S
C732   H738    1.081   .     S
C732   C28     1.391   1_556 S
C739   C744    1.415   .     A
C739   C757    1.495   .     S
C739   C897    1.405   1_455 S
C740   C760    1.495   .     S
C740   C743    1.414   .     A
C740   C820    1.405   .     S
C741   C743    1.421   .     A
C741   C763    1.479   .     S
C741   C817    1.405   .     S
C742   C744    1.421   .     A
C742   C766    1.479   .     S
C742   C896    1.405   1_455 S
C745   N750    1.377   .     A
C745   C769    1.484   .     S
C745   C1216   1.430   1_545 S
C746   C772    1.484   .     S
C746   N749    1.377   .     A
C746   C981    1.430   .     S
C747   C775    1.480   .     S
C747   N750    1.375   .     A
C747   C1214   1.430   1_545 S
C748   C778    1.480   .     S
C748   N749    1.375   .     A
C748   C979    1.430   .     S
N751   O753    1.302   .     A
N751   O752    1.300   .     A
N754   O756    1.302   .     A
N754   O755    1.300   .     A
C757   H758    1.084   .     S
C757   O759    1.221   .     D
C760   O762    1.221   .     D
C760   H761    1.084   .     S
C763   O765    1.222   .     D
C763   H764    1.085   .     S
C766   O768    1.221   .     D
C766   H767    1.084   .     S
C769   H770    1.071   .     S
C769   O771    1.222   .     D
C772   H773    1.071   .     S
C772   O774    1.222   .     D
C775   H776    1.071   .     S
C775   O777    1.222   .     D
C778   H779    1.071   .     S
C778   O780    1.222   .     D
O781   C785    1.303   .     A
O781   Cu793   1.998   .     S
O782   C786    1.303   .     A
O782   Cu794   1.998   .     S
O783   C786    1.308   .     A
O783   Cu793   1.985   .     S
O784   C785    1.308   .     A
O784   Cu794   1.985   .     S
C785   C822    1.477   .     S
C786   C821    1.477   .     S
O787   C791    1.301   .     A
O787   Cu793   1.963   .     S
O788   C792    1.301   .     A
O788   Cu794   1.963   .     S
O789   Cu793   1.958   .     S
O789   C792    1.300   .     A
O790   Cu794   1.958   .     S
O790   C791    1.300   .     A
C791   C798    1.450   .     S
C792   C797    1.450   .     S
Cu793  Cu794   2.711   .     S
Cu793  N827    2.037   .     S
Cu794  N828    2.037   .     S
C795   C805    1.412   .     A
C795   C797    1.411   .     A
C795   N829    1.438   .     S
C796   C806    1.412   .     A
C796   C798    1.411   .     A
C796   N832    1.438   .     S
C797   C799    1.394   .     A
C798   C800    1.394   .     A
C799   H811    1.085   .     S
C799   C801    1.390   .     A
C800   C802    1.390   .     A
C800   H812    1.085   .     S
C801   C807    1.398   .     A
C801   C803    1.411   .     A
C802   C808    1.398   .     A
C802   C804    1.411   .     A
C803   C805    1.419   .     A
C803   C102    1.409   1_556 S
C804   C806    1.419   .     A
C805   C810    1.408   .     A
C806   C809    1.408   .     A
C807   H813    1.084   .     S
C807   C107    1.391   1_556 S
C808   H814    1.084   .     S
C809   H815    1.081   .     S
C810   H816    1.081   .     S
C810   C106    1.391   1_556 S
C817   C822    1.415   .     A
C817   C835    1.495   .     S
C818   C838    1.495   .     S
C818   C821    1.414   .     A
C818   C898    1.405   .     S
C819   C821    1.421   .     A
C819   C841    1.479   .     S
C819   C895    1.405   .     S
C820   C822    1.421   .     A
C820   C844    1.479   .     S
C823   N828    1.377   .     A
C823   C847    1.484   .     S
C823   C1294   1.430   1_545 S
C824   C850    1.484   .     S
C824   N827    1.377   .     A
C824   C1059   1.430   .     S
C825   C853    1.480   .     S
C825   N828    1.375   .     A
C825   C1292   1.430   1_545 S
C826   C856    1.480   .     S
C826   N827    1.375   .     A
C826   C1057   1.430   .     S
N829   O831    1.302   .     A
N829   O830    1.300   .     A
N832   O834    1.302   .     A
N832   O833    1.300   .     A
C835   H836    1.084   .     S
C835   O837    1.221   .     D
C838   O840    1.221   .     D
C838   H839    1.084   .     S
C841   O843    1.222   .     D
C841   H842    1.085   .     S
C844   O846    1.221   .     D
C844   H845    1.084   .     S
C847   H848    1.071   .     S
C847   O849    1.222   .     D
C850   H851    1.071   .     S
C850   O852    1.222   .     D
C853   H854    1.071   .     S
C853   O855    1.222   .     D
C856   H857    1.071   .     S
C856   O858    1.222   .     D
O859   C863    1.303   .     A
O859   Cu871   1.998   .     S
O860   C864    1.303   .     A
O860   Cu872   1.998   .     S
O861   C864    1.308   .     A
O861   Cu871   1.985   .     S
O862   C863    1.308   .     A
O862   Cu872   1.985   .     S
C863   C900    1.477   .     S
C864   C899    1.477   .     S
O865   C869    1.301   .     A
O865   Cu871   1.963   .     S
O866   C870    1.301   .     A
O866   Cu872   1.963   .     S
O867   Cu871   1.958   .     S
O867   C870    1.300   .     A
O868   Cu872   1.958   .     S
O868   C869    1.300   .     A
C869   C876    1.450   .     S
C870   C875    1.450   .     S
Cu871  Cu872   2.711   .     S
Cu871  N905    2.037   .     S
Cu872  N906    2.037   .     S
C873   C883    1.412   .     A
C873   C875    1.411   .     A
C873   N907    1.438   .     S
C874   C884    1.412   .     A
C874   C876    1.411   .     A
C874   N910    1.438   .     S
C875   C877    1.394   .     A
C876   C878    1.394   .     A
C877   H889    1.085   .     S
C877   C879    1.390   .     A
C878   C880    1.390   .     A
C878   H890    1.085   .     S
C879   C885    1.398   .     A
C879   C881    1.411   .     A
C880   C886    1.398   .     A
C880   C882    1.411   .     A
C881   C883    1.419   .     A
C881   C180    1.409   1_556 S
C882   C884    1.419   .     A
C883   C888    1.408   .     A
C884   C887    1.408   .     A
C885   H891    1.084   .     S
C885   C185    1.391   1_556 S
C886   H892    1.084   .     S
C887   H893    1.081   .     S
C888   H894    1.081   .     S
C888   C184    1.391   1_556 S
C895   C900    1.415   .     A
C895   C913    1.495   .     S
C896   C916    1.495   .     S
C896   C899    1.414   .     A
C896   C742    1.405   1_655 S
C897   C899    1.421   .     A
C897   C919    1.479   .     S
C897   C739    1.405   1_655 S
C898   C900    1.421   .     A
C898   C922    1.479   .     S
C901   N906    1.377   .     A
C901   C925    1.484   .     S
C901   C1372   1.430   1_545 S
C902   C928    1.484   .     S
C902   N905    1.377   .     A
C902   C1137   1.430   .     S
C903   C931    1.480   .     S
C903   N906    1.375   .     A
C903   C1370   1.430   1_545 S
C904   C934    1.480   .     S
C904   N905    1.375   .     A
C904   C1135   1.430   .     S
N907   O909    1.302   .     A
N907   O908    1.300   .     A
N910   O912    1.302   .     A
N910   O911    1.300   .     A
C913   H914    1.084   .     S
C913   O915    1.221   .     D
C916   O918    1.221   .     D
C916   H917    1.084   .     S
C919   O921    1.222   .     D
C919   H920    1.085   .     S
C922   O924    1.221   .     D
C922   H923    1.084   .     S
C925   H926    1.071   .     S
C925   O927    1.222   .     D
C928   H929    1.071   .     S
C928   O930    1.222   .     D
C931   H932    1.071   .     S
C931   O933    1.222   .     D
C934   H935    1.071   .     S
C934   O936    1.222   .     D
O937   C941    1.303   .     A
O937   Cu949   1.998   .     S
O938   C942    1.303   .     A
O938   Cu950   1.998   .     S
O939   C942    1.308   .     A
O939   Cu949   1.985   .     S
O940   C941    1.308   .     A
O940   Cu950   1.985   .     S
C941   C978    1.477   .     S
C942   C977    1.477   .     S
O943   C947    1.301   .     A
O943   Cu949   1.963   .     S
O944   C948    1.301   .     A
O944   Cu950   1.963   .     S
O945   Cu949   1.958   .     S
O945   C948    1.300   .     A
O946   Cu950   1.958   .     S
O946   C947    1.300   .     A
C947   C954    1.450   .     S
C948   C953    1.450   .     S
Cu949  Cu950   2.711   .     S
Cu949  N983    2.037   .     S
Cu950  N984    2.037   .     S
C951   C961    1.412   .     A
C951   C953    1.411   .     A
C951   N985    1.438   .     S
C952   C962    1.412   .     A
C952   C954    1.411   .     A
C952   N988    1.438   .     S
C953   C955    1.394   .     A
C954   C956    1.394   .     A
C955   H967    1.085   .     S
C955   C957    1.390   .     A
C956   C958    1.390   .     A
C956   H968    1.085   .     S
C957   C963    1.398   .     A
C957   C959    1.411   .     A
C958   C964    1.398   .     A
C958   C960    1.411   .     A
C959   C961    1.419   .     A
C959   C258    1.409   1_556 S
C960   C962    1.419   .     A
C961   C966    1.408   .     A
C962   C965    1.408   .     A
C963   H969    1.084   .     S
C963   C263    1.391   1_556 S
C964   H970    1.084   .     S
C965   H971    1.081   .     S
C966   H972    1.081   .     S
C966   C262    1.391   1_556 S
C973   C978    1.415   .     A
C973   C991    1.495   .     S
C973   C1131   1.405   1_455 S
C974   C994    1.495   .     S
C974   C977    1.414   .     A
C974   C1054   1.405   .     S
C975   C977    1.421   .     A
C975   C997    1.479   .     S
C975   C1051   1.405   .     S
C976   C978    1.421   .     A
C976   C1000   1.479   .     S
C976   C1130   1.405   1_455 S
C979   N984    1.377   .     A
C979   C1003   1.484   .     S
C980   C1006   1.484   .     S
C980   N983    1.377   .     A
C980   C1215   1.430   .     S
C981   C1009   1.480   .     S
C981   N984    1.375   .     A
C982   C1012   1.480   .     S
C982   N983    1.375   .     A
C982   C1213   1.430   .     S
N985   O987    1.302   .     A
N985   O986    1.300   .     A
N988   O990    1.302   .     A
N988   O989    1.300   .     A
C991   H992    1.084   .     S
C991   O993    1.221   .     D
C994   O996    1.221   .     D
C994   H995    1.084   .     S
C997   O999    1.222   .     D
C997   H998    1.085   .     S
C1000  O1002   1.221   .     D
C1000  H1001   1.084   .     S
C1003  H1004   1.071   .     S
C1003  O1005   1.222   .     D
C1006  H1007   1.071   .     S
C1006  O1008   1.222   .     D
C1009  H1010   1.071   .     S
C1009  O1011   1.222   .     D
C1012  H1013   1.071   .     S
C1012  O1014   1.222   .     D
O1015  C1019   1.303   .     A
O1015  Cu1027  1.998   .     S
O1016  C1020   1.303   .     A
O1016  Cu1028  1.998   .     S
O1017  C1020   1.308   .     A
O1017  Cu1027  1.985   .     S
O1018  C1019   1.308   .     A
O1018  Cu1028  1.985   .     S
C1019  C1056   1.477   .     S
C1020  C1055   1.477   .     S
O1021  C1025   1.301   .     A
O1021  Cu1027  1.963   .     S
O1022  C1026   1.301   .     A
O1022  Cu1028  1.963   .     S
O1023  Cu1027  1.958   .     S
O1023  C1026   1.300   .     A
O1024  Cu1028  1.958   .     S
O1024  C1025   1.300   .     A
C1025  C1032   1.450   .     S
C1026  C1031   1.450   .     S
Cu1027 Cu1028  2.711   .     S
Cu1027 N1061   2.037   .     S
Cu1028 N1062   2.037   .     S
C1029  C1039   1.412   .     A
C1029  C1031   1.411   .     A
C1029  N1063   1.438   .     S
C1030  C1040   1.412   .     A
C1030  C1032   1.411   .     A
C1030  N1066   1.438   .     S
C1031  C1033   1.394   .     A
C1032  C1034   1.394   .     A
C1033  H1045   1.085   .     S
C1033  C1035   1.390   .     A
C1034  C1036   1.390   .     A
C1034  H1046   1.085   .     S
C1035  C1041   1.398   .     A
C1035  C1037   1.411   .     A
C1036  C1042   1.398   .     A
C1036  C1038   1.411   .     A
C1037  C1039   1.419   .     A
C1037  C336    1.409   1_556 S
C1038  C1040   1.419   .     A
C1039  C1044   1.408   .     A
C1040  C1043   1.408   .     A
C1041  H1047   1.084   .     S
C1041  C341    1.391   1_556 S
C1042  H1048   1.084   .     S
C1043  H1049   1.081   .     S
C1044  H1050   1.081   .     S
C1044  C340    1.391   1_556 S
C1051  C1056   1.415   .     A
C1051  C1069   1.495   .     S
C1052  C1072   1.495   .     S
C1052  C1055   1.414   .     A
C1052  C1132   1.405   .     S
C1053  C1055   1.421   .     A
C1053  C1075   1.479   .     S
C1053  C1129   1.405   .     S
C1054  C1056   1.421   .     A
C1054  C1078   1.479   .     S
C1057  N1062   1.377   .     A
C1057  C1081   1.484   .     S
C1058  C1084   1.484   .     S
C1058  N1061   1.377   .     A
C1058  C1293   1.430   .     S
C1059  C1087   1.480   .     S
C1059  N1062   1.375   .     A
C1060  C1090   1.480   .     S
C1060  N1061   1.375   .     A
C1060  C1291   1.430   .     S
N1063  O1065   1.302   .     A
N1063  O1064   1.300   .     A
N1066  O1068   1.302   .     A
N1066  O1067   1.300   .     A
C1069  H1070   1.084   .     S
C1069  O1071   1.221   .     D
C1072  O1074   1.221   .     D
C1072  H1073   1.084   .     S
C1075  O1077   1.222   .     D
C1075  H1076   1.085   .     S
C1078  O1080   1.221   .     D
C1078  H1079   1.084   .     S
C1081  H1082   1.071   .     S
C1081  O1083   1.222   .     D
C1084  H1085   1.071   .     S
C1084  O1086   1.222   .     D
C1087  H1088   1.071   .     S
C1087  O1089   1.222   .     D
C1090  H1091   1.071   .     S
C1090  O1092   1.222   .     D
O1093  C1097   1.303   .     A
O1093  Cu1105  1.998   .     S
O1094  C1098   1.303   .     A
O1094  Cu1106  1.998   .     S
O1095  C1098   1.308   .     A
O1095  Cu1105  1.985   .     S
O1096  C1097   1.308   .     A
O1096  Cu1106  1.985   .     S
C1097  C1134   1.477   .     S
C1098  C1133   1.477   .     S
O1099  C1103   1.301   .     A
O1099  Cu1105  1.963   .     S
O1100  C1104   1.301   .     A
O1100  Cu1106  1.963   .     S
O1101  Cu1105  1.958   .     S
O1101  C1104   1.300   .     A
O1102  Cu1106  1.958   .     S
O1102  C1103   1.300   .     A
C1103  C1110   1.450   .     S
C1104  C1109   1.450   .     S
Cu1105 Cu1106  2.711   .     S
Cu1105 N1139   2.037   .     S
Cu1106 N1140   2.037   .     S
C1107  C1117   1.412   .     A
C1107  C1109   1.411   .     A
C1107  N1141   1.438   .     S
C1108  C1118   1.412   .     A
C1108  C1110   1.411   .     A
C1108  N1144   1.438   .     S
C1109  C1111   1.394   .     A
C1110  C1112   1.394   .     A
C1111  H1123   1.085   .     S
C1111  C1113   1.390   .     A
C1112  C1114   1.390   .     A
C1112  H1124   1.085   .     S
C1113  C1119   1.398   .     A
C1113  C1115   1.411   .     A
C1114  C1120   1.398   .     A
C1114  C1116   1.411   .     A
C1115  C1117   1.419   .     A
C1115  C414    1.409   1_556 S
C1116  C1118   1.419   .     A
C1117  C1122   1.408   .     A
C1118  C1121   1.408   .     A
C1119  H1125   1.084   .     S
C1119  C419    1.391   1_556 S
C1120  H1126   1.084   .     S
C1121  H1127   1.081   .     S
C1122  H1128   1.081   .     S
C1122  C418    1.391   1_556 S
C1129  C1134   1.415   .     A
C1129  C1147   1.495   .     S
C1130  C1150   1.495   .     S
C1130  C1133   1.414   .     A
C1130  C976    1.405   1_655 S
C1131  C1133   1.421   .     A
C1131  C1153   1.479   .     S
C1131  C973    1.405   1_655 S
C1132  C1134   1.421   .     A
C1132  C1156   1.479   .     S
C1135  N1140   1.377   .     A
C1135  C1159   1.484   .     S
C1136  C1162   1.484   .     S
C1136  N1139   1.377   .     A
C1136  C1371   1.430   .     S
C1137  C1165   1.480   .     S
C1137  N1140   1.375   .     A
C1138  C1168   1.480   .     S
C1138  N1139   1.375   .     A
C1138  C1369   1.430   .     S
N1141  O1143   1.302   .     A
N1141  O1142   1.300   .     A
N1144  O1146   1.302   .     A
N1144  O1145   1.300   .     A
C1147  H1148   1.084   .     S
C1147  O1149   1.221   .     D
C1150  O1152   1.221   .     D
C1150  H1151   1.084   .     S
C1153  O1155   1.222   .     D
C1153  H1154   1.085   .     S
C1156  O1158   1.221   .     D
C1156  H1157   1.084   .     S
C1159  H1160   1.071   .     S
C1159  O1161   1.222   .     D
C1162  H1163   1.071   .     S
C1162  O1164   1.222   .     D
C1165  H1166   1.071   .     S
C1165  O1167   1.222   .     D
C1168  H1169   1.071   .     S
C1168  O1170   1.222   .     D
O1171  C1175   1.303   .     A
O1171  Cu1183  1.998   .     S
O1172  C1176   1.303   .     A
O1172  Cu1184  1.998   .     S
O1173  C1176   1.308   .     A
O1173  Cu1183  1.985   .     S
O1174  C1175   1.308   .     A
O1174  Cu1184  1.985   .     S
C1175  C1212   1.477   .     S
C1176  C1211   1.477   .     S
O1177  C1181   1.301   .     A
O1177  Cu1183  1.963   .     S
O1178  C1182   1.301   .     A
O1178  Cu1184  1.963   .     S
O1179  Cu1183  1.958   .     S
O1179  C1182   1.300   .     A
O1180  Cu1184  1.958   .     S
O1180  C1181   1.300   .     A
C1181  C1188   1.450   .     S
C1182  C1187   1.450   .     S
Cu1183 Cu1184  2.711   .     S
Cu1183 N1217   2.037   .     S
Cu1184 N1218   2.037   .     S
C1185  C1195   1.412   .     A
C1185  C1187   1.411   .     A
C1185  N1219   1.438   .     S
C1186  C1196   1.412   .     A
C1186  C1188   1.411   .     A
C1186  N1222   1.438   .     S
C1187  C1189   1.394   .     A
C1188  C1190   1.394   .     A
C1189  H1201   1.085   .     S
C1189  C1191   1.390   .     A
C1190  C1192   1.390   .     A
C1190  H1202   1.085   .     S
C1191  C1197   1.398   .     A
C1191  C1193   1.411   .     A
C1192  C1198   1.398   .     A
C1192  C1194   1.411   .     A
C1193  C1195   1.419   .     A
C1193  C492    1.409   1_556 S
C1194  C1196   1.419   .     A
C1195  C1200   1.408   .     A
C1196  C1199   1.408   .     A
C1197  H1203   1.084   .     S
C1197  C497    1.391   1_556 S
C1198  H1204   1.084   .     S
C1199  H1205   1.081   .     S
C1200  H1206   1.081   .     S
C1200  C496    1.391   1_556 S
C1207  C1212   1.415   .     A
C1207  C1225   1.495   .     S
C1207  C1365   1.405   1_455 S
C1208  C1228   1.495   .     S
C1208  C1211   1.414   .     A
C1208  C1288   1.405   .     S
C1209  C1211   1.421   .     A
C1209  C1231   1.479   .     S
C1209  C1285   1.405   .     S
C1210  C1212   1.421   .     A
C1210  C1234   1.479   .     S
C1210  C1364   1.405   1_455 S
C1213  N1218   1.377   .     A
C1213  C1237   1.484   .     S
C1214  C1240   1.484   .     S
C1214  N1217   1.377   .     A
C1214  C747    1.430   1_565 S
C1215  C1243   1.480   .     S
C1215  N1218   1.375   .     A
C1216  C1246   1.480   .     S
C1216  N1217   1.375   .     A
C1216  C745    1.430   1_565 S
N1219  O1221   1.302   .     A
N1219  O1220   1.300   .     A
N1222  O1224   1.302   .     A
N1222  O1223   1.300   .     A
C1225  H1226   1.084   .     S
C1225  O1227   1.221   .     D
C1228  O1230   1.221   .     D
C1228  H1229   1.084   .     S
C1231  O1233   1.222   .     D
C1231  H1232   1.085   .     S
C1234  O1236   1.221   .     D
C1234  H1235   1.084   .     S
C1237  H1238   1.071   .     S
C1237  O1239   1.222   .     D
C1240  H1241   1.071   .     S
C1240  O1242   1.222   .     D
C1243  H1244   1.071   .     S
C1243  O1245   1.222   .     D
C1246  H1247   1.071   .     S
C1246  O1248   1.222   .     D
O1249  C1253   1.303   .     A
O1249  Cu1261  1.998   .     S
O1250  C1254   1.303   .     A
O1250  Cu1262  1.998   .     S
O1251  C1254   1.308   .     A
O1251  Cu1261  1.985   .     S
O1252  C1253   1.308   .     A
O1252  Cu1262  1.985   .     S
C1253  C1290   1.477   .     S
C1254  C1289   1.477   .     S
O1255  C1259   1.301   .     A
O1255  Cu1261  1.963   .     S
O1256  C1260   1.301   .     A
O1256  Cu1262  1.963   .     S
O1257  Cu1261  1.958   .     S
O1257  C1260   1.300   .     A
O1258  Cu1262  1.958   .     S
O1258  C1259   1.300   .     A
C1259  C1266   1.450   .     S
C1260  C1265   1.450   .     S
Cu1261 Cu1262  2.711   .     S
Cu1261 N1295   2.037   .     S
Cu1262 N1296   2.037   .     S
C1263  C1273   1.412   .     A
C1263  C1265   1.411   .     A
C1263  N1297   1.438   .     S
C1264  C1274   1.412   .     A
C1264  C1266   1.411   .     A
C1264  N1300   1.438   .     S
C1265  C1267   1.394   .     A
C1266  C1268   1.394   .     A
C1267  H1279   1.085   .     S
C1267  C1269   1.390   .     A
C1268  C1270   1.390   .     A
C1268  H1280   1.085   .     S
C1269  C1275   1.398   .     A
C1269  C1271   1.411   .     A
C1270  C1276   1.398   .     A
C1270  C1272   1.411   .     A
C1271  C1273   1.419   .     A
C1271  C570    1.409   1_556 S
C1272  C1274   1.419   .     A
C1273  C1278   1.408   .     A
C1274  C1277   1.408   .     A
C1275  H1281   1.084   .     S
C1275  C575    1.391   1_556 S
C1276  H1282   1.084   .     S
C1277  H1283   1.081   .     S
C1278  H1284   1.081   .     S
C1278  C574    1.391   1_556 S
C1285  C1290   1.415   .     A
C1285  C1303   1.495   .     S
C1286  C1306   1.495   .     S
C1286  C1289   1.414   .     A
C1286  C1366   1.405   .     S
C1287  C1289   1.421   .     A
C1287  C1309   1.479   .     S
C1287  C1363   1.405   .     S
C1288  C1290   1.421   .     A
C1288  C1312   1.479   .     S
C1291  N1296   1.377   .     A
C1291  C1315   1.484   .     S
C1292  C1318   1.484   .     S
C1292  N1295   1.377   .     A
C1292  C825    1.430   1_565 S
C1293  C1321   1.480   .     S
C1293  N1296   1.375   .     A
C1294  C1324   1.480   .     S
C1294  N1295   1.375   .     A
C1294  C823    1.430   1_565 S
N1297  O1299   1.302   .     A
N1297  O1298   1.300   .     A
N1300  O1302   1.302   .     A
N1300  O1301   1.300   .     A
C1303  H1304   1.084   .     S
C1303  O1305   1.221   .     D
C1306  O1308   1.221   .     D
C1306  H1307   1.084   .     S
C1309  O1311   1.222   .     D
C1309  H1310   1.085   .     S
C1312  O1314   1.221   .     D
C1312  H1313   1.084   .     S
C1315  H1316   1.071   .     S
C1315  O1317   1.222   .     D
C1318  H1319   1.071   .     S
C1318  O1320   1.222   .     D
C1321  H1322   1.071   .     S
C1321  O1323   1.222   .     D
C1324  H1325   1.071   .     S
C1324  O1326   1.222   .     D
O1327  C1331   1.303   .     A
O1327  Cu1339  1.998   .     S
O1328  C1332   1.303   .     A
O1328  Cu1340  1.998   .     S
O1329  C1332   1.308   .     A
O1329  Cu1339  1.985   .     S
O1330  C1331   1.308   .     A
O1330  Cu1340  1.985   .     S
C1331  C1368   1.477   .     S
C1332  C1367   1.477   .     S
O1333  C1337   1.301   .     A
O1333  Cu1339  1.963   .     S
O1334  C1338   1.301   .     A
O1334  Cu1340  1.963   .     S
O1335  Cu1339  1.958   .     S
O1335  C1338   1.300   .     A
O1336  Cu1340  1.958   .     S
O1336  C1337   1.300   .     A
C1337  C1344   1.450   .     S
C1338  C1343   1.450   .     S
Cu1339 Cu1340  2.711   .     S
Cu1339 N1373   2.037   .     S
Cu1340 N1374   2.037   .     S
C1341  C1351   1.412   .     A
C1341  C1343   1.411   .     A
C1341  N1375   1.438   .     S
C1342  C1352   1.412   .     A
C1342  C1344   1.411   .     A
C1342  N1378   1.438   .     S
C1343  C1345   1.394   .     A
C1344  C1346   1.394   .     A
C1345  H1357   1.085   .     S
C1345  C1347   1.390   .     A
C1346  C1348   1.390   .     A
C1346  H1358   1.085   .     S
C1347  C1353   1.398   .     A
C1347  C1349   1.411   .     A
C1348  C1354   1.398   .     A
C1348  C1350   1.411   .     A
C1349  C1351   1.419   .     A
C1349  C648    1.409   1_556 S
C1350  C1352   1.419   .     A
C1351  C1356   1.408   .     A
C1352  C1355   1.408   .     A
C1353  H1359   1.084   .     S
C1353  C653    1.391   1_556 S
C1354  H1360   1.084   .     S
C1355  H1361   1.081   .     S
C1356  H1362   1.081   .     S
C1356  C652    1.391   1_556 S
C1363  C1368   1.415   .     A
C1363  C1381   1.495   .     S
C1364  C1384   1.495   .     S
C1364  C1367   1.414   .     A
C1364  C1210   1.405   1_655 S
C1365  C1367   1.421   .     A
C1365  C1387   1.479   .     S
C1365  C1207   1.405   1_655 S
C1366  C1368   1.421   .     A
C1366  C1390   1.479   .     S
C1369  N1374   1.377   .     A
C1369  C1393   1.484   .     S
C1370  C1396   1.484   .     S
C1370  N1373   1.377   .     A
C1370  C903    1.430   1_565 S
C1371  C1399   1.480   .     S
C1371  N1374   1.375   .     A
C1372  C1402   1.480   .     S
C1372  N1373   1.375   .     A
C1372  C901    1.430   1_565 S
N1375  O1377   1.302   .     A
N1375  O1376   1.300   .     A
N1378  O1380   1.302   .     A
N1378  O1379   1.300   .     A
C1381  H1382   1.084   .     S
C1381  O1383   1.221   .     D
C1384  O1386   1.221   .     D
C1384  H1385   1.084   .     S
C1387  O1389   1.222   .     D
C1387  H1388   1.085   .     S
C1390  O1392   1.221   .     D
C1390  H1391   1.084   .     S
C1393  H1394   1.071   .     S
C1393  O1395   1.222   .     D
C1396  H1397   1.071   .     S
C1396  O1398   1.222   .     D
C1399  H1400   1.071   .     S
C1399  O1401   1.222   .     D
C1402  H1403   1.071   .     S
C1402  O1404   1.222   .     D
