data_str_m1_o1_o1_pcu_sym.11
_audit_creation_date              2020-01-03
_audit_creation_method            'Materials Studio'
_symmetry_space_group_name_H-M    'P1'
_symmetry_Int_Tables_number       1
_symmetry_cell_setting            triclinic
loop_
_symmetry_equiv_pos_as_xyz
  x,y,z
_cell_length_a                    25.8671
_cell_length_b                    25.8671
_cell_length_c                    25.8671
_cell_angle_alpha                 90.0000
_cell_angle_beta                  90.0000
_cell_angle_gamma                 90.0000
loop_
_atom_site_label
_atom_site_type_symbol
_atom_site_fract_x
_atom_site_fract_y
_atom_site_fract_z
_atom_site_U_iso_or_equiv
_atom_site_adp_type
_atom_site_occupancy
Br1    Br    0.28379   0.43562   0.14318   0.00000  Uiso   1.00
Br2    Br    0.56438   0.14318   0.28379   0.00000  Uiso   1.00
Br3    Br    0.43562   0.14318   0.71621   0.00000  Uiso   1.00
Br4    Br    0.56438   0.85682   0.28379   0.00000  Uiso   1.00
Br5    Br    0.43562   0.14318   0.28379   0.00000  Uiso   1.00
Br6    Br    0.56438   0.85682   0.71621   0.00000  Uiso   1.00
Br7    Br    0.43562   0.85682   0.28379   0.00000  Uiso   1.00
Br8    Br    0.56438   0.14318   0.71621   0.00000  Uiso   1.00
Br9    Br    0.85682   0.28379   0.56438   0.00000  Uiso   1.00
Br10   Br    0.14318   0.71621   0.43562   0.00000  Uiso   1.00
Br11   Br    0.14318   0.28379   0.56438   0.00000  Uiso   1.00
Br12   Br    0.71621   0.56438   0.85682   0.00000  Uiso   1.00
Br13   Br    0.85682   0.71621   0.43562   0.00000  Uiso   1.00
Br14   Br    0.14318   0.71621   0.56438   0.00000  Uiso   1.00
Br15   Br    0.85682   0.28379   0.43562   0.00000  Uiso   1.00
Br16   Br    0.85682   0.71621   0.56438   0.00000  Uiso   1.00
Br17   Br    0.14318   0.28379   0.43562   0.00000  Uiso   1.00
Br18   Br    0.78379   0.93562   0.14318   0.00000  Uiso   1.00
Br19   Br    0.21622   0.06438   0.85682   0.00000  Uiso   1.00
Br20   Br    0.28378   0.93562   0.35683   0.00000  Uiso   1.00
Br21   Br    0.71621   0.06438   0.64318   0.00000  Uiso   1.00
Br22   Br    0.21622   0.93562   0.85682   0.00000  Uiso   1.00
Br23   Br    0.28379   0.43562   0.85682   0.00000  Uiso   1.00
Br24   Br    0.78379   0.06438   0.14318   0.00000  Uiso   1.00
Br25   Br    0.71621   0.93562   0.64318   0.00000  Uiso   1.00
Br26   Br    0.28378   0.06438   0.35683   0.00000  Uiso   1.00
Br27   Br    0.78379   0.06438   0.85682   0.00000  Uiso   1.00
Br28   Br    0.21622   0.93562   0.14318   0.00000  Uiso   1.00
Br29   Br    0.28378   0.06438   0.64318   0.00000  Uiso   1.00
Br30   Br    0.71621   0.93562   0.35682   0.00000  Uiso   1.00
Br31   Br    0.21622   0.06438   0.14318   0.00000  Uiso   1.00
Br32   Br    0.78379   0.93562   0.85682   0.00000  Uiso   1.00
Br33   Br    0.71621   0.06438   0.35682   0.00000  Uiso   1.00
Br34   Br    0.71620   0.56438   0.14318   0.00000  Uiso   1.00
Br35   Br    0.28378   0.93562   0.64318   0.00000  Uiso   1.00
Br36   Br    0.93562   0.85682   0.21621   0.00000  Uiso   1.00
Br37   Br    0.06438   0.14318   0.78379   0.00000  Uiso   1.00
Br38   Br    0.93562   0.64318   0.71622   0.00000  Uiso   1.00
Br39   Br    0.06438   0.35682   0.28379   0.00000  Uiso   1.00
Br40   Br    0.93562   0.14318   0.78379   0.00000  Uiso   1.00
Br41   Br    0.06438   0.85682   0.21621   0.00000  Uiso   1.00
Br42   Br    0.93562   0.35682   0.28379   0.00000  Uiso   1.00
Br43   Br    0.06438   0.64318   0.71622   0.00000  Uiso   1.00
Br44   Br    0.06438   0.14318   0.21622   0.00000  Uiso   1.00
Br45   Br    0.71621   0.43562   0.85682   0.00000  Uiso   1.00
Br46   Br    0.93562   0.85682   0.78378   0.00000  Uiso   1.00
Br47   Br    0.06438   0.35682   0.71621   0.00000  Uiso   1.00
Br48   Br    0.93562   0.64318   0.28379   0.00000  Uiso   1.00
Br49   Br    0.06438   0.85682   0.78378   0.00000  Uiso   1.00
Br50   Br    0.93562   0.14318   0.21622   0.00000  Uiso   1.00
Br51   Br    0.06438   0.64318   0.28379   0.00000  Uiso   1.00
Br52   Br    0.93562   0.35682   0.71621   0.00000  Uiso   1.00
Br53   Br    0.85682   0.78379   0.06438   0.00000  Uiso   1.00
Br54   Br    0.14318   0.21622   0.93562   0.00000  Uiso   1.00
Br55   Br    0.64318   0.28379   0.06438   0.00000  Uiso   1.00
Br56   Br    0.28379   0.56438   0.14318   0.00000  Uiso   1.00
Br57   Br    0.35682   0.71621   0.93562   0.00000  Uiso   1.00
Br58   Br    0.14317   0.21622   0.06438   0.00000  Uiso   1.00
Br59   Br    0.85682   0.78379   0.93562   0.00000  Uiso   1.00
Br60   Br    0.35682   0.71621   0.06438   0.00000  Uiso   1.00
Br61   Br    0.64318   0.28379   0.93562   0.00000  Uiso   1.00
Br62   Br    0.14318   0.78378   0.93562   0.00000  Uiso   1.00
Br63   Br    0.85682   0.21621   0.06438   0.00000  Uiso   1.00
Br64   Br    0.35682   0.28378   0.93562   0.00000  Uiso   1.00
Br65   Br    0.64318   0.71621   0.06438   0.00000  Uiso   1.00
Br66   Br    0.85682   0.21621   0.93562   0.00000  Uiso   1.00
Br67   Br    0.71620   0.43562   0.14318   0.00000  Uiso   1.00
Br68   Br    0.14318   0.78379   0.06438   0.00000  Uiso   1.00
Br69   Br    0.64318   0.71622   0.93562   0.00000  Uiso   1.00
Br70   Br    0.35682   0.28378   0.06438   0.00000  Uiso   1.00
Br71   Br    0.78379   0.43562   0.64318   0.00000  Uiso   1.00
Br72   Br    0.21621   0.56438   0.35682   0.00000  Uiso   1.00
Br73   Br    0.78380   0.43562   0.35682   0.00000  Uiso   1.00
Br74   Br    0.21621   0.56438   0.64318   0.00000  Uiso   1.00
Br75   Br    0.21621   0.43562   0.35682   0.00000  Uiso   1.00
Br76   Br    0.78379   0.56438   0.64318   0.00000  Uiso   1.00
Br77   Br    0.21621   0.43562   0.64318   0.00000  Uiso   1.00
Br78   Br    0.28379   0.56438   0.85682   0.00000  Uiso   1.00
Br79   Br    0.78380   0.56438   0.35682   0.00000  Uiso   1.00
Br80   Br    0.43562   0.35682   0.21622   0.00000  Uiso   1.00
Br81   Br    0.56438   0.64318   0.78379   0.00000  Uiso   1.00
Br82   Br    0.43562   0.64318   0.21621   0.00000  Uiso   1.00
Br83   Br    0.56438   0.35682   0.78379   0.00000  Uiso   1.00
Br84   Br    0.43562   0.64318   0.78379   0.00000  Uiso   1.00
Br85   Br    0.56438   0.35682   0.21621   0.00000  Uiso   1.00
Br86   Br    0.43562   0.35682   0.78379   0.00000  Uiso   1.00
Br87   Br    0.56438   0.64318   0.21621   0.00000  Uiso   1.00
Br88   Br    0.35682   0.78379   0.56438   0.00000  Uiso   1.00
Br89   Br    0.43562   0.85682   0.71621   0.00000  Uiso   1.00
Br90   Br    0.64318   0.21621   0.43562   0.00000  Uiso   1.00
Br91   Br    0.64318   0.78379   0.56438   0.00000  Uiso   1.00
Br92   Br    0.35682   0.21621   0.43562   0.00000  Uiso   1.00
Br93   Br    0.64318   0.21621   0.56438   0.00000  Uiso   1.00
Br94   Br    0.35682   0.78379   0.43562   0.00000  Uiso   1.00
Br95   Br    0.35682   0.21621   0.56438   0.00000  Uiso   1.00
Br96   Br    0.64318   0.78379   0.43562   0.00000  Uiso   1.00
C1     C     0.39008   0.25000   0.25000   0.00000  Uiso   1.00
C2     C     0.60992   0.25000   0.25000   0.00000  Uiso   1.00
C3     C     0.97296   0.70457   0.26330   0.00000  Uiso   1.00
C4     C     0.02704   0.79543   0.76330   0.00000  Uiso   1.00
C5     C     0.97296   0.20457   0.23670   0.00000  Uiso   1.00
C6     C     0.02704   0.70457   0.26330   0.00000  Uiso   1.00
C7     C     0.97296   0.29543   0.73670   0.00000  Uiso   1.00
C8     C     0.79543   0.76330   0.02704   0.00000  Uiso   1.00
C9     C     0.20457   0.23670   0.97296   0.00000  Uiso   1.00
C10    C     0.70457   0.26330   0.02704   0.00000  Uiso   1.00
C11    C     0.29543   0.73670   0.97296   0.00000  Uiso   1.00
C12    C     0.20457   0.23670   0.02704   0.00000  Uiso   1.00
C13    C     0.25000   0.75000   0.39008   0.00000  Uiso   1.00
C14    C     0.79543   0.76330   0.97296   0.00000  Uiso   1.00
C15    C     0.29543   0.73670   0.02704   0.00000  Uiso   1.00
C16    C     0.70457   0.26330   0.97296   0.00000  Uiso   1.00
C17    C     0.20457   0.76330   0.97296   0.00000  Uiso   1.00
C18    C     0.79543   0.23670   0.02704   0.00000  Uiso   1.00
C19    C     0.29543   0.26330   0.97296   0.00000  Uiso   1.00
C20    C     0.70457   0.73670   0.02704   0.00000  Uiso   1.00
C21    C     0.79543   0.23670   0.97296   0.00000  Uiso   1.00
C22    C     0.20457   0.76330   0.02704   0.00000  Uiso   1.00
C23    C     0.70457   0.73670   0.97296   0.00000  Uiso   1.00
C24    C     0.75000   0.25000   0.60992   0.00000  Uiso   1.00
C25    C     0.29543   0.26330   0.02704   0.00000  Uiso   1.00
C26    C     0.76330   0.47296   0.70457   0.00000  Uiso   1.00
C27    C     0.23670   0.52704   0.29543   0.00000  Uiso   1.00
C28    C     0.76330   0.47296   0.29543   0.00000  Uiso   1.00
C29    C     0.23670   0.52704   0.70457   0.00000  Uiso   1.00
C30    C     0.23670   0.47296   0.29543   0.00000  Uiso   1.00
C31    C     0.76330   0.52704   0.70457   0.00000  Uiso   1.00
C32    C     0.23670   0.47296   0.70457   0.00000  Uiso   1.00
C33    C     0.76330   0.52704   0.29543   0.00000  Uiso   1.00
C34    C     0.47296   0.29543   0.23670   0.00000  Uiso   1.00
C35    C     0.60992   0.75000   0.25000   0.00000  Uiso   1.00
C36    C     0.52704   0.70457   0.76330   0.00000  Uiso   1.00
C37    C     0.47296   0.70457   0.23670   0.00000  Uiso   1.00
C38    C     0.52704   0.29543   0.76330   0.00000  Uiso   1.00
C39    C     0.47296   0.70457   0.76330   0.00000  Uiso   1.00
C40    C     0.52704   0.29543   0.23670   0.00000  Uiso   1.00
C41    C     0.47296   0.29543   0.76330   0.00000  Uiso   1.00
C42    C     0.52704   0.70457   0.23670   0.00000  Uiso   1.00
C43    C     0.29543   0.76330   0.52704   0.00000  Uiso   1.00
C44    C     0.70457   0.23670   0.47296   0.00000  Uiso   1.00
C45    C     0.70457   0.76330   0.52704   0.00000  Uiso   1.00
C46    C     0.39008   0.25000   0.75000   0.00000  Uiso   1.00
C47    C     0.29543   0.23670   0.47296   0.00000  Uiso   1.00
C48    C     0.70457   0.23670   0.52704   0.00000  Uiso   1.00
C49    C     0.29543   0.76330   0.47296   0.00000  Uiso   1.00
C50    C     0.29543   0.23670   0.52704   0.00000  Uiso   1.00
C51    C     0.70457   0.76330   0.47296   0.00000  Uiso   1.00
C52    C     0.25000   0.55382   0.25000   0.00000  Uiso   1.00
C53    C     0.75000   0.44618   0.75000   0.00000  Uiso   1.00
C54    C     0.25000   0.55382   0.75000   0.00000  Uiso   1.00
C55    C     0.75000   0.44618   0.25000   0.00000  Uiso   1.00
C56    C     0.75000   0.55382   0.75000   0.00000  Uiso   1.00
C57    C     0.75000   0.75000   0.60992   0.00000  Uiso   1.00
C58    C     0.25000   0.44618   0.25000   0.00000  Uiso   1.00
C59    C     0.75000   0.55382   0.25000   0.00000  Uiso   1.00
C60    C     0.25000   0.44618   0.75000   0.00000  Uiso   1.00
C61    C     0.55382   0.75000   0.75000   0.00000  Uiso   1.00
C62    C     0.44618   0.25000   0.25000   0.00000  Uiso   1.00
C63    C     0.55382   0.25000   0.75000   0.00000  Uiso   1.00
C64    C     0.44618   0.75000   0.25000   0.00000  Uiso   1.00
C65    C     0.55382   0.25000   0.25000   0.00000  Uiso   1.00
C66    C     0.44618   0.75000   0.75000   0.00000  Uiso   1.00
C67    C     0.55382   0.75000   0.25000   0.00000  Uiso   1.00
C68    C     0.25000   0.25000   0.39008   0.00000  Uiso   1.00
C69    C     0.44618   0.25000   0.75000   0.00000  Uiso   1.00
C70    C     0.75000   0.25000   0.44618   0.00000  Uiso   1.00
C71    C     0.25000   0.75000   0.55382   0.00000  Uiso   1.00
C72    C     0.25000   0.25000   0.44618   0.00000  Uiso   1.00
C73    C     0.75000   0.75000   0.55382   0.00000  Uiso   1.00
C74    C     0.25000   0.75000   0.44618   0.00000  Uiso   1.00
C75    C     0.75000   0.25000   0.55382   0.00000  Uiso   1.00
C76    C     0.75000   0.75000   0.44618   0.00000  Uiso   1.00
C77    C     0.25000   0.25000   0.55382   0.00000  Uiso   1.00
C78    C     0.75000   0.05382   0.25000   0.00000  Uiso   1.00
C79    C     0.25000   0.39008   0.75000   0.00000  Uiso   1.00
C80    C     0.25000   0.94618   0.75000   0.00000  Uiso   1.00
C81    C     0.25000   0.05382   0.25000   0.00000  Uiso   1.00
C82    C     0.75000   0.94618   0.75000   0.00000  Uiso   1.00
C83    C     0.25000   0.05382   0.75000   0.00000  Uiso   1.00
C84    C     0.75000   0.94618   0.25000   0.00000  Uiso   1.00
C85    C     0.75000   0.05382   0.75000   0.00000  Uiso   1.00
C86    C     0.25000   0.94618   0.25000   0.00000  Uiso   1.00
C87    C     0.05382   0.75000   0.25000   0.00000  Uiso   1.00
C88    C     0.94618   0.25000   0.75000   0.00000  Uiso   1.00
C89    C     0.05382   0.75000   0.75000   0.00000  Uiso   1.00
C90    C     0.75000   0.60992   0.25000   0.00000  Uiso   1.00
C91    C     0.94618   0.25000   0.25000   0.00000  Uiso   1.00
C92    C     0.05382   0.25000   0.75000   0.00000  Uiso   1.00
C93    C     0.94618   0.75000   0.25000   0.00000  Uiso   1.00
C94    C     0.05382   0.25000   0.25000   0.00000  Uiso   1.00
C95    C     0.94618   0.75000   0.75000   0.00000  Uiso   1.00
C96    C     0.75000   0.75000   0.94618   0.00000  Uiso   1.00
C97    C     0.25000   0.25000   0.05382   0.00000  Uiso   1.00
C98    C     0.75000   0.25000   0.94618   0.00000  Uiso   1.00
C99    C     0.25000   0.75000   0.05382   0.00000  Uiso   1.00
C100   C     0.25000   0.25000   0.94618   0.00000  Uiso   1.00
C101   C     0.25000   0.60992   0.25000   0.00000  Uiso   1.00
C102   C     0.75000   0.75000   0.05382   0.00000  Uiso   1.00
C103   C     0.25000   0.75000   0.94618   0.00000  Uiso   1.00
C104   C     0.75000   0.25000   0.05382   0.00000  Uiso   1.00
C105   C     0.60992   0.75000   0.75000   0.00000  Uiso   1.00
C106   C     0.75000   0.39008   0.75000   0.00000  Uiso   1.00
C107   C     0.75000   0.60992   0.75000   0.00000  Uiso   1.00
C108   C     0.25000   0.39008   0.25000   0.00000  Uiso   1.00
C109   C     0.75000   0.39008   0.25000   0.00000  Uiso   1.00
C110   C     0.25000   0.60992   0.75000   0.00000  Uiso   1.00
C111   C     0.89008   0.75000   0.25000   0.00000  Uiso   1.00
C112   C     0.10992   0.25000   0.75000   0.00000  Uiso   1.00
C113   C     0.25000   0.75000   0.10992   0.00000  Uiso   1.00
C114   C     0.75000   0.25000   0.89008   0.00000  Uiso   1.00
C115   C     0.10992   0.75000   0.75000   0.00000  Uiso   1.00
C116   C     0.25000   0.25000   0.60992   0.00000  Uiso   1.00
C117   C     0.89008   0.25000   0.25000   0.00000  Uiso   1.00
C118   C     0.75000   0.75000   0.89008   0.00000  Uiso   1.00
C119   C     0.25000   0.25000   0.10992   0.00000  Uiso   1.00
C120   C     0.89008   0.25000   0.75000   0.00000  Uiso   1.00
C121   C     0.10992   0.75000   0.25000   0.00000  Uiso   1.00
C122   C     0.25000   0.25000   0.89008   0.00000  Uiso   1.00
C123   C     0.75000   0.75000   0.10992   0.00000  Uiso   1.00
C124   C     0.10992   0.25000   0.25000   0.00000  Uiso   1.00
C125   C     0.89008   0.75000   0.75000   0.00000  Uiso   1.00
C126   C     0.75000   0.25000   0.10992   0.00000  Uiso   1.00
C127   C     0.75000   0.75000   0.39008   0.00000  Uiso   1.00
C128   C     0.25000   0.75000   0.89008   0.00000  Uiso   1.00
C129   C     0.75000   0.89008   0.75000   0.00000  Uiso   1.00
C130   C     0.25000   0.10992   0.25000   0.00000  Uiso   1.00
C131   C     0.75000   0.10992   0.25000   0.00000  Uiso   1.00
C132   C     0.25000   0.89008   0.75000   0.00000  Uiso   1.00
C133   C     0.25000   0.10992   0.75000   0.00000  Uiso   1.00
C134   C     0.75000   0.89008   0.25000   0.00000  Uiso   1.00
C135   C     0.25000   0.89008   0.25000   0.00000  Uiso   1.00
C136   C     0.75000   0.10992   0.75000   0.00000  Uiso   1.00
C137   C     0.26330   0.47296   0.20457   0.00000  Uiso   1.00
C138   C     0.60992   0.25000   0.75000   0.00000  Uiso   1.00
C139   C     0.73670   0.52704   0.79543   0.00000  Uiso   1.00
C140   C     0.26330   0.47296   0.79543   0.00000  Uiso   1.00
C141   C     0.73669   0.52704   0.20457   0.00000  Uiso   1.00
C142   C     0.73670   0.47296   0.79543   0.00000  Uiso   1.00
C143   C     0.26330   0.52704   0.20457   0.00000  Uiso   1.00
C144   C     0.73669   0.47296   0.20457   0.00000  Uiso   1.00
C145   C     0.26330   0.52704   0.79543   0.00000  Uiso   1.00
C146   C     0.47296   0.79543   0.73670   0.00000  Uiso   1.00
C147   C     0.52704   0.20457   0.26330   0.00000  Uiso   1.00
C148   C     0.47296   0.20457   0.73670   0.00000  Uiso   1.00
C149   C     0.39008   0.75000   0.25000   0.00000  Uiso   1.00
C150   C     0.52704   0.79543   0.26330   0.00000  Uiso   1.00
C151   C     0.47296   0.20457   0.26330   0.00000  Uiso   1.00
C152   C     0.52704   0.79543   0.73670   0.00000  Uiso   1.00
C153   C     0.47296   0.79543   0.26330   0.00000  Uiso   1.00
C154   C     0.52704   0.20457   0.73670   0.00000  Uiso   1.00
C155   C     0.79543   0.26330   0.52704   0.00000  Uiso   1.00
C156   C     0.20457   0.73670   0.47296   0.00000  Uiso   1.00
C157   C     0.20457   0.26330   0.52704   0.00000  Uiso   1.00
C158   C     0.79543   0.73670   0.47296   0.00000  Uiso   1.00
C159   C     0.20457   0.73670   0.52704   0.00000  Uiso   1.00
C160   C     0.75000   0.25000   0.39008   0.00000  Uiso   1.00
C161   C     0.79543   0.26330   0.47296   0.00000  Uiso   1.00
C162   C     0.79543   0.73670   0.52704   0.00000  Uiso   1.00
C163   C     0.20457   0.26330   0.47296   0.00000  Uiso   1.00
C164   C     0.76330   0.97296   0.20457   0.00000  Uiso   1.00
C165   C     0.23670   0.02704   0.79543   0.00000  Uiso   1.00
C166   C     0.26329   0.97296   0.29543   0.00000  Uiso   1.00
C167   C     0.73670   0.02704   0.70457   0.00000  Uiso   1.00
C168   C     0.23670   0.97296   0.79543   0.00000  Uiso   1.00
C169   C     0.76330   0.02704   0.20457   0.00000  Uiso   1.00
C170   C     0.73670   0.97296   0.70457   0.00000  Uiso   1.00
C171   C     0.25000   0.75000   0.60992   0.00000  Uiso   1.00
C172   C     0.26329   0.02704   0.29543   0.00000  Uiso   1.00
C173   C     0.76330   0.02704   0.79543   0.00000  Uiso   1.00
C174   C     0.23670   0.97296   0.20457   0.00000  Uiso   1.00
C175   C     0.26330   0.02704   0.70457   0.00000  Uiso   1.00
C176   C     0.73670   0.97296   0.29543   0.00000  Uiso   1.00
C177   C     0.23670   0.02704   0.20457   0.00000  Uiso   1.00
C178   C     0.76330   0.97296   0.79543   0.00000  Uiso   1.00
C179   C     0.73670   0.02704   0.29543   0.00000  Uiso   1.00
C180   C     0.26330   0.97296   0.70457   0.00000  Uiso   1.00
C181   C     0.97296   0.79543   0.23670   0.00000  Uiso   1.00
C182   C     0.39008   0.75000   0.75000   0.00000  Uiso   1.00
C183   C     0.02704   0.20457   0.76330   0.00000  Uiso   1.00
C184   C     0.97296   0.70457   0.73670   0.00000  Uiso   1.00
C185   C     0.02704   0.29543   0.26330   0.00000  Uiso   1.00
C186   C     0.97296   0.20457   0.76330   0.00000  Uiso   1.00
C187   C     0.02704   0.79543   0.23670   0.00000  Uiso   1.00
C188   C     0.97296   0.29543   0.26330   0.00000  Uiso   1.00
C189   C     0.02704   0.70457   0.73670   0.00000  Uiso   1.00
C190   C     0.02704   0.20457   0.23670   0.00000  Uiso   1.00
C191   C     0.97296   0.79543   0.76330   0.00000  Uiso   1.00
C192   C     0.02704   0.29543   0.73670   0.00000  Uiso   1.00
O1     O     0.25000   0.25000   0.25000   0.00000  Uiso   1.00
O2     O     0.63420   0.71971   0.71971   0.00000  Uiso   1.00
O3     O     0.21971   0.36580   0.21971   0.00000  Uiso   1.00
O4     O     0.21971   0.63420   0.21971   0.00000  Uiso   1.00
O5     O     0.78029   0.36580   0.78029   0.00000  Uiso   1.00
O6     O     0.21971   0.36580   0.78029   0.00000  Uiso   1.00
O7     O     0.78029   0.63420   0.21971   0.00000  Uiso   1.00
O8     O     0.28029   0.28029   0.63420   0.00000  Uiso   1.00
O9     O     0.71971   0.71971   0.36580   0.00000  Uiso   1.00
O10    O     0.63420   0.28029   0.71971   0.00000  Uiso   1.00
O11    O     0.36580   0.71971   0.28029   0.00000  Uiso   1.00
O12    O     0.71971   0.28029   0.36580   0.00000  Uiso   1.00
O13    O     0.28029   0.71971   0.63420   0.00000  Uiso   1.00
O14    O     0.36580   0.71971   0.71971   0.00000  Uiso   1.00
O15    O     0.63420   0.28029   0.28029   0.00000  Uiso   1.00
O16    O     0.28029   0.71971   0.36580   0.00000  Uiso   1.00
O17    O     0.75000   0.75000   0.75000   0.00000  Uiso   1.00
O18    O     0.71971   0.28029   0.63420   0.00000  Uiso   1.00
O19    O     0.63420   0.71971   0.28029   0.00000  Uiso   1.00
O20    O     0.36580   0.28029   0.71971   0.00000  Uiso   1.00
O21    O     0.71971   0.71971   0.63420   0.00000  Uiso   1.00
O22    O     0.28029   0.28029   0.36580   0.00000  Uiso   1.00
O23    O     0.28029   0.36580   0.71971   0.00000  Uiso   1.00
O24    O     0.71971   0.63420   0.28029   0.00000  Uiso   1.00
O25    O     0.28029   0.63420   0.28029   0.00000  Uiso   1.00
O26    O     0.71971   0.36580   0.71971   0.00000  Uiso   1.00
O27    O     0.71971   0.63420   0.71971   0.00000  Uiso   1.00
O28    O     0.25000   0.25000   0.75000   0.00000  Uiso   1.00
O29    O     0.28029   0.36580   0.28029   0.00000  Uiso   1.00
O30    O     0.71971   0.36580   0.28029   0.00000  Uiso   1.00
O31    O     0.28029   0.63420   0.71971   0.00000  Uiso   1.00
O32    O     0.86580   0.78029   0.28029   0.00000  Uiso   1.00
O33    O     0.13420   0.21971   0.71971   0.00000  Uiso   1.00
O34    O     0.28029   0.78029   0.13420   0.00000  Uiso   1.00
O35    O     0.71971   0.21971   0.86580   0.00000  Uiso   1.00
O36    O     0.13420   0.78029   0.71971   0.00000  Uiso   1.00
O37    O     0.86580   0.21971   0.28029   0.00000  Uiso   1.00
O38    O     0.71971   0.78029   0.86580   0.00000  Uiso   1.00
O39    O     0.75000   0.75000   0.25000   0.00000  Uiso   1.00
O40    O     0.28029   0.21971   0.13420   0.00000  Uiso   1.00
O41    O     0.86580   0.21971   0.71971   0.00000  Uiso   1.00
O42    O     0.13420   0.78029   0.28029   0.00000  Uiso   1.00
O43    O     0.28029   0.21971   0.86580   0.00000  Uiso   1.00
O44    O     0.71971   0.78029   0.13420   0.00000  Uiso   1.00
O45    O     0.13420   0.21971   0.28029   0.00000  Uiso   1.00
O46    O     0.86580   0.78029   0.71971   0.00000  Uiso   1.00
O47    O     0.71971   0.21971   0.13420   0.00000  Uiso   1.00
O48    O     0.28029   0.78029   0.86580   0.00000  Uiso   1.00
O49    O     0.78029   0.71971   0.13420   0.00000  Uiso   1.00
O50    O     0.75000   0.25000   0.75000   0.00000  Uiso   1.00
O51    O     0.21971   0.28029   0.86580   0.00000  Uiso   1.00
O52    O     0.78029   0.86580   0.71971   0.00000  Uiso   1.00
O53    O     0.21971   0.13420   0.28029   0.00000  Uiso   1.00
O54    O     0.78029   0.28029   0.86580   0.00000  Uiso   1.00
O55    O     0.21971   0.71971   0.13420   0.00000  Uiso   1.00
O56    O     0.78029   0.13420   0.28029   0.00000  Uiso   1.00
O57    O     0.21971   0.86580   0.71971   0.00000  Uiso   1.00
O58    O     0.21971   0.28029   0.13420   0.00000  Uiso   1.00
O59    O     0.78029   0.71971   0.86580   0.00000  Uiso   1.00
O60    O     0.21971   0.13420   0.71971   0.00000  Uiso   1.00
O61    O     0.25000   0.75000   0.25000   0.00000  Uiso   1.00
O62    O     0.78029   0.86580   0.28029   0.00000  Uiso   1.00
O63    O     0.21971   0.71971   0.86580   0.00000  Uiso   1.00
O64    O     0.78029   0.28029   0.13420   0.00000  Uiso   1.00
O65    O     0.21971   0.86580   0.28029   0.00000  Uiso   1.00
O66    O     0.78029   0.13420   0.71971   0.00000  Uiso   1.00
O67    O     0.71971   0.86580   0.21971   0.00000  Uiso   1.00
O68    O     0.28029   0.13420   0.78029   0.00000  Uiso   1.00
O69    O     0.86580   0.28029   0.21971   0.00000  Uiso   1.00
O70    O     0.13420   0.71971   0.78029   0.00000  Uiso   1.00
O71    O     0.28029   0.13420   0.21971   0.00000  Uiso   1.00
O72    O     0.75000   0.25000   0.25000   0.00000  Uiso   1.00
O73    O     0.71971   0.86580   0.78029   0.00000  Uiso   1.00
O74    O     0.13420   0.71971   0.21971   0.00000  Uiso   1.00
O75    O     0.86580   0.28029   0.78029   0.00000  Uiso   1.00
O76    O     0.28029   0.86580   0.78029   0.00000  Uiso   1.00
O77    O     0.71971   0.13420   0.21971   0.00000  Uiso   1.00
O78    O     0.13420   0.28029   0.78029   0.00000  Uiso   1.00
O79    O     0.86580   0.71971   0.21971   0.00000  Uiso   1.00
O80    O     0.71971   0.13420   0.78029   0.00000  Uiso   1.00
O81    O     0.28029   0.86580   0.21971   0.00000  Uiso   1.00
O82    O     0.86580   0.71971   0.78029   0.00000  Uiso   1.00
O83    O     0.25000   0.75000   0.75000   0.00000  Uiso   1.00
O84    O     0.13420   0.28029   0.21971   0.00000  Uiso   1.00
O85    O     0.36580   0.78029   0.78029   0.00000  Uiso   1.00
O86    O     0.63420   0.21971   0.21971   0.00000  Uiso   1.00
O87    O     0.78029   0.78029   0.63420   0.00000  Uiso   1.00
O88    O     0.21971   0.21971   0.36580   0.00000  Uiso   1.00
O89    O     0.63420   0.78029   0.21971   0.00000  Uiso   1.00
O90    O     0.36580   0.21971   0.78029   0.00000  Uiso   1.00
O91    O     0.21971   0.78029   0.36580   0.00000  Uiso   1.00
O92    O     0.78029   0.21971   0.63420   0.00000  Uiso   1.00
O93    O     0.36580   0.21971   0.21971   0.00000  Uiso   1.00
O94    O     0.36580   0.28029   0.28029   0.00000  Uiso   1.00
O95    O     0.63420   0.78029   0.78029   0.00000  Uiso   1.00
O96    O     0.78029   0.21971   0.36580   0.00000  Uiso   1.00
O97    O     0.21971   0.78029   0.63420   0.00000  Uiso   1.00
O98    O     0.63420   0.21971   0.78029   0.00000  Uiso   1.00
O99    O     0.36580   0.78029   0.21971   0.00000  Uiso   1.00
O100   O     0.21971   0.21971   0.63420   0.00000  Uiso   1.00
O101   O     0.78029   0.78029   0.36580   0.00000  Uiso   1.00
O102   O     0.78029   0.36580   0.21971   0.00000  Uiso   1.00
O103   O     0.21971   0.63420   0.78029   0.00000  Uiso   1.00
O104   O     0.78029   0.63420   0.78029   0.00000  Uiso   1.00
Zn1    Zn    0.20660   0.29340   0.20660   0.00000  Uiso   1.00
Zn2    Zn    0.70660   0.20660   0.20660   0.00000  Uiso   1.00
Zn3    Zn    0.29340   0.20660   0.79340   0.00000  Uiso   1.00
Zn4    Zn    0.70660   0.79340   0.20660   0.00000  Uiso   1.00
Zn5    Zn    0.29340   0.20660   0.20660   0.00000  Uiso   1.00
Zn6    Zn    0.70660   0.79340   0.79340   0.00000  Uiso   1.00
Zn7    Zn    0.29340   0.79340   0.20660   0.00000  Uiso   1.00
Zn8    Zn    0.70660   0.20660   0.79340   0.00000  Uiso   1.00
Zn9    Zn    0.79340   0.20660   0.70660   0.00000  Uiso   1.00
Zn10   Zn    0.20660   0.79340   0.29340   0.00000  Uiso   1.00
Zn11   Zn    0.20660   0.20660   0.70660   0.00000  Uiso   1.00
Zn12   Zn    0.79340   0.70660   0.79340   0.00000  Uiso   1.00
Zn13   Zn    0.79340   0.79340   0.29340   0.00000  Uiso   1.00
Zn14   Zn    0.20660   0.79340   0.70660   0.00000  Uiso   1.00
Zn15   Zn    0.79340   0.20660   0.29340   0.00000  Uiso   1.00
Zn16   Zn    0.79340   0.79340   0.70660   0.00000  Uiso   1.00
Zn17   Zn    0.20660   0.20660   0.29340   0.00000  Uiso   1.00
Zn18   Zn    0.70660   0.29340   0.70660   0.00000  Uiso   1.00
Zn19   Zn    0.29340   0.70660   0.29340   0.00000  Uiso   1.00
Zn20   Zn    0.70660   0.29340   0.29340   0.00000  Uiso   1.00
Zn21   Zn    0.29340   0.70660   0.70660   0.00000  Uiso   1.00
Zn22   Zn    0.29340   0.29340   0.29340   0.00000  Uiso   1.00
Zn23   Zn    0.20660   0.29340   0.79340   0.00000  Uiso   1.00
Zn24   Zn    0.70660   0.70660   0.70660   0.00000  Uiso   1.00
Zn25   Zn    0.29340   0.29340   0.70660   0.00000  Uiso   1.00
Zn26   Zn    0.70660   0.70660   0.29340   0.00000  Uiso   1.00
Zn27   Zn    0.79340   0.70660   0.20660   0.00000  Uiso   1.00
Zn28   Zn    0.79340   0.29340   0.79340   0.00000  Uiso   1.00
Zn29   Zn    0.20660   0.70660   0.20660   0.00000  Uiso   1.00
Zn30   Zn    0.79340   0.29340   0.20660   0.00000  Uiso   1.00
Zn31   Zn    0.20660   0.70660   0.79340   0.00000  Uiso   1.00
Zn32   Zn    0.29340   0.79340   0.79340   0.00000  Uiso   1.00
loop_
_geom_bond_atom_site_label_1
_geom_bond_atom_site_label_2
_geom_bond_distance
_geom_bond_site_symmetry_2
_ccdc_geom_bond_type
Br1    C137    1.933   .     S
Br2    C147    1.933   .     S
Br3    C148    1.933   .     S
Br4    C150    1.933   .     S
Br5    C151    1.933   .     S
Br6    C152    1.933   .     S
Br7    C153    1.933   .     S
Br8    C154    1.933   .     S
Br9    C155    1.933   .     S
Br10   C156    1.933   .     S
Br11   C157    1.933   .     S
Br12   C139    1.933   .     S
Br13   C158    1.933   .     S
Br14   C159    1.933   .     S
Br15   C161    1.933   .     S
Br16   C162    1.933   .     S
Br17   C163    1.933   .     S
Br18   C164    1.933   .     S
Br19   C165    1.933   .     S
Br20   C166    1.933   .     S
Br21   C167    1.933   .     S
Br22   C168    1.933   .     S
Br23   C140    1.933   .     S
Br24   C169    1.933   .     S
Br25   C170    1.933   .     S
Br26   C172    1.933   .     S
Br27   C173    1.933   .     S
Br28   C174    1.933   .     S
Br29   C175    1.933   .     S
Br30   C176    1.933   .     S
Br31   C177    1.933   .     S
Br32   C178    1.933   .     S
Br33   C179    1.933   .     S
Br34   C141    1.933   .     S
Br35   C180    1.933   .     S
Br36   C181    1.933   .     S
Br37   C183    1.933   .     S
Br38   C184    1.933   .     S
Br39   C185    1.933   .     S
Br40   C186    1.933   .     S
Br41   C187    1.933   .     S
Br42   C188    1.933   .     S
Br43   C189    1.933   .     S
Br44   C190    1.933   .     S
Br45   C142    1.933   .     S
Br46   C191    1.933   .     S
Br47   C192    1.933   .     S
Br48   C3      1.933   .     S
Br49   C4      1.933   .     S
Br50   C5      1.933   .     S
Br51   C6      1.933   .     S
Br52   C7      1.933   .     S
Br53   C8      1.933   .     S
Br54   C9      1.933   .     S
Br55   C10     1.933   .     S
Br56   C143    1.933   .     S
Br57   C11     1.933   .     S
Br58   C12     1.933   .     S
Br59   C14     1.933   .     S
Br60   C15     1.933   .     S
Br61   C16     1.933   .     S
Br62   C17     1.933   .     S
Br63   C18     1.933   .     S
Br64   C19     1.933   .     S
Br65   C20     1.933   .     S
Br66   C21     1.933   .     S
Br67   C144    1.933   .     S
Br68   C22     1.933   .     S
Br69   C23     1.933   .     S
Br70   C25     1.933   .     S
Br71   C26     1.933   .     S
Br72   C27     1.933   .     S
Br73   C28     1.933   .     S
Br74   C29     1.933   .     S
Br75   C30     1.933   .     S
Br76   C31     1.933   .     S
Br77   C32     1.933   .     S
Br78   C145    1.933   .     S
Br79   C33     1.933   .     S
Br80   C34     1.933   .     S
Br81   C36     1.933   .     S
Br82   C37     1.933   .     S
Br83   C38     1.933   .     S
Br84   C39     1.933   .     S
Br85   C40     1.933   .     S
Br86   C41     1.933   .     S
Br87   C42     1.933   .     S
Br88   C43     1.933   .     S
Br89   C146    1.933   .     S
Br90   C44     1.933   .     S
Br91   C45     1.933   .     S
Br92   C47     1.933   .     S
Br93   C48     1.933   .     S
Br94   C49     1.933   .     S
Br95   C50     1.933   .     S
Br96   C51     1.933   .     S
C1     O93     1.274   .     A
C1     C62     1.451   .     S
C1     O94     1.274   .     A
C2     O15     1.274   .     A
C2     C65     1.451   .     S
C2     O86     1.274   .     A
C3     C93     1.407   .     A
C3     C6      1.399   1_655 S
C4     C89     1.407   .     A
C4     C191    1.399   1_455 S
C5     C91     1.407   .     A
C5     C190    1.399   1_655 S
C6     C87     1.407   .     A
C6     C3      1.399   1_455 S
C7     C88     1.407   .     A
C7     C192    1.399   1_655 S
C8     C102    1.407   .     A
C8     C14     1.399   1_554 S
C9     C100    1.407   .     A
C9     C12     1.399   1_556 S
C10    C104    1.407   .     A
C10    C16     1.399   1_554 S
C11    C103    1.407   .     A
C11    C15     1.399   1_556 S
C12    C97     1.407   .     A
C12    C9      1.399   1_554 S
C13    O16     1.274   .     A
C13    O91     1.274   .     A
C13    C74     1.451   .     S
C14    C96     1.407   .     A
C14    C8      1.399   1_556 S
C15    C99     1.407   .     A
C15    C11     1.399   1_554 S
C16    C98     1.407   .     A
C16    C10     1.399   1_556 S
C17    C103    1.407   .     A
C17    C22     1.399   1_556 S
C18    C104    1.407   .     A
C18    C21     1.399   1_554 S
C19    C100    1.407   .     A
C19    C25     1.399   1_556 S
C20    C102    1.407   .     A
C20    C23     1.399   1_554 S
C21    C98     1.407   .     A
C21    C18     1.399   1_556 S
C22    C99     1.407   .     A
C22    C17     1.399   1_554 S
C23    C96     1.407   .     A
C23    C20     1.399   1_556 S
C24    O92     1.274   .     A
C24    C75     1.451   .     S
C24    O18     1.274   .     A
C25    C97     1.407   .     A
C25    C19     1.399   1_554 S
C26    C31     1.399   .     A
C26    C53     1.407   .     A
C27    C30     1.399   .     A
C27    C52     1.407   .     A
C28    C55     1.407   .     A
C28    C33     1.399   .     A
C29    C54     1.407   .     A
C29    C32     1.399   .     A
C30    C58     1.407   .     A
C31    C56     1.407   .     A
C32    C60     1.407   .     A
C33    C59     1.407   .     A
C34    C62     1.407   .     A
C34    C40     1.399   .     A
C35    O89     1.274   .     A
C35    O19     1.274   .     A
C35    C67     1.451   .     S
C36    C61     1.407   .     A
C36    C39     1.399   .     A
C37    C42     1.399   .     A
C37    C64     1.407   .     A
C38    C41     1.399   .     A
C38    C63     1.407   .     A
C39    C66     1.407   .     A
C40    C65     1.407   .     A
C41    C69     1.407   .     A
C42    C67     1.407   .     A
C43    C71     1.407   .     A
C43    C49     1.399   .     A
C44    C70     1.407   .     A
C44    C48     1.399   .     A
C45    C73     1.407   .     A
C45    C51     1.399   .     A
C46    O20     1.274   .     A
C46    O90     1.274   .     A
C46    C69     1.451   .     S
C47    C50     1.399   .     A
C47    C72     1.407   .     A
C48    C75     1.407   .     A
C49    C74     1.407   .     A
C50    C77     1.407   .     A
C51    C76     1.407   .     A
C52    C101    1.451   .     S
C52    C143    1.407   .     A
C53    C106    1.451   .     S
C53    C142    1.407   .     A
C54    C145    1.407   .     A
C54    C110    1.451   .     S
C55    C144    1.407   .     A
C55    C109    1.451   .     S
C56    C107    1.451   .     S
C56    C139    1.407   .     A
C57    O21     1.274   .     A
C57    O87     1.274   .     A
C57    C73     1.451   .     S
C58    C108    1.451   .     S
C58    C137    1.407   .     A
C59    C141    1.407   .     A
C59    C90     1.451   .     S
C60    C79     1.451   .     S
C60    C140    1.407   .     A
C61    C152    1.407   .     A
C61    C105    1.451   .     S
C62    C151    1.407   .     A
C63    C138    1.451   .     S
C63    C154    1.407   .     A
C64    C153    1.407   .     A
C64    C149    1.451   .     S
C65    C147    1.407   .     A
C66    C146    1.407   .     A
C66    C182    1.451   .     S
C67    C150    1.407   .     A
C68    C72     1.451   .     S
C68    O22     1.274   .     A
C68    O88     1.274   .     A
C69    C148    1.407   .     A
C70    C161    1.407   .     A
C70    C160    1.451   .     S
C71    C171    1.451   .     S
C71    C159    1.407   .     A
C72    C163    1.407   .     A
C73    C162    1.407   .     A
C74    C156    1.407   .     A
C75    C155    1.407   .     A
C76    C158    1.407   .     A
C76    C127    1.451   .     S
C77    C157    1.407   .     A
C77    C116    1.451   .     S
C78    C131    1.451   .     S
C78    C169    1.407   .     A
C78    C179    1.407   .     A
C79    O6      1.274   .     A
C79    O23     1.274   .     A
C80    C168    1.407   .     A
C80    C132    1.451   .     S
C80    C180    1.407   .     A
C81    C130    1.451   .     S
C81    C177    1.407   .     A
C81    C172    1.407   .     A
C82    C129    1.451   .     S
C82    C170    1.407   .     A
C82    C178    1.407   .     A
C83    C165    1.407   .     A
C83    C175    1.407   .     A
C83    C133    1.451   .     S
C84    C176    1.407   .     A
C84    C164    1.407   .     A
C84    C134    1.451   .     S
C85    C173    1.407   .     A
C85    C136    1.451   .     S
C85    C167    1.407   .     A
C86    C166    1.407   .     A
C86    C174    1.407   .     A
C86    C135    1.451   .     S
C87    C187    1.407   .     A
C87    C121    1.451   .     S
C88    C120    1.451   .     S
C88    C186    1.407   .     A
C89    C115    1.451   .     S
C89    C189    1.407   .     A
C90    O24     1.274   .     A
C90    O7      1.274   .     A
C91    C117    1.451   .     S
C91    C188    1.407   .     A
C92    C192    1.407   .     A
C92    C112    1.451   .     S
C92    C183    1.407   .     A
C93    C111    1.451   .     S
C93    C181    1.407   .     A
C94    C124    1.451   .     S
C94    C185    1.407   .     A
C94    C190    1.407   .     A
C95    C184    1.407   .     A
C95    C191    1.407   .     A
C95    C125    1.451   .     S
C96    C118    1.451   .     S
C97    C119    1.451   .     S
C98    C114    1.451   .     S
C99    C113    1.451   .     S
C100   C122    1.451   .     S
C101   O4      1.274   .     A
C101   O25     1.274   .     A
C102   C123    1.451   .     S
C103   C128    1.451   .     S
C104   C126    1.451   .     S
C105   O2      1.274   .     A
C105   O95     1.274   .     A
C106   O5      1.274   .     A
C106   O26     1.274   .     A
C107   O104    1.274   .     A
C107   O27     1.274   .     A
C108   O29     1.274   .     A
C108   O3      1.274   .     A
C109   O30     1.274   .     A
C109   O102    1.274   .     A
C110   O103    1.274   .     A
C110   O31     1.274   .     A
C111   O32     1.274   .     A
C111   O79     1.274   .     A
C112   O33     1.274   .     A
C112   O78     1.274   .     A
C113   O55     1.274   .     A
C113   O34     1.274   .     A
C114   O35     1.274   .     A
C114   O54     1.274   .     A
C115   O70     1.274   .     A
C115   O36     1.274   .     A
C116   O8      1.274   .     A
C116   O100    1.274   .     A
C117   O37     1.274   .     A
C117   O69     1.274   .     A
C118   O59     1.274   .     A
C118   O38     1.274   .     A
C119   O40     1.274   .     A
C119   O58     1.274   .     A
C120   O75     1.274   .     A
C120   O41     1.274   .     A
C121   O42     1.274   .     A
C121   O74     1.274   .     A
C122   O51     1.274   .     A
C122   O43     1.274   .     A
C123   O44     1.274   .     A
C123   O49     1.274   .     A
C124   O84     1.274   .     A
C124   O45     1.274   .     A
C125   O82     1.274   .     A
C125   O46     1.274   .     A
C126   O47     1.274   .     A
C126   O64     1.274   .     A
C127   O101    1.274   .     A
C127   O9      1.274   .     A
C128   O48     1.274   .     A
C128   O63     1.274   .     A
C129   O52     1.274   .     A
C129   O73     1.274   .     A
C130   O53     1.274   .     A
C130   O71     1.274   .     A
C131   O56     1.274   .     A
C131   O77     1.274   .     A
C132   O57     1.274   .     A
C132   O76     1.274   .     A
C133   O68     1.274   .     A
C133   O60     1.274   .     A
C134   O67     1.274   .     A
C134   O62     1.274   .     A
C135   O81     1.274   .     A
C135   O65     1.274   .     A
C136   O80     1.274   .     A
C136   O66     1.274   .     A
C137   C143    1.399   .     A
C138   O10     1.274   .     A
C138   O98     1.274   .     A
C139   C142    1.399   .     A
C140   C145    1.399   .     A
C141   C144    1.399   .     A
C146   C152    1.399   .     A
C147   C151    1.399   .     A
C148   C154    1.399   .     A
C149   O11     1.274   .     A
C149   O99     1.274   .     A
C150   C153    1.399   .     A
C155   C161    1.399   .     A
C156   C159    1.399   .     A
C157   C163    1.399   .     A
C158   C162    1.399   .     A
C160   O96     1.274   .     A
C160   O12     1.274   .     A
C164   C169    1.399   1_565 S
C165   C168    1.399   1_545 S
C166   C172    1.399   1_565 S
C167   C170    1.399   1_545 S
C168   C165    1.399   1_565 S
C169   C164    1.399   1_545 S
C170   C167    1.399   1_565 S
C171   O13     1.274   .     A
C171   O97     1.274   .     A
C172   C166    1.399   1_545 S
C173   C178    1.399   1_545 S
C174   C177    1.399   1_565 S
C175   C180    1.399   1_545 S
C176   C179    1.399   1_565 S
C177   C174    1.399   1_545 S
C178   C173    1.399   1_565 S
C179   C176    1.399   1_545 S
C180   C175    1.399   1_565 S
C181   C187    1.399   1_655 S
C182   O85     1.274   .     A
C182   O14     1.274   .     A
C183   C186    1.399   1_455 S
C184   C189    1.399   1_655 S
C185   C188    1.399   1_455 S
C186   C183    1.399   1_655 S
C187   C181    1.399   1_455 S
C188   C185    1.399   1_655 S
C189   C184    1.399   1_455 S
C190   C5      1.399   1_455 S
C191   C4      1.399   1_655 S
C192   C7      1.399   1_455 S
O1     Zn1     1.944   .     S
O1     Zn22    1.944   .     S
O1     Zn17    1.944   .     S
O1     Zn5     1.944   .     S
O2     Zn24    1.933   .     S
O3     Zn1     1.933   .     S
O4     Zn29    1.933   .     S
O5     Zn28    1.933   .     S
O6     Zn23    1.933   .     S
O7     Zn27    1.933   .     S
O8     Zn25    1.933   .     S
O9     Zn26    1.933   .     S
O10    Zn18    1.933   .     S
O11    Zn19    1.933   .     S
O12    Zn20    1.933   .     S
O13    Zn21    1.933   .     S
O14    Zn21    1.933   .     S
O15    Zn20    1.933   .     S
O16    Zn19    1.933   .     S
O17    Zn6     1.944   .     S
O17    Zn12    1.944   .     S
O17    Zn24    1.944   .     S
O17    Zn16    1.944   .     S
O18    Zn18    1.933   .     S
O19    Zn26    1.933   .     S
O20    Zn25    1.933   .     S
O21    Zn24    1.933   .     S
O22    Zn22    1.933   .     S
O23    Zn25    1.933   .     S
O24    Zn26    1.933   .     S
O25    Zn19    1.933   .     S
O26    Zn18    1.933   .     S
O27    Zn24    1.933   .     S
O28    Zn23    1.944   .     S
O28    Zn11    1.944   .     S
O28    Zn25    1.944   .     S
O28    Zn3     1.944   .     S
O29    Zn22    1.933   .     S
O30    Zn20    1.933   .     S
O31    Zn21    1.933   .     S
O32    Zn13    1.933   .     S
O33    Zn11    1.933   .     S
O34    Zn7     1.933   .     S
O35    Zn8     1.933   .     S
O36    Zn14    1.933   .     S
O37    Zn15    1.933   .     S
O38    Zn6     1.933   .     S
O39    Zn27    1.944   .     S
O39    Zn26    1.944   .     S
O39    Zn4     1.944   .     S
O39    Zn13    1.944   .     S
O40    Zn5     1.933   .     S
O41    Zn9     1.933   .     S
O42    Zn10    1.933   .     S
O43    Zn3     1.933   .     S
O44    Zn4     1.933   .     S
O45    Zn17    1.933   .     S
O46    Zn16    1.933   .     S
O47    Zn2     1.933   .     S
O48    Zn32    1.933   .     S
O49    Zn27    1.933   .     S
O50    Zn18    1.944   .     S
O50    Zn9     1.944   .     S
O50    Zn28    1.944   .     S
O50    Zn8     1.944   .     S
O51    Zn23    1.933   .     S
O52    Zn16    1.933   .     S
O53    Zn17    1.933   .     S
O54    Zn28    1.933   .     S
O55    Zn29    1.933   .     S
O56    Zn15    1.933   .     S
O57    Zn14    1.933   .     S
O58    Zn1     1.933   .     S
O59    Zn12    1.933   .     S
O60    Zn11    1.933   .     S
O61    Zn7     1.944   .     S
O61    Zn29    1.944   .     S
O61    Zn19    1.944   .     S
O61    Zn10    1.944   .     S
O62    Zn13    1.933   .     S
O63    Zn31    1.933   .     S
O64    Zn30    1.933   .     S
O65    Zn10    1.933   .     S
O66    Zn9     1.933   .     S
O67    Zn4     1.933   .     S
O68    Zn3     1.933   .     S
O69    Zn30    1.933   .     S
O70    Zn31    1.933   .     S
O71    Zn5     1.933   .     S
O72    Zn15    1.944   .     S
O72    Zn20    1.944   .     S
O72    Zn2     1.944   .     S
O72    Zn30    1.944   .     S
O73    Zn6     1.933   .     S
O74    Zn29    1.933   .     S
O75    Zn28    1.933   .     S
O76    Zn32    1.933   .     S
O77    Zn2     1.933   .     S
O78    Zn23    1.933   .     S
O79    Zn27    1.933   .     S
O80    Zn8     1.933   .     S
O81    Zn7     1.933   .     S
O82    Zn12    1.933   .     S
O83    Zn21    1.944   .     S
O83    Zn31    1.944   .     S
O83    Zn14    1.944   .     S
O83    Zn32    1.944   .     S
O84    Zn1     1.933   .     S
O85    Zn32    1.933   .     S
O86    Zn2     1.933   .     S
O87    Zn16    1.933   .     S
O88    Zn17    1.933   .     S
O89    Zn4     1.933   .     S
O90    Zn3     1.933   .     S
O91    Zn10    1.933   .     S
O92    Zn9     1.933   .     S
O93    Zn5     1.933   .     S
O94    Zn22    1.933   .     S
O95    Zn6     1.933   .     S
O96    Zn15    1.933   .     S
O97    Zn14    1.933   .     S
O98    Zn8     1.933   .     S
O99    Zn7     1.933   .     S
O100   Zn11    1.933   .     S
O101   Zn13    1.933   .     S
O102   Zn30    1.933   .     S
O103   Zn31    1.933   .     S
O104   Zn12    1.933   .     S
