data_str_m3_o1_o5_pcu_sym.79
_audit_creation_date              2020-01-03
_audit_creation_method            'Materials Studio'
_symmetry_space_group_name_H-M    'P1'
_symmetry_Int_Tables_number       1
_symmetry_cell_setting            triclinic
loop_
_symmetry_equiv_pos_as_xyz
  x,y,z
_cell_length_a                    32.2060
_cell_length_b                    30.4043
_cell_length_c                    26.6536
_cell_angle_alpha                 90.3177
_cell_angle_beta                  96.4793
_cell_angle_gamma                 86.6849
loop_
_atom_site_label
_atom_site_type_symbol
_atom_site_fract_x
_atom_site_fract_y
_atom_site_fract_z
_atom_site_U_iso_or_equiv
_atom_site_adp_type
_atom_site_occupancy
O1     O     0.10559   0.20487   0.16666   0.00000  Uiso   1.00
O2     O     0.22774   0.12846   0.16667   0.00000  Uiso   1.00
O3     O     0.22774   0.20487   0.16667   0.00000  Uiso   1.00
O4     O     0.10559   0.12846   0.16666   0.00000  Uiso   1.00
C5     C     0.08671   0.16820   0.16839   0.00000  Uiso   1.00
C6     C     0.24637   0.16525   0.16740   0.00000  Uiso   1.00
O7     O     0.16667   0.20488   0.09511   0.00000  Uiso   1.00
O8     O     0.16666   0.12845   0.23822   0.00000  Uiso   1.00
O9     O     0.16666   0.20488   0.23822   0.00000  Uiso   1.00
O10    O     0.16667   0.12845   0.09511   0.00000  Uiso   1.00
C11    C     0.16687   0.16659   0.07323   0.00000  Uiso   1.00
C12    C     0.16724   0.16673   0.26019   0.00000  Uiso   1.00
Zn13   Zn    0.16667   0.21771   0.16667   0.00000  Uiso   1.00
Zn14   Zn    0.16667   0.11563   0.16667   0.00000  Uiso   1.00
C15    C     0.16706   0.16662   0.02192   0.00000  Uiso   1.00
C16    C     0.16720   0.16683   0.31152   0.00000  Uiso   1.00
C17    C     0.02665   0.14347   0.20934   0.00000  Uiso   1.00
C18    C     0.30707   0.18860   0.13225   0.00000  Uiso   1.00
C19    C     0.31652   0.13905   0.20581   0.00000  Uiso   1.00
C20    C     0.01462   0.20009   0.14328   0.00000  Uiso   1.00
C21    C     0.29075   0.16199   0.16686   0.00000  Uiso   1.00
C22    C     0.04241   0.17194   0.17509   0.00000  Uiso   1.00
C23    C     0.18409   0.02172   0.20695   0.00000  Uiso   1.00
C24    C     0.14280   0.31011   0.12867   0.00000  Uiso   1.00
C25    C     0.14637   0.02442   0.12581   0.00000  Uiso   1.00
C26    C     0.19182   0.30897   0.20136   0.00000  Uiso   1.00
N27    N     0.16667   0.28573   0.16667   0.00000  Uiso   1.00
N28    N     0.16667   0.04760   0.16667   0.00000  Uiso   1.00
C29    C     0.05523   0.12171   0.25233   0.00000  Uiso   1.00
H30    H     0.08753   0.13243   0.25500   0.00000  Uiso   1.00
H31    H     0.04419   0.13132   0.28905   0.00000  Uiso   1.00
H32    H     0.05587   0.08535   0.24796   0.00000  Uiso   1.00
C33    C     0.28048   0.20738   0.08565   0.00000  Uiso   1.00
H34    H     0.25350   0.18708   0.07417   0.00000  Uiso   1.00
H35    H     0.26878   0.24167   0.09256   0.00000  Uiso   1.00
H36    H     0.29917   0.20701   0.05308   0.00000  Uiso   1.00
C37    C     0.29705   0.11084   0.24284   0.00000  Uiso   1.00
H38    H     0.28090   0.08375   0.22222   0.00000  Uiso   1.00
H39    H     0.31953   0.09476   0.27246   0.00000  Uiso   1.00
H40    H     0.27423   0.13150   0.26233   0.00000  Uiso   1.00
C41    C     0.02391   0.24592   0.12823   0.00000  Uiso   1.00
H42    H     0.05234   0.25824   0.14933   0.00000  Uiso   1.00
H43    H     0.02374   0.24772   0.08678   0.00000  Uiso   1.00
H44    H     0.33212   0.26991   0.13763   0.00000  Uiso   1.00
S45    S     0.18087   0.03873   0.26982   0.00000  Uiso   1.00
O46    O     0.13859   0.06123   0.27320   0.00000  Uiso   1.00
O47    O     0.18480   0.33267   0.30431   0.00000  Uiso   1.00
O48    O     0.21924   0.07250   0.28872   0.00000  Uiso   1.00
H49    H     0.23386   0.05966   0.32041   0.00000  Uiso   1.00
S50    S     0.11025   0.28409   0.07842   0.00000  Uiso   1.00
O51    O     0.06930   0.31088   0.07062   0.00000  Uiso   1.00
O52    O     0.13271   0.28525   0.03197   0.00000  Uiso   1.00
O53    O     0.09611   0.23240   0.08154   0.00000  Uiso   1.00
H54    H     0.08512   0.22455   0.04659   0.00000  Uiso   1.00
S55    S     0.12906   0.05269   0.06652   0.00000  Uiso   1.00
O56    O     0.16849   0.06363   0.04547   0.00000  Uiso   1.00
O57    O     0.10465   0.02976   0.02408   0.00000  Uiso   1.00
O58    O     0.09817   0.09768   0.07607   0.00000  Uiso   1.00
H59    H     0.07148   0.08618   0.08400   0.00000  Uiso   1.00
S60    S     0.23968   0.28552   0.23324   0.00000  Uiso   1.00
O61    O     0.26124   0.31858   0.26762   0.00000  Uiso   1.00
O62    O     0.23290   0.24593   0.26393   0.00000  Uiso   1.00
O63    O     0.27228   0.27141   0.19043   0.00000  Uiso   1.00
H64    H     0.29748   0.25786   0.21056   0.00000  Uiso   1.00
O65    O     0.43892   0.20487   0.16666   0.00000  Uiso   1.00
O66    O     0.56108   0.12846   0.16667   0.00000  Uiso   1.00
O67    O     0.56108   0.20487   0.16667   0.00000  Uiso   1.00
O68    O     0.43892   0.12846   0.16666   0.00000  Uiso   1.00
C69    C     0.42005   0.16820   0.16839   0.00000  Uiso   1.00
C70    C     0.57971   0.16525   0.16740   0.00000  Uiso   1.00
O71    O     0.50000   0.20488   0.09511   0.00000  Uiso   1.00
O72    O     0.50000   0.12845   0.23822   0.00000  Uiso   1.00
O73    O     0.50000   0.20488   0.23822   0.00000  Uiso   1.00
O74    O     0.50000   0.12845   0.09511   0.00000  Uiso   1.00
C75    C     0.50020   0.16659   0.07323   0.00000  Uiso   1.00
C76    C     0.50058   0.16673   0.26019   0.00000  Uiso   1.00
Zn77   Zn    0.50000   0.21771   0.16667   0.00000  Uiso   1.00
Zn78   Zn    0.50000   0.11563   0.16667   0.00000  Uiso   1.00
C79    C     0.50039   0.16662   0.02192   0.00000  Uiso   1.00
C80    C     0.50053   0.16683   0.31152   0.00000  Uiso   1.00
C81    C     0.35999   0.14347   0.20934   0.00000  Uiso   1.00
C82    C     0.64040   0.18860   0.13225   0.00000  Uiso   1.00
C83    C     0.64986   0.13905   0.20581   0.00000  Uiso   1.00
C84    C     0.34796   0.20009   0.14328   0.00000  Uiso   1.00
C85    C     0.62408   0.16199   0.16686   0.00000  Uiso   1.00
C86    C     0.37574   0.17194   0.17509   0.00000  Uiso   1.00
C87    C     0.51743   0.02172   0.20695   0.00000  Uiso   1.00
C88    C     0.47613   0.31011   0.12867   0.00000  Uiso   1.00
C89    C     0.47970   0.02442   0.12581   0.00000  Uiso   1.00
C90    C     0.52515   0.30897   0.20136   0.00000  Uiso   1.00
N91    N     0.50000   0.28573   0.16667   0.00000  Uiso   1.00
N92    N     0.50000   0.04760   0.16667   0.00000  Uiso   1.00
C93    C     0.38856   0.12171   0.25233   0.00000  Uiso   1.00
H94    H     0.42086   0.13243   0.25500   0.00000  Uiso   1.00
H95    H     0.37753   0.13132   0.28905   0.00000  Uiso   1.00
H96    H     0.38921   0.08535   0.24796   0.00000  Uiso   1.00
C97    C     0.61381   0.20738   0.08565   0.00000  Uiso   1.00
H98    H     0.58684   0.18708   0.07417   0.00000  Uiso   1.00
H99    H     0.60211   0.24167   0.09256   0.00000  Uiso   1.00
H100   H     0.63250   0.20701   0.05308   0.00000  Uiso   1.00
C101   C     0.63038   0.11084   0.24284   0.00000  Uiso   1.00
H102   H     0.61423   0.08375   0.22222   0.00000  Uiso   1.00
H103   H     0.65286   0.09476   0.27246   0.00000  Uiso   1.00
H104   H     0.60756   0.13150   0.26233   0.00000  Uiso   1.00
C105   C     0.35724   0.24592   0.12823   0.00000  Uiso   1.00
H106   H     0.38567   0.25824   0.14933   0.00000  Uiso   1.00
H107   H     0.35708   0.24772   0.08678   0.00000  Uiso   1.00
H108   H     0.66546   0.26991   0.13763   0.00000  Uiso   1.00
S109   S     0.51421   0.03873   0.26982   0.00000  Uiso   1.00
O110   O     0.47192   0.06123   0.27320   0.00000  Uiso   1.00
O111   O     0.51813   0.33267   0.30431   0.00000  Uiso   1.00
O112   O     0.55258   0.07250   0.28872   0.00000  Uiso   1.00
H113   H     0.56720   0.05966   0.32041   0.00000  Uiso   1.00
S114   S     0.44358   0.28409   0.07842   0.00000  Uiso   1.00
O115   O     0.40263   0.31088   0.07062   0.00000  Uiso   1.00
O116   O     0.46604   0.28525   0.03197   0.00000  Uiso   1.00
O117   O     0.42945   0.23240   0.08154   0.00000  Uiso   1.00
H118   H     0.41845   0.22455   0.04659   0.00000  Uiso   1.00
S119   S     0.46240   0.05269   0.06652   0.00000  Uiso   1.00
O120   O     0.50182   0.06363   0.04547   0.00000  Uiso   1.00
O121   O     0.43798   0.02976   0.02408   0.00000  Uiso   1.00
O122   O     0.43150   0.09768   0.07607   0.00000  Uiso   1.00
H123   H     0.40482   0.08618   0.08400   0.00000  Uiso   1.00
S124   S     0.57301   0.28552   0.23324   0.00000  Uiso   1.00
O125   O     0.59457   0.31858   0.26762   0.00000  Uiso   1.00
O126   O     0.56623   0.24593   0.26393   0.00000  Uiso   1.00
O127   O     0.60561   0.27141   0.19043   0.00000  Uiso   1.00
H128   H     0.63081   0.25786   0.21056   0.00000  Uiso   1.00
O129   O     0.77226   0.20487   0.16666   0.00000  Uiso   1.00
O130   O     0.89441   0.12846   0.16667   0.00000  Uiso   1.00
O131   O     0.89441   0.20487   0.16667   0.00000  Uiso   1.00
O132   O     0.77226   0.12846   0.16666   0.00000  Uiso   1.00
C133   C     0.75338   0.16820   0.16839   0.00000  Uiso   1.00
C134   C     0.91304   0.16525   0.16740   0.00000  Uiso   1.00
O135   O     0.83334   0.20488   0.09511   0.00000  Uiso   1.00
O136   O     0.83333   0.12845   0.23822   0.00000  Uiso   1.00
O137   O     0.83333   0.20488   0.23822   0.00000  Uiso   1.00
O138   O     0.83334   0.12845   0.09511   0.00000  Uiso   1.00
C139   C     0.83353   0.16659   0.07323   0.00000  Uiso   1.00
C140   C     0.83391   0.16673   0.26019   0.00000  Uiso   1.00
Zn141  Zn    0.83333   0.21771   0.16667   0.00000  Uiso   1.00
Zn142  Zn    0.83333   0.11563   0.16667   0.00000  Uiso   1.00
C143   C     0.83373   0.16662   0.02192   0.00000  Uiso   1.00
C144   C     0.83387   0.16683   0.31152   0.00000  Uiso   1.00
C145   C     0.69332   0.14347   0.20934   0.00000  Uiso   1.00
C146   C     0.97373   0.18860   0.13225   0.00000  Uiso   1.00
C147   C     0.98319   0.13905   0.20581   0.00000  Uiso   1.00
C148   C     0.68129   0.20009   0.14328   0.00000  Uiso   1.00
C149   C     0.95742   0.16199   0.16686   0.00000  Uiso   1.00
C150   C     0.70907   0.17194   0.17509   0.00000  Uiso   1.00
C151   C     0.85076   0.02172   0.20695   0.00000  Uiso   1.00
C152   C     0.80946   0.31011   0.12867   0.00000  Uiso   1.00
C153   C     0.81303   0.02442   0.12581   0.00000  Uiso   1.00
C154   C     0.85849   0.30897   0.20136   0.00000  Uiso   1.00
N155   N     0.83333   0.28573   0.16667   0.00000  Uiso   1.00
N156   N     0.83333   0.04760   0.16667   0.00000  Uiso   1.00
C157   C     0.72189   0.12171   0.25233   0.00000  Uiso   1.00
H158   H     0.75420   0.13243   0.25500   0.00000  Uiso   1.00
H159   H     0.71086   0.13132   0.28905   0.00000  Uiso   1.00
H160   H     0.72254   0.08535   0.24796   0.00000  Uiso   1.00
C161   C     0.94715   0.20738   0.08565   0.00000  Uiso   1.00
H162   H     0.92017   0.18708   0.07417   0.00000  Uiso   1.00
H163   H     0.93545   0.24167   0.09256   0.00000  Uiso   1.00
H164   H     0.96584   0.20701   0.05308   0.00000  Uiso   1.00
C165   C     0.96371   0.11084   0.24284   0.00000  Uiso   1.00
H166   H     0.94757   0.08375   0.22222   0.00000  Uiso   1.00
H167   H     0.98619   0.09476   0.27246   0.00000  Uiso   1.00
H168   H     0.94089   0.13150   0.26233   0.00000  Uiso   1.00
C169   C     0.69057   0.24592   0.12823   0.00000  Uiso   1.00
H170   H     0.71901   0.25824   0.14933   0.00000  Uiso   1.00
H171   H     0.69041   0.24772   0.08678   0.00000  Uiso   1.00
H172   H     0.99879   0.26991   0.13763   0.00000  Uiso   1.00
S173   S     0.84754   0.03873   0.26982   0.00000  Uiso   1.00
O174   O     0.80525   0.06123   0.27320   0.00000  Uiso   1.00
O175   O     0.85146   0.33267   0.30431   0.00000  Uiso   1.00
O176   O     0.88591   0.07250   0.28872   0.00000  Uiso   1.00
H177   H     0.90053   0.05966   0.32041   0.00000  Uiso   1.00
S178   S     0.77692   0.28409   0.07842   0.00000  Uiso   1.00
O179   O     0.73597   0.31088   0.07062   0.00000  Uiso   1.00
O180   O     0.79937   0.28525   0.03197   0.00000  Uiso   1.00
O181   O     0.76278   0.23240   0.08154   0.00000  Uiso   1.00
H182   H     0.75179   0.22455   0.04659   0.00000  Uiso   1.00
S183   S     0.79573   0.05269   0.06652   0.00000  Uiso   1.00
O184   O     0.83516   0.06363   0.04547   0.00000  Uiso   1.00
O185   O     0.77131   0.02976   0.02408   0.00000  Uiso   1.00
O186   O     0.76483   0.09768   0.07607   0.00000  Uiso   1.00
H187   H     0.73815   0.08618   0.08400   0.00000  Uiso   1.00
S188   S     0.90635   0.28552   0.23324   0.00000  Uiso   1.00
O189   O     0.92790   0.31858   0.26762   0.00000  Uiso   1.00
O190   O     0.89956   0.24593   0.26393   0.00000  Uiso   1.00
O191   O     0.93894   0.27141   0.19043   0.00000  Uiso   1.00
H192   H     0.96415   0.25786   0.21056   0.00000  Uiso   1.00
O193   O     0.10559   0.53821   0.16666   0.00000  Uiso   1.00
O194   O     0.22774   0.46179   0.16667   0.00000  Uiso   1.00
O195   O     0.22774   0.53821   0.16667   0.00000  Uiso   1.00
O196   O     0.10559   0.46179   0.16666   0.00000  Uiso   1.00
C197   C     0.08671   0.50153   0.16839   0.00000  Uiso   1.00
C198   C     0.24637   0.49858   0.16740   0.00000  Uiso   1.00
O199   O     0.16667   0.53821   0.09511   0.00000  Uiso   1.00
O200   O     0.16666   0.46179   0.23822   0.00000  Uiso   1.00
O201   O     0.16666   0.53821   0.23822   0.00000  Uiso   1.00
O202   O     0.16667   0.46179   0.09511   0.00000  Uiso   1.00
C203   C     0.16687   0.49992   0.07323   0.00000  Uiso   1.00
C204   C     0.16724   0.50007   0.26019   0.00000  Uiso   1.00
Zn205  Zn    0.16667   0.55104   0.16667   0.00000  Uiso   1.00
Zn206  Zn    0.16667   0.44896   0.16667   0.00000  Uiso   1.00
C207   C     0.16706   0.49995   0.02192   0.00000  Uiso   1.00
C208   C     0.16720   0.50017   0.31152   0.00000  Uiso   1.00
C209   C     0.02665   0.47681   0.20934   0.00000  Uiso   1.00
C210   C     0.30707   0.52194   0.13225   0.00000  Uiso   1.00
C211   C     0.31652   0.47238   0.20581   0.00000  Uiso   1.00
C212   C     0.01462   0.53342   0.14328   0.00000  Uiso   1.00
C213   C     0.29075   0.49532   0.16686   0.00000  Uiso   1.00
C214   C     0.04241   0.50527   0.17509   0.00000  Uiso   1.00
C215   C     0.18409   0.35506   0.20695   0.00000  Uiso   1.00
C216   C     0.14280   0.64345   0.12867   0.00000  Uiso   1.00
C217   C     0.14637   0.35775   0.12581   0.00000  Uiso   1.00
C218   C     0.19182   0.64231   0.20136   0.00000  Uiso   1.00
N219   N     0.16667   0.61907   0.16667   0.00000  Uiso   1.00
N220   N     0.16667   0.38093   0.16667   0.00000  Uiso   1.00
C221   C     0.05523   0.45504   0.25233   0.00000  Uiso   1.00
H222   H     0.08753   0.46577   0.25500   0.00000  Uiso   1.00
H223   H     0.04419   0.46465   0.28905   0.00000  Uiso   1.00
H224   H     0.05587   0.41869   0.24796   0.00000  Uiso   1.00
C225   C     0.28048   0.54071   0.08565   0.00000  Uiso   1.00
H226   H     0.25350   0.52042   0.07417   0.00000  Uiso   1.00
H227   H     0.26878   0.57501   0.09256   0.00000  Uiso   1.00
H228   H     0.29917   0.54034   0.05308   0.00000  Uiso   1.00
C229   C     0.29705   0.44418   0.24284   0.00000  Uiso   1.00
H230   H     0.28090   0.41708   0.22222   0.00000  Uiso   1.00
H231   H     0.31953   0.42809   0.27246   0.00000  Uiso   1.00
H232   H     0.27423   0.46483   0.26233   0.00000  Uiso   1.00
C233   C     0.02391   0.57926   0.12823   0.00000  Uiso   1.00
H234   H     0.05234   0.59157   0.14933   0.00000  Uiso   1.00
H235   H     0.02374   0.58106   0.08678   0.00000  Uiso   1.00
H236   H     0.33212   0.60324   0.13763   0.00000  Uiso   1.00
S237   S     0.18087   0.37206   0.26982   0.00000  Uiso   1.00
O238   O     0.13859   0.39456   0.27320   0.00000  Uiso   1.00
O239   O     0.18480   0.66600   0.30431   0.00000  Uiso   1.00
O240   O     0.21924   0.40584   0.28872   0.00000  Uiso   1.00
H241   H     0.23386   0.39299   0.32041   0.00000  Uiso   1.00
S242   S     0.11025   0.61742   0.07842   0.00000  Uiso   1.00
O243   O     0.06930   0.64422   0.07062   0.00000  Uiso   1.00
O244   O     0.13271   0.61859   0.03197   0.00000  Uiso   1.00
O245   O     0.09611   0.56573   0.08154   0.00000  Uiso   1.00
H246   H     0.08512   0.55788   0.04659   0.00000  Uiso   1.00
S247   S     0.12906   0.38602   0.06652   0.00000  Uiso   1.00
O248   O     0.16849   0.39697   0.04547   0.00000  Uiso   1.00
O249   O     0.10465   0.36309   0.02408   0.00000  Uiso   1.00
O250   O     0.09817   0.43101   0.07607   0.00000  Uiso   1.00
H251   H     0.07148   0.41952   0.08400   0.00000  Uiso   1.00
S252   S     0.23968   0.61885   0.23324   0.00000  Uiso   1.00
O253   O     0.26124   0.65192   0.26762   0.00000  Uiso   1.00
O254   O     0.23290   0.57927   0.26393   0.00000  Uiso   1.00
O255   O     0.27228   0.60474   0.19043   0.00000  Uiso   1.00
H256   H     0.29748   0.59119   0.21056   0.00000  Uiso   1.00
O257   O     0.43892   0.53821   0.16666   0.00000  Uiso   1.00
O258   O     0.56108   0.46179   0.16667   0.00000  Uiso   1.00
O259   O     0.56108   0.53821   0.16667   0.00000  Uiso   1.00
O260   O     0.43892   0.46179   0.16666   0.00000  Uiso   1.00
C261   C     0.42005   0.50153   0.16839   0.00000  Uiso   1.00
C262   C     0.57971   0.49858   0.16740   0.00000  Uiso   1.00
O263   O     0.50000   0.53821   0.09511   0.00000  Uiso   1.00
O264   O     0.50000   0.46179   0.23822   0.00000  Uiso   1.00
O265   O     0.50000   0.53821   0.23822   0.00000  Uiso   1.00
O266   O     0.50000   0.46179   0.09511   0.00000  Uiso   1.00
C267   C     0.50020   0.49992   0.07323   0.00000  Uiso   1.00
C268   C     0.50058   0.50007   0.26019   0.00000  Uiso   1.00
Zn269  Zn    0.50000   0.55104   0.16667   0.00000  Uiso   1.00
Zn270  Zn    0.50000   0.44896   0.16667   0.00000  Uiso   1.00
C271   C     0.50039   0.49995   0.02192   0.00000  Uiso   1.00
C272   C     0.50053   0.50017   0.31152   0.00000  Uiso   1.00
C273   C     0.35999   0.47681   0.20934   0.00000  Uiso   1.00
C274   C     0.64040   0.52194   0.13225   0.00000  Uiso   1.00
C275   C     0.64986   0.47238   0.20581   0.00000  Uiso   1.00
C276   C     0.34796   0.53342   0.14328   0.00000  Uiso   1.00
C277   C     0.62408   0.49532   0.16686   0.00000  Uiso   1.00
C278   C     0.37574   0.50527   0.17509   0.00000  Uiso   1.00
C279   C     0.51743   0.35506   0.20695   0.00000  Uiso   1.00
C280   C     0.47613   0.64345   0.12867   0.00000  Uiso   1.00
C281   C     0.47970   0.35775   0.12581   0.00000  Uiso   1.00
C282   C     0.52515   0.64231   0.20136   0.00000  Uiso   1.00
N283   N     0.50000   0.61907   0.16667   0.00000  Uiso   1.00
N284   N     0.50000   0.38093   0.16667   0.00000  Uiso   1.00
C285   C     0.38856   0.45504   0.25233   0.00000  Uiso   1.00
H286   H     0.42086   0.46577   0.25500   0.00000  Uiso   1.00
H287   H     0.37753   0.46465   0.28905   0.00000  Uiso   1.00
H288   H     0.38921   0.41869   0.24796   0.00000  Uiso   1.00
C289   C     0.61381   0.54071   0.08565   0.00000  Uiso   1.00
H290   H     0.58684   0.52042   0.07417   0.00000  Uiso   1.00
H291   H     0.60211   0.57501   0.09256   0.00000  Uiso   1.00
H292   H     0.63250   0.54034   0.05308   0.00000  Uiso   1.00
C293   C     0.63038   0.44418   0.24284   0.00000  Uiso   1.00
H294   H     0.61423   0.41708   0.22222   0.00000  Uiso   1.00
H295   H     0.65286   0.42809   0.27246   0.00000  Uiso   1.00
H296   H     0.60756   0.46483   0.26233   0.00000  Uiso   1.00
C297   C     0.35724   0.57926   0.12823   0.00000  Uiso   1.00
H298   H     0.38567   0.59157   0.14933   0.00000  Uiso   1.00
H299   H     0.35708   0.58106   0.08678   0.00000  Uiso   1.00
H300   H     0.66546   0.60324   0.13763   0.00000  Uiso   1.00
S301   S     0.51421   0.37206   0.26982   0.00000  Uiso   1.00
O302   O     0.47192   0.39456   0.27320   0.00000  Uiso   1.00
O303   O     0.51813   0.66600   0.30431   0.00000  Uiso   1.00
O304   O     0.55258   0.40584   0.28872   0.00000  Uiso   1.00
H305   H     0.56720   0.39299   0.32041   0.00000  Uiso   1.00
S306   S     0.44358   0.61742   0.07842   0.00000  Uiso   1.00
O307   O     0.40263   0.64422   0.07062   0.00000  Uiso   1.00
O308   O     0.46604   0.61859   0.03197   0.00000  Uiso   1.00
O309   O     0.42945   0.56573   0.08154   0.00000  Uiso   1.00
H310   H     0.41845   0.55788   0.04659   0.00000  Uiso   1.00
S311   S     0.46240   0.38602   0.06652   0.00000  Uiso   1.00
O312   O     0.50182   0.39697   0.04547   0.00000  Uiso   1.00
O313   O     0.43798   0.36309   0.02408   0.00000  Uiso   1.00
O314   O     0.43150   0.43101   0.07607   0.00000  Uiso   1.00
H315   H     0.40482   0.41952   0.08400   0.00000  Uiso   1.00
S316   S     0.57301   0.61885   0.23324   0.00000  Uiso   1.00
O317   O     0.59457   0.65192   0.26762   0.00000  Uiso   1.00
O318   O     0.56623   0.57927   0.26393   0.00000  Uiso   1.00
O319   O     0.60561   0.60474   0.19043   0.00000  Uiso   1.00
H320   H     0.63081   0.59119   0.21056   0.00000  Uiso   1.00
O321   O     0.77226   0.53821   0.16666   0.00000  Uiso   1.00
O322   O     0.89441   0.46179   0.16667   0.00000  Uiso   1.00
O323   O     0.89441   0.53821   0.16667   0.00000  Uiso   1.00
O324   O     0.77226   0.46179   0.16666   0.00000  Uiso   1.00
C325   C     0.75338   0.50153   0.16839   0.00000  Uiso   1.00
C326   C     0.91304   0.49858   0.16740   0.00000  Uiso   1.00
O327   O     0.83334   0.53821   0.09511   0.00000  Uiso   1.00
O328   O     0.83333   0.46179   0.23822   0.00000  Uiso   1.00
O329   O     0.83333   0.53821   0.23822   0.00000  Uiso   1.00
O330   O     0.83334   0.46179   0.09511   0.00000  Uiso   1.00
C331   C     0.83353   0.49992   0.07323   0.00000  Uiso   1.00
C332   C     0.83391   0.50007   0.26019   0.00000  Uiso   1.00
Zn333  Zn    0.83333   0.55104   0.16667   0.00000  Uiso   1.00
Zn334  Zn    0.83333   0.44896   0.16667   0.00000  Uiso   1.00
C335   C     0.83373   0.49995   0.02192   0.00000  Uiso   1.00
C336   C     0.83387   0.50017   0.31152   0.00000  Uiso   1.00
C337   C     0.69332   0.47681   0.20934   0.00000  Uiso   1.00
C338   C     0.97373   0.52194   0.13225   0.00000  Uiso   1.00
C339   C     0.98319   0.47238   0.20581   0.00000  Uiso   1.00
C340   C     0.68129   0.53342   0.14328   0.00000  Uiso   1.00
C341   C     0.95742   0.49532   0.16686   0.00000  Uiso   1.00
C342   C     0.70907   0.50527   0.17509   0.00000  Uiso   1.00
C343   C     0.85076   0.35506   0.20695   0.00000  Uiso   1.00
C344   C     0.80946   0.64345   0.12867   0.00000  Uiso   1.00
C345   C     0.81303   0.35775   0.12581   0.00000  Uiso   1.00
C346   C     0.85849   0.64231   0.20136   0.00000  Uiso   1.00
N347   N     0.83333   0.61907   0.16667   0.00000  Uiso   1.00
N348   N     0.83333   0.38093   0.16667   0.00000  Uiso   1.00
C349   C     0.72189   0.45504   0.25233   0.00000  Uiso   1.00
H350   H     0.75420   0.46577   0.25500   0.00000  Uiso   1.00
H351   H     0.71086   0.46465   0.28905   0.00000  Uiso   1.00
H352   H     0.72254   0.41869   0.24796   0.00000  Uiso   1.00
C353   C     0.94715   0.54071   0.08565   0.00000  Uiso   1.00
H354   H     0.92017   0.52042   0.07417   0.00000  Uiso   1.00
H355   H     0.93545   0.57501   0.09256   0.00000  Uiso   1.00
H356   H     0.96584   0.54034   0.05308   0.00000  Uiso   1.00
C357   C     0.96371   0.44418   0.24284   0.00000  Uiso   1.00
H358   H     0.94757   0.41708   0.22222   0.00000  Uiso   1.00
H359   H     0.98619   0.42809   0.27246   0.00000  Uiso   1.00
H360   H     0.94089   0.46483   0.26233   0.00000  Uiso   1.00
C361   C     0.69057   0.57926   0.12823   0.00000  Uiso   1.00
H362   H     0.71901   0.59157   0.14933   0.00000  Uiso   1.00
H363   H     0.69041   0.58106   0.08678   0.00000  Uiso   1.00
H364   H     0.99879   0.60324   0.13763   0.00000  Uiso   1.00
S365   S     0.84754   0.37206   0.26982   0.00000  Uiso   1.00
O366   O     0.80525   0.39456   0.27320   0.00000  Uiso   1.00
O367   O     0.85146   0.66600   0.30431   0.00000  Uiso   1.00
O368   O     0.88591   0.40584   0.28872   0.00000  Uiso   1.00
H369   H     0.90053   0.39299   0.32041   0.00000  Uiso   1.00
S370   S     0.77692   0.61742   0.07842   0.00000  Uiso   1.00
O371   O     0.73597   0.64422   0.07062   0.00000  Uiso   1.00
O372   O     0.79937   0.61859   0.03197   0.00000  Uiso   1.00
O373   O     0.76278   0.56573   0.08154   0.00000  Uiso   1.00
H374   H     0.75179   0.55788   0.04659   0.00000  Uiso   1.00
S375   S     0.79573   0.38602   0.06652   0.00000  Uiso   1.00
O376   O     0.83516   0.39697   0.04547   0.00000  Uiso   1.00
O377   O     0.77131   0.36309   0.02408   0.00000  Uiso   1.00
O378   O     0.76483   0.43101   0.07607   0.00000  Uiso   1.00
H379   H     0.73815   0.41952   0.08400   0.00000  Uiso   1.00
S380   S     0.90635   0.61885   0.23324   0.00000  Uiso   1.00
O381   O     0.92790   0.65192   0.26762   0.00000  Uiso   1.00
O382   O     0.89956   0.57927   0.26393   0.00000  Uiso   1.00
O383   O     0.93894   0.60474   0.19043   0.00000  Uiso   1.00
H384   H     0.96415   0.59119   0.21056   0.00000  Uiso   1.00
O385   O     0.10559   0.87154   0.16666   0.00000  Uiso   1.00
O386   O     0.22774   0.79513   0.16667   0.00000  Uiso   1.00
O387   O     0.22774   0.87154   0.16667   0.00000  Uiso   1.00
O388   O     0.10559   0.79513   0.16666   0.00000  Uiso   1.00
C389   C     0.08671   0.83487   0.16839   0.00000  Uiso   1.00
C390   C     0.24637   0.83191   0.16740   0.00000  Uiso   1.00
O391   O     0.16667   0.87155   0.09511   0.00000  Uiso   1.00
O392   O     0.16666   0.79512   0.23822   0.00000  Uiso   1.00
O393   O     0.16666   0.87155   0.23822   0.00000  Uiso   1.00
O394   O     0.16667   0.79512   0.09511   0.00000  Uiso   1.00
C395   C     0.16687   0.83326   0.07323   0.00000  Uiso   1.00
C396   C     0.16724   0.83340   0.26019   0.00000  Uiso   1.00
Zn397  Zn    0.16667   0.88437   0.16667   0.00000  Uiso   1.00
Zn398  Zn    0.16667   0.78229   0.16667   0.00000  Uiso   1.00
C399   C     0.16706   0.83329   0.02192   0.00000  Uiso   1.00
C400   C     0.16720   0.83350   0.31152   0.00000  Uiso   1.00
C401   C     0.02665   0.81014   0.20934   0.00000  Uiso   1.00
C402   C     0.30707   0.85527   0.13225   0.00000  Uiso   1.00
C403   C     0.31652   0.80571   0.20581   0.00000  Uiso   1.00
C404   C     0.01462   0.86675   0.14328   0.00000  Uiso   1.00
C405   C     0.29075   0.82865   0.16686   0.00000  Uiso   1.00
C406   C     0.04241   0.83861   0.17509   0.00000  Uiso   1.00
C407   C     0.18409   0.68839   0.20695   0.00000  Uiso   1.00
C408   C     0.14280   0.97678   0.12867   0.00000  Uiso   1.00
C409   C     0.14637   0.69108   0.12581   0.00000  Uiso   1.00
C410   C     0.19182   0.97564   0.20136   0.00000  Uiso   1.00
N411   N     0.16667   0.95240   0.16667   0.00000  Uiso   1.00
N412   N     0.16667   0.71427   0.16667   0.00000  Uiso   1.00
C413   C     0.05523   0.78837   0.25233   0.00000  Uiso   1.00
H414   H     0.08753   0.79910   0.25500   0.00000  Uiso   1.00
H415   H     0.04419   0.79799   0.28905   0.00000  Uiso   1.00
H416   H     0.05587   0.75202   0.24796   0.00000  Uiso   1.00
C417   C     0.28048   0.87404   0.08565   0.00000  Uiso   1.00
H418   H     0.25350   0.85375   0.07417   0.00000  Uiso   1.00
H419   H     0.26878   0.90834   0.09256   0.00000  Uiso   1.00
H420   H     0.29917   0.87368   0.05308   0.00000  Uiso   1.00
C421   C     0.29705   0.77751   0.24284   0.00000  Uiso   1.00
H422   H     0.28090   0.75041   0.22222   0.00000  Uiso   1.00
H423   H     0.31953   0.76142   0.27246   0.00000  Uiso   1.00
H424   H     0.27423   0.79816   0.26233   0.00000  Uiso   1.00
C425   C     0.02391   0.91259   0.12823   0.00000  Uiso   1.00
H426   H     0.05234   0.92490   0.14933   0.00000  Uiso   1.00
H427   H     0.02374   0.91439   0.08678   0.00000  Uiso   1.00
H428   H     0.33212   0.93658   0.13763   0.00000  Uiso   1.00
S429   S     0.18087   0.70540   0.26982   0.00000  Uiso   1.00
O430   O     0.13859   0.72790   0.27320   0.00000  Uiso   1.00
O431   O     0.18480   0.99933   0.30431   0.00000  Uiso   1.00
O432   O     0.21924   0.73917   0.28872   0.00000  Uiso   1.00
H433   H     0.23386   0.72632   0.32041   0.00000  Uiso   1.00
S434   S     0.11025   0.95076   0.07842   0.00000  Uiso   1.00
O435   O     0.06930   0.97755   0.07062   0.00000  Uiso   1.00
O436   O     0.13271   0.95192   0.03197   0.00000  Uiso   1.00
O437   O     0.09611   0.89906   0.08154   0.00000  Uiso   1.00
H438   H     0.08512   0.89121   0.04659   0.00000  Uiso   1.00
S439   S     0.12906   0.71936   0.06652   0.00000  Uiso   1.00
O440   O     0.16849   0.73030   0.04547   0.00000  Uiso   1.00
O441   O     0.10465   0.69643   0.02408   0.00000  Uiso   1.00
O442   O     0.09817   0.76434   0.07607   0.00000  Uiso   1.00
H443   H     0.07148   0.75285   0.08400   0.00000  Uiso   1.00
S444   S     0.23968   0.95219   0.23324   0.00000  Uiso   1.00
O445   O     0.26124   0.98525   0.26762   0.00000  Uiso   1.00
O446   O     0.23290   0.91260   0.26393   0.00000  Uiso   1.00
O447   O     0.27228   0.93807   0.19043   0.00000  Uiso   1.00
H448   H     0.29748   0.92453   0.21056   0.00000  Uiso   1.00
O449   O     0.43892   0.87154   0.16666   0.00000  Uiso   1.00
O450   O     0.56108   0.79513   0.16667   0.00000  Uiso   1.00
O451   O     0.56108   0.87154   0.16667   0.00000  Uiso   1.00
O452   O     0.43892   0.79513   0.16666   0.00000  Uiso   1.00
C453   C     0.42005   0.83487   0.16839   0.00000  Uiso   1.00
C454   C     0.57971   0.83191   0.16740   0.00000  Uiso   1.00
O455   O     0.50000   0.87155   0.09511   0.00000  Uiso   1.00
O456   O     0.50000   0.79512   0.23822   0.00000  Uiso   1.00
O457   O     0.50000   0.87155   0.23822   0.00000  Uiso   1.00
O458   O     0.50000   0.79512   0.09511   0.00000  Uiso   1.00
C459   C     0.50020   0.83326   0.07323   0.00000  Uiso   1.00
C460   C     0.50058   0.83340   0.26019   0.00000  Uiso   1.00
Zn461  Zn    0.50000   0.88437   0.16667   0.00000  Uiso   1.00
Zn462  Zn    0.50000   0.78229   0.16667   0.00000  Uiso   1.00
C463   C     0.50039   0.83329   0.02192   0.00000  Uiso   1.00
C464   C     0.50053   0.83350   0.31152   0.00000  Uiso   1.00
C465   C     0.35999   0.81014   0.20934   0.00000  Uiso   1.00
C466   C     0.64040   0.85527   0.13225   0.00000  Uiso   1.00
C467   C     0.64986   0.80571   0.20581   0.00000  Uiso   1.00
C468   C     0.34796   0.86675   0.14328   0.00000  Uiso   1.00
C469   C     0.62408   0.82865   0.16686   0.00000  Uiso   1.00
C470   C     0.37574   0.83861   0.17509   0.00000  Uiso   1.00
C471   C     0.51743   0.68839   0.20695   0.00000  Uiso   1.00
C472   C     0.47613   0.97678   0.12867   0.00000  Uiso   1.00
C473   C     0.47970   0.69108   0.12581   0.00000  Uiso   1.00
C474   C     0.52515   0.97564   0.20136   0.00000  Uiso   1.00
N475   N     0.50000   0.95240   0.16667   0.00000  Uiso   1.00
N476   N     0.50000   0.71427   0.16667   0.00000  Uiso   1.00
C477   C     0.38856   0.78837   0.25233   0.00000  Uiso   1.00
H478   H     0.42086   0.79910   0.25500   0.00000  Uiso   1.00
H479   H     0.37753   0.79799   0.28905   0.00000  Uiso   1.00
H480   H     0.38921   0.75202   0.24796   0.00000  Uiso   1.00
C481   C     0.61381   0.87404   0.08565   0.00000  Uiso   1.00
H482   H     0.58684   0.85375   0.07417   0.00000  Uiso   1.00
H483   H     0.60211   0.90834   0.09256   0.00000  Uiso   1.00
H484   H     0.63250   0.87368   0.05308   0.00000  Uiso   1.00
C485   C     0.63038   0.77751   0.24284   0.00000  Uiso   1.00
H486   H     0.61423   0.75041   0.22222   0.00000  Uiso   1.00
H487   H     0.65286   0.76142   0.27246   0.00000  Uiso   1.00
H488   H     0.60756   0.79816   0.26233   0.00000  Uiso   1.00
C489   C     0.35724   0.91259   0.12823   0.00000  Uiso   1.00
H490   H     0.38567   0.92490   0.14933   0.00000  Uiso   1.00
H491   H     0.35708   0.91439   0.08678   0.00000  Uiso   1.00
H492   H     0.66546   0.93658   0.13763   0.00000  Uiso   1.00
S493   S     0.51421   0.70540   0.26982   0.00000  Uiso   1.00
O494   O     0.47192   0.72790   0.27320   0.00000  Uiso   1.00
O495   O     0.51813   0.99933   0.30431   0.00000  Uiso   1.00
O496   O     0.55258   0.73917   0.28872   0.00000  Uiso   1.00
H497   H     0.56720   0.72632   0.32041   0.00000  Uiso   1.00
S498   S     0.44358   0.95076   0.07842   0.00000  Uiso   1.00
O499   O     0.40263   0.97755   0.07062   0.00000  Uiso   1.00
O500   O     0.46604   0.95192   0.03197   0.00000  Uiso   1.00
O501   O     0.42945   0.89906   0.08154   0.00000  Uiso   1.00
H502   H     0.41845   0.89121   0.04659   0.00000  Uiso   1.00
S503   S     0.46240   0.71936   0.06652   0.00000  Uiso   1.00
O504   O     0.50182   0.73030   0.04547   0.00000  Uiso   1.00
O505   O     0.43798   0.69643   0.02408   0.00000  Uiso   1.00
O506   O     0.43150   0.76434   0.07607   0.00000  Uiso   1.00
H507   H     0.40482   0.75285   0.08400   0.00000  Uiso   1.00
S508   S     0.57301   0.95219   0.23324   0.00000  Uiso   1.00
O509   O     0.59457   0.98525   0.26762   0.00000  Uiso   1.00
O510   O     0.56623   0.91260   0.26393   0.00000  Uiso   1.00
O511   O     0.60561   0.93807   0.19043   0.00000  Uiso   1.00
H512   H     0.63081   0.92453   0.21056   0.00000  Uiso   1.00
O513   O     0.77226   0.87154   0.16666   0.00000  Uiso   1.00
O514   O     0.89441   0.79513   0.16667   0.00000  Uiso   1.00
O515   O     0.89441   0.87154   0.16667   0.00000  Uiso   1.00
O516   O     0.77226   0.79513   0.16666   0.00000  Uiso   1.00
C517   C     0.75338   0.83487   0.16839   0.00000  Uiso   1.00
C518   C     0.91304   0.83191   0.16740   0.00000  Uiso   1.00
O519   O     0.83334   0.87155   0.09511   0.00000  Uiso   1.00
O520   O     0.83333   0.79512   0.23822   0.00000  Uiso   1.00
O521   O     0.83333   0.87155   0.23822   0.00000  Uiso   1.00
O522   O     0.83334   0.79512   0.09511   0.00000  Uiso   1.00
C523   C     0.83353   0.83326   0.07323   0.00000  Uiso   1.00
C524   C     0.83391   0.83340   0.26019   0.00000  Uiso   1.00
Zn525  Zn    0.83333   0.88437   0.16667   0.00000  Uiso   1.00
Zn526  Zn    0.83333   0.78229   0.16667   0.00000  Uiso   1.00
C527   C     0.83373   0.83329   0.02192   0.00000  Uiso   1.00
C528   C     0.83387   0.83350   0.31152   0.00000  Uiso   1.00
C529   C     0.69332   0.81014   0.20934   0.00000  Uiso   1.00
C530   C     0.97373   0.85527   0.13225   0.00000  Uiso   1.00
C531   C     0.98319   0.80571   0.20581   0.00000  Uiso   1.00
C532   C     0.68129   0.86675   0.14328   0.00000  Uiso   1.00
C533   C     0.95742   0.82865   0.16686   0.00000  Uiso   1.00
C534   C     0.70907   0.83861   0.17509   0.00000  Uiso   1.00
C535   C     0.85076   0.68839   0.20695   0.00000  Uiso   1.00
C536   C     0.80946   0.97678   0.12867   0.00000  Uiso   1.00
C537   C     0.81303   0.69108   0.12581   0.00000  Uiso   1.00
C538   C     0.85849   0.97564   0.20136   0.00000  Uiso   1.00
N539   N     0.83333   0.95240   0.16667   0.00000  Uiso   1.00
N540   N     0.83333   0.71427   0.16667   0.00000  Uiso   1.00
C541   C     0.72189   0.78837   0.25233   0.00000  Uiso   1.00
H542   H     0.75420   0.79910   0.25500   0.00000  Uiso   1.00
H543   H     0.71086   0.79799   0.28905   0.00000  Uiso   1.00
H544   H     0.72254   0.75202   0.24796   0.00000  Uiso   1.00
C545   C     0.94715   0.87404   0.08565   0.00000  Uiso   1.00
H546   H     0.92017   0.85375   0.07417   0.00000  Uiso   1.00
H547   H     0.93545   0.90834   0.09256   0.00000  Uiso   1.00
H548   H     0.96584   0.87368   0.05308   0.00000  Uiso   1.00
C549   C     0.96371   0.77751   0.24284   0.00000  Uiso   1.00
H550   H     0.94757   0.75041   0.22222   0.00000  Uiso   1.00
H551   H     0.98619   0.76142   0.27246   0.00000  Uiso   1.00
H552   H     0.94089   0.79816   0.26233   0.00000  Uiso   1.00
C553   C     0.69057   0.91259   0.12823   0.00000  Uiso   1.00
H554   H     0.71901   0.92490   0.14933   0.00000  Uiso   1.00
H555   H     0.69041   0.91439   0.08678   0.00000  Uiso   1.00
H556   H     0.99879   0.93658   0.13763   0.00000  Uiso   1.00
S557   S     0.84754   0.70540   0.26982   0.00000  Uiso   1.00
O558   O     0.80525   0.72790   0.27320   0.00000  Uiso   1.00
O559   O     0.85146   0.99933   0.30431   0.00000  Uiso   1.00
O560   O     0.88591   0.73917   0.28872   0.00000  Uiso   1.00
H561   H     0.90053   0.72632   0.32041   0.00000  Uiso   1.00
S562   S     0.77692   0.95076   0.07842   0.00000  Uiso   1.00
O563   O     0.73597   0.97755   0.07062   0.00000  Uiso   1.00
O564   O     0.79937   0.95192   0.03197   0.00000  Uiso   1.00
O565   O     0.76278   0.89906   0.08154   0.00000  Uiso   1.00
H566   H     0.75179   0.89121   0.04659   0.00000  Uiso   1.00
S567   S     0.79573   0.71936   0.06652   0.00000  Uiso   1.00
O568   O     0.83516   0.73030   0.04547   0.00000  Uiso   1.00
O569   O     0.77131   0.69643   0.02408   0.00000  Uiso   1.00
O570   O     0.76483   0.76434   0.07607   0.00000  Uiso   1.00
H571   H     0.73815   0.75285   0.08400   0.00000  Uiso   1.00
S572   S     0.90635   0.95219   0.23324   0.00000  Uiso   1.00
O573   O     0.92790   0.98525   0.26762   0.00000  Uiso   1.00
O574   O     0.89956   0.91260   0.26393   0.00000  Uiso   1.00
O575   O     0.93894   0.93807   0.19043   0.00000  Uiso   1.00
H576   H     0.96415   0.92453   0.21056   0.00000  Uiso   1.00
O577   O     0.10559   0.20487   0.50000   0.00000  Uiso   1.00
O578   O     0.22774   0.12846   0.50000   0.00000  Uiso   1.00
O579   O     0.22774   0.20487   0.50000   0.00000  Uiso   1.00
O580   O     0.10559   0.12846   0.50000   0.00000  Uiso   1.00
C581   C     0.08671   0.16820   0.50172   0.00000  Uiso   1.00
C582   C     0.24637   0.16525   0.50073   0.00000  Uiso   1.00
O583   O     0.16667   0.20488   0.42845   0.00000  Uiso   1.00
O584   O     0.16666   0.12845   0.57155   0.00000  Uiso   1.00
O585   O     0.16666   0.20488   0.57155   0.00000  Uiso   1.00
O586   O     0.16667   0.12845   0.42845   0.00000  Uiso   1.00
C587   C     0.16687   0.16659   0.40656   0.00000  Uiso   1.00
C588   C     0.16724   0.16673   0.59352   0.00000  Uiso   1.00
Zn589  Zn    0.16667   0.21771   0.50000   0.00000  Uiso   1.00
Zn590  Zn    0.16667   0.11563   0.50000   0.00000  Uiso   1.00
C591   C     0.16706   0.16662   0.35525   0.00000  Uiso   1.00
C592   C     0.16720   0.16683   0.64485   0.00000  Uiso   1.00
C593   C     0.02665   0.14347   0.54268   0.00000  Uiso   1.00
C594   C     0.30707   0.18860   0.46559   0.00000  Uiso   1.00
C595   C     0.31652   0.13905   0.53915   0.00000  Uiso   1.00
C596   C     0.01462   0.20009   0.47662   0.00000  Uiso   1.00
C597   C     0.29075   0.16199   0.50020   0.00000  Uiso   1.00
C598   C     0.04241   0.17194   0.50843   0.00000  Uiso   1.00
C599   C     0.18409   0.02172   0.54029   0.00000  Uiso   1.00
C600   C     0.14280   0.31011   0.46201   0.00000  Uiso   1.00
C601   C     0.14637   0.02442   0.45914   0.00000  Uiso   1.00
C602   C     0.19182   0.30897   0.53469   0.00000  Uiso   1.00
N603   N     0.16667   0.28573   0.50000   0.00000  Uiso   1.00
N604   N     0.16667   0.04760   0.50000   0.00000  Uiso   1.00
C605   C     0.05523   0.12171   0.58567   0.00000  Uiso   1.00
H606   H     0.08753   0.13243   0.58833   0.00000  Uiso   1.00
H607   H     0.04419   0.13132   0.62238   0.00000  Uiso   1.00
H608   H     0.05587   0.08535   0.58129   0.00000  Uiso   1.00
C609   C     0.28048   0.20738   0.41899   0.00000  Uiso   1.00
H610   H     0.25350   0.18708   0.40750   0.00000  Uiso   1.00
H611   H     0.26878   0.24167   0.42590   0.00000  Uiso   1.00
H612   H     0.29917   0.20701   0.38642   0.00000  Uiso   1.00
C613   C     0.29705   0.11084   0.57618   0.00000  Uiso   1.00
H614   H     0.28090   0.08375   0.55556   0.00000  Uiso   1.00
H615   H     0.31953   0.09476   0.60579   0.00000  Uiso   1.00
H616   H     0.27423   0.13150   0.59566   0.00000  Uiso   1.00
C617   C     0.02391   0.24592   0.46157   0.00000  Uiso   1.00
H618   H     0.05234   0.25824   0.48267   0.00000  Uiso   1.00
H619   H     0.02374   0.24772   0.42011   0.00000  Uiso   1.00
H620   H     0.33212   0.26991   0.47097   0.00000  Uiso   1.00
S621   S     0.18087   0.03873   0.60316   0.00000  Uiso   1.00
O622   O     0.13859   0.06123   0.60653   0.00000  Uiso   1.00
O623   O     0.18480   0.33267   0.63764   0.00000  Uiso   1.00
O624   O     0.21924   0.07250   0.62205   0.00000  Uiso   1.00
H625   H     0.23386   0.05966   0.65375   0.00000  Uiso   1.00
S626   S     0.11025   0.28409   0.41175   0.00000  Uiso   1.00
O627   O     0.06930   0.31088   0.40395   0.00000  Uiso   1.00
O628   O     0.13271   0.28525   0.36530   0.00000  Uiso   1.00
O629   O     0.09611   0.23240   0.41488   0.00000  Uiso   1.00
H630   H     0.08512   0.22455   0.37992   0.00000  Uiso   1.00
S631   S     0.12906   0.05269   0.39986   0.00000  Uiso   1.00
O632   O     0.16849   0.06363   0.37880   0.00000  Uiso   1.00
O633   O     0.10465   0.02976   0.35741   0.00000  Uiso   1.00
O634   O     0.09817   0.09768   0.40940   0.00000  Uiso   1.00
H635   H     0.07148   0.08618   0.41733   0.00000  Uiso   1.00
S636   S     0.23968   0.28552   0.56657   0.00000  Uiso   1.00
O637   O     0.26124   0.31858   0.60096   0.00000  Uiso   1.00
O638   O     0.23290   0.24593   0.59727   0.00000  Uiso   1.00
O639   O     0.27228   0.27141   0.52376   0.00000  Uiso   1.00
H640   H     0.29748   0.25786   0.54389   0.00000  Uiso   1.00
O641   O     0.43892   0.20487   0.50000   0.00000  Uiso   1.00
O642   O     0.56108   0.12846   0.50000   0.00000  Uiso   1.00
O643   O     0.56108   0.20487   0.50000   0.00000  Uiso   1.00
O644   O     0.43892   0.12846   0.50000   0.00000  Uiso   1.00
C645   C     0.42005   0.16820   0.50172   0.00000  Uiso   1.00
C646   C     0.57971   0.16525   0.50073   0.00000  Uiso   1.00
O647   O     0.50000   0.20488   0.42845   0.00000  Uiso   1.00
O648   O     0.50000   0.12845   0.57155   0.00000  Uiso   1.00
O649   O     0.50000   0.20488   0.57155   0.00000  Uiso   1.00
O650   O     0.50000   0.12845   0.42845   0.00000  Uiso   1.00
C651   C     0.50020   0.16659   0.40656   0.00000  Uiso   1.00
C652   C     0.50058   0.16673   0.59352   0.00000  Uiso   1.00
Zn653  Zn    0.50000   0.21771   0.50000   0.00000  Uiso   1.00
Zn654  Zn    0.50000   0.11563   0.50000   0.00000  Uiso   1.00
C655   C     0.50039   0.16662   0.35525   0.00000  Uiso   1.00
C656   C     0.50053   0.16683   0.64485   0.00000  Uiso   1.00
C657   C     0.35999   0.14347   0.54268   0.00000  Uiso   1.00
C658   C     0.64040   0.18860   0.46559   0.00000  Uiso   1.00
C659   C     0.64986   0.13905   0.53915   0.00000  Uiso   1.00
C660   C     0.34796   0.20009   0.47662   0.00000  Uiso   1.00
C661   C     0.62408   0.16199   0.50020   0.00000  Uiso   1.00
C662   C     0.37574   0.17194   0.50843   0.00000  Uiso   1.00
C663   C     0.51743   0.02172   0.54029   0.00000  Uiso   1.00
C664   C     0.47613   0.31011   0.46201   0.00000  Uiso   1.00
C665   C     0.47970   0.02442   0.45914   0.00000  Uiso   1.00
C666   C     0.52515   0.30897   0.53469   0.00000  Uiso   1.00
N667   N     0.50000   0.28573   0.50000   0.00000  Uiso   1.00
N668   N     0.50000   0.04760   0.50000   0.00000  Uiso   1.00
C669   C     0.38856   0.12171   0.58567   0.00000  Uiso   1.00
H670   H     0.42086   0.13243   0.58833   0.00000  Uiso   1.00
H671   H     0.37753   0.13132   0.62238   0.00000  Uiso   1.00
H672   H     0.38921   0.08535   0.58129   0.00000  Uiso   1.00
C673   C     0.61381   0.20738   0.41899   0.00000  Uiso   1.00
H674   H     0.58684   0.18708   0.40750   0.00000  Uiso   1.00
H675   H     0.60211   0.24167   0.42590   0.00000  Uiso   1.00
H676   H     0.63250   0.20701   0.38642   0.00000  Uiso   1.00
C677   C     0.63038   0.11084   0.57618   0.00000  Uiso   1.00
H678   H     0.61423   0.08375   0.55556   0.00000  Uiso   1.00
H679   H     0.65286   0.09476   0.60579   0.00000  Uiso   1.00
H680   H     0.60756   0.13150   0.59566   0.00000  Uiso   1.00
C681   C     0.35724   0.24592   0.46157   0.00000  Uiso   1.00
H682   H     0.38567   0.25824   0.48267   0.00000  Uiso   1.00
H683   H     0.35708   0.24772   0.42011   0.00000  Uiso   1.00
H684   H     0.66546   0.26991   0.47097   0.00000  Uiso   1.00
S685   S     0.51421   0.03873   0.60316   0.00000  Uiso   1.00
O686   O     0.47192   0.06123   0.60653   0.00000  Uiso   1.00
O687   O     0.51813   0.33267   0.63764   0.00000  Uiso   1.00
O688   O     0.55258   0.07250   0.62205   0.00000  Uiso   1.00
H689   H     0.56720   0.05966   0.65375   0.00000  Uiso   1.00
S690   S     0.44358   0.28409   0.41175   0.00000  Uiso   1.00
O691   O     0.40263   0.31088   0.40395   0.00000  Uiso   1.00
O692   O     0.46604   0.28525   0.36530   0.00000  Uiso   1.00
O693   O     0.42945   0.23240   0.41488   0.00000  Uiso   1.00
H694   H     0.41845   0.22455   0.37992   0.00000  Uiso   1.00
S695   S     0.46240   0.05269   0.39986   0.00000  Uiso   1.00
O696   O     0.50182   0.06363   0.37880   0.00000  Uiso   1.00
O697   O     0.43798   0.02976   0.35741   0.00000  Uiso   1.00
O698   O     0.43150   0.09768   0.40940   0.00000  Uiso   1.00
H699   H     0.40482   0.08618   0.41733   0.00000  Uiso   1.00
S700   S     0.57301   0.28552   0.56657   0.00000  Uiso   1.00
O701   O     0.59457   0.31858   0.60096   0.00000  Uiso   1.00
O702   O     0.56623   0.24593   0.59727   0.00000  Uiso   1.00
O703   O     0.60561   0.27141   0.52376   0.00000  Uiso   1.00
H704   H     0.63081   0.25786   0.54389   0.00000  Uiso   1.00
O705   O     0.77226   0.20487   0.50000   0.00000  Uiso   1.00
O706   O     0.89441   0.12846   0.50000   0.00000  Uiso   1.00
O707   O     0.89441   0.20487   0.50000   0.00000  Uiso   1.00
O708   O     0.77226   0.12846   0.50000   0.00000  Uiso   1.00
C709   C     0.75338   0.16820   0.50172   0.00000  Uiso   1.00
C710   C     0.91304   0.16525   0.50073   0.00000  Uiso   1.00
O711   O     0.83334   0.20488   0.42845   0.00000  Uiso   1.00
O712   O     0.83333   0.12845   0.57155   0.00000  Uiso   1.00
O713   O     0.83333   0.20488   0.57155   0.00000  Uiso   1.00
O714   O     0.83334   0.12845   0.42845   0.00000  Uiso   1.00
C715   C     0.83353   0.16659   0.40656   0.00000  Uiso   1.00
C716   C     0.83391   0.16673   0.59352   0.00000  Uiso   1.00
Zn717  Zn    0.83333   0.21771   0.50000   0.00000  Uiso   1.00
Zn718  Zn    0.83333   0.11563   0.50000   0.00000  Uiso   1.00
C719   C     0.83373   0.16662   0.35525   0.00000  Uiso   1.00
C720   C     0.83387   0.16683   0.64485   0.00000  Uiso   1.00
C721   C     0.69332   0.14347   0.54268   0.00000  Uiso   1.00
C722   C     0.97373   0.18860   0.46559   0.00000  Uiso   1.00
C723   C     0.98319   0.13905   0.53915   0.00000  Uiso   1.00
C724   C     0.68129   0.20009   0.47662   0.00000  Uiso   1.00
C725   C     0.95742   0.16199   0.50020   0.00000  Uiso   1.00
C726   C     0.70907   0.17194   0.50843   0.00000  Uiso   1.00
C727   C     0.85076   0.02172   0.54029   0.00000  Uiso   1.00
C728   C     0.80946   0.31011   0.46201   0.00000  Uiso   1.00
C729   C     0.81303   0.02442   0.45914   0.00000  Uiso   1.00
C730   C     0.85849   0.30897   0.53469   0.00000  Uiso   1.00
N731   N     0.83333   0.28573   0.50000   0.00000  Uiso   1.00
N732   N     0.83333   0.04760   0.50000   0.00000  Uiso   1.00
C733   C     0.72189   0.12171   0.58567   0.00000  Uiso   1.00
H734   H     0.75420   0.13243   0.58833   0.00000  Uiso   1.00
H735   H     0.71086   0.13132   0.62238   0.00000  Uiso   1.00
H736   H     0.72254   0.08535   0.58129   0.00000  Uiso   1.00
C737   C     0.94715   0.20738   0.41899   0.00000  Uiso   1.00
H738   H     0.92017   0.18708   0.40750   0.00000  Uiso   1.00
H739   H     0.93545   0.24167   0.42590   0.00000  Uiso   1.00
H740   H     0.96584   0.20701   0.38642   0.00000  Uiso   1.00
C741   C     0.96371   0.11084   0.57618   0.00000  Uiso   1.00
H742   H     0.94757   0.08375   0.55556   0.00000  Uiso   1.00
H743   H     0.98619   0.09476   0.60579   0.00000  Uiso   1.00
H744   H     0.94089   0.13150   0.59566   0.00000  Uiso   1.00
C745   C     0.69057   0.24592   0.46157   0.00000  Uiso   1.00
H746   H     0.71901   0.25824   0.48267   0.00000  Uiso   1.00
H747   H     0.69041   0.24772   0.42011   0.00000  Uiso   1.00
H748   H     0.99879   0.26991   0.47097   0.00000  Uiso   1.00
S749   S     0.84754   0.03873   0.60316   0.00000  Uiso   1.00
O750   O     0.80525   0.06123   0.60653   0.00000  Uiso   1.00
O751   O     0.85146   0.33267   0.63764   0.00000  Uiso   1.00
O752   O     0.88591   0.07250   0.62205   0.00000  Uiso   1.00
H753   H     0.90053   0.05966   0.65375   0.00000  Uiso   1.00
S754   S     0.77692   0.28409   0.41175   0.00000  Uiso   1.00
O755   O     0.73597   0.31088   0.40395   0.00000  Uiso   1.00
O756   O     0.79937   0.28525   0.36530   0.00000  Uiso   1.00
O757   O     0.76278   0.23240   0.41488   0.00000  Uiso   1.00
H758   H     0.75179   0.22455   0.37992   0.00000  Uiso   1.00
S759   S     0.79573   0.05269   0.39986   0.00000  Uiso   1.00
O760   O     0.83516   0.06363   0.37880   0.00000  Uiso   1.00
O761   O     0.77131   0.02976   0.35741   0.00000  Uiso   1.00
O762   O     0.76483   0.09768   0.40940   0.00000  Uiso   1.00
H763   H     0.73815   0.08618   0.41733   0.00000  Uiso   1.00
S764   S     0.90635   0.28552   0.56657   0.00000  Uiso   1.00
O765   O     0.92790   0.31858   0.60096   0.00000  Uiso   1.00
O766   O     0.89956   0.24593   0.59727   0.00000  Uiso   1.00
O767   O     0.93894   0.27141   0.52376   0.00000  Uiso   1.00
H768   H     0.96415   0.25786   0.54389   0.00000  Uiso   1.00
O769   O     0.10559   0.53821   0.50000   0.00000  Uiso   1.00
O770   O     0.22774   0.46179   0.50000   0.00000  Uiso   1.00
O771   O     0.22774   0.53821   0.50000   0.00000  Uiso   1.00
O772   O     0.10559   0.46179   0.50000   0.00000  Uiso   1.00
C773   C     0.08671   0.50153   0.50172   0.00000  Uiso   1.00
C774   C     0.24637   0.49858   0.50073   0.00000  Uiso   1.00
O775   O     0.16667   0.53821   0.42845   0.00000  Uiso   1.00
O776   O     0.16666   0.46179   0.57155   0.00000  Uiso   1.00
O777   O     0.16666   0.53821   0.57155   0.00000  Uiso   1.00
O778   O     0.16667   0.46179   0.42845   0.00000  Uiso   1.00
C779   C     0.16687   0.49992   0.40656   0.00000  Uiso   1.00
C780   C     0.16724   0.50007   0.59352   0.00000  Uiso   1.00
Zn781  Zn    0.16667   0.55104   0.50000   0.00000  Uiso   1.00
Zn782  Zn    0.16667   0.44896   0.50000   0.00000  Uiso   1.00
C783   C     0.16706   0.49995   0.35525   0.00000  Uiso   1.00
C784   C     0.16720   0.50017   0.64485   0.00000  Uiso   1.00
C785   C     0.02665   0.47681   0.54268   0.00000  Uiso   1.00
C786   C     0.30707   0.52194   0.46559   0.00000  Uiso   1.00
C787   C     0.31652   0.47238   0.53915   0.00000  Uiso   1.00
C788   C     0.01462   0.53342   0.47662   0.00000  Uiso   1.00
C789   C     0.29075   0.49532   0.50020   0.00000  Uiso   1.00
C790   C     0.04241   0.50527   0.50843   0.00000  Uiso   1.00
C791   C     0.18409   0.35506   0.54029   0.00000  Uiso   1.00
C792   C     0.14280   0.64345   0.46201   0.00000  Uiso   1.00
C793   C     0.14637   0.35775   0.45914   0.00000  Uiso   1.00
C794   C     0.19182   0.64231   0.53469   0.00000  Uiso   1.00
N795   N     0.16667   0.61907   0.50000   0.00000  Uiso   1.00
N796   N     0.16667   0.38093   0.50000   0.00000  Uiso   1.00
C797   C     0.05523   0.45504   0.58567   0.00000  Uiso   1.00
H798   H     0.08753   0.46577   0.58833   0.00000  Uiso   1.00
H799   H     0.04419   0.46465   0.62238   0.00000  Uiso   1.00
H800   H     0.05587   0.41869   0.58129   0.00000  Uiso   1.00
C801   C     0.28048   0.54071   0.41899   0.00000  Uiso   1.00
H802   H     0.25350   0.52042   0.40750   0.00000  Uiso   1.00
H803   H     0.26878   0.57501   0.42590   0.00000  Uiso   1.00
H804   H     0.29917   0.54034   0.38642   0.00000  Uiso   1.00
C805   C     0.29705   0.44418   0.57618   0.00000  Uiso   1.00
H806   H     0.28090   0.41708   0.55556   0.00000  Uiso   1.00
H807   H     0.31953   0.42809   0.60579   0.00000  Uiso   1.00
H808   H     0.27423   0.46483   0.59566   0.00000  Uiso   1.00
C809   C     0.02391   0.57926   0.46157   0.00000  Uiso   1.00
H810   H     0.05234   0.59157   0.48267   0.00000  Uiso   1.00
H811   H     0.02374   0.58106   0.42011   0.00000  Uiso   1.00
H812   H     0.33212   0.60324   0.47097   0.00000  Uiso   1.00
S813   S     0.18087   0.37206   0.60316   0.00000  Uiso   1.00
O814   O     0.13859   0.39456   0.60653   0.00000  Uiso   1.00
O815   O     0.18480   0.66600   0.63764   0.00000  Uiso   1.00
O816   O     0.21924   0.40584   0.62205   0.00000  Uiso   1.00
H817   H     0.23386   0.39299   0.65375   0.00000  Uiso   1.00
S818   S     0.11025   0.61742   0.41175   0.00000  Uiso   1.00
O819   O     0.06930   0.64422   0.40395   0.00000  Uiso   1.00
O820   O     0.13271   0.61859   0.36530   0.00000  Uiso   1.00
O821   O     0.09611   0.56573   0.41488   0.00000  Uiso   1.00
H822   H     0.08512   0.55788   0.37992   0.00000  Uiso   1.00
S823   S     0.12906   0.38602   0.39986   0.00000  Uiso   1.00
O824   O     0.16849   0.39697   0.37880   0.00000  Uiso   1.00
O825   O     0.10465   0.36309   0.35741   0.00000  Uiso   1.00
O826   O     0.09817   0.43101   0.40940   0.00000  Uiso   1.00
H827   H     0.07148   0.41952   0.41733   0.00000  Uiso   1.00
S828   S     0.23968   0.61885   0.56657   0.00000  Uiso   1.00
O829   O     0.26124   0.65192   0.60096   0.00000  Uiso   1.00
O830   O     0.23290   0.57927   0.59727   0.00000  Uiso   1.00
O831   O     0.27228   0.60474   0.52376   0.00000  Uiso   1.00
H832   H     0.29748   0.59119   0.54389   0.00000  Uiso   1.00
O833   O     0.43892   0.53821   0.50000   0.00000  Uiso   1.00
O834   O     0.56108   0.46179   0.50000   0.00000  Uiso   1.00
O835   O     0.56108   0.53821   0.50000   0.00000  Uiso   1.00
O836   O     0.43892   0.46179   0.50000   0.00000  Uiso   1.00
C837   C     0.42005   0.50153   0.50172   0.00000  Uiso   1.00
C838   C     0.57971   0.49858   0.50073   0.00000  Uiso   1.00
O839   O     0.50000   0.53821   0.42845   0.00000  Uiso   1.00
O840   O     0.50000   0.46179   0.57155   0.00000  Uiso   1.00
O841   O     0.50000   0.53821   0.57155   0.00000  Uiso   1.00
O842   O     0.50000   0.46179   0.42845   0.00000  Uiso   1.00
C843   C     0.50020   0.49992   0.40656   0.00000  Uiso   1.00
C844   C     0.50058   0.50007   0.59352   0.00000  Uiso   1.00
Zn845  Zn    0.50000   0.55104   0.50000   0.00000  Uiso   1.00
Zn846  Zn    0.50000   0.44896   0.50000   0.00000  Uiso   1.00
C847   C     0.50039   0.49995   0.35525   0.00000  Uiso   1.00
C848   C     0.50053   0.50017   0.64485   0.00000  Uiso   1.00
C849   C     0.35999   0.47681   0.54268   0.00000  Uiso   1.00
C850   C     0.64040   0.52194   0.46559   0.00000  Uiso   1.00
C851   C     0.64986   0.47238   0.53915   0.00000  Uiso   1.00
C852   C     0.34796   0.53342   0.47662   0.00000  Uiso   1.00
C853   C     0.62408   0.49532   0.50020   0.00000  Uiso   1.00
C854   C     0.37574   0.50527   0.50843   0.00000  Uiso   1.00
C855   C     0.51743   0.35506   0.54029   0.00000  Uiso   1.00
C856   C     0.47613   0.64345   0.46201   0.00000  Uiso   1.00
C857   C     0.47970   0.35775   0.45914   0.00000  Uiso   1.00
C858   C     0.52515   0.64231   0.53469   0.00000  Uiso   1.00
N859   N     0.50000   0.61907   0.50000   0.00000  Uiso   1.00
N860   N     0.50000   0.38093   0.50000   0.00000  Uiso   1.00
C861   C     0.38856   0.45504   0.58567   0.00000  Uiso   1.00
H862   H     0.42086   0.46577   0.58833   0.00000  Uiso   1.00
H863   H     0.37753   0.46465   0.62238   0.00000  Uiso   1.00
H864   H     0.38921   0.41869   0.58129   0.00000  Uiso   1.00
C865   C     0.61381   0.54071   0.41899   0.00000  Uiso   1.00
H866   H     0.58684   0.52042   0.40750   0.00000  Uiso   1.00
H867   H     0.60211   0.57501   0.42590   0.00000  Uiso   1.00
H868   H     0.63250   0.54034   0.38642   0.00000  Uiso   1.00
C869   C     0.63038   0.44418   0.57618   0.00000  Uiso   1.00
H870   H     0.61423   0.41708   0.55556   0.00000  Uiso   1.00
H871   H     0.65286   0.42809   0.60579   0.00000  Uiso   1.00
H872   H     0.60756   0.46483   0.59566   0.00000  Uiso   1.00
C873   C     0.35724   0.57926   0.46157   0.00000  Uiso   1.00
H874   H     0.38567   0.59157   0.48267   0.00000  Uiso   1.00
H875   H     0.35708   0.58106   0.42011   0.00000  Uiso   1.00
H876   H     0.66546   0.60324   0.47097   0.00000  Uiso   1.00
S877   S     0.51421   0.37206   0.60316   0.00000  Uiso   1.00
O878   O     0.47192   0.39456   0.60653   0.00000  Uiso   1.00
O879   O     0.51813   0.66600   0.63764   0.00000  Uiso   1.00
O880   O     0.55258   0.40584   0.62205   0.00000  Uiso   1.00
H881   H     0.56720   0.39299   0.65375   0.00000  Uiso   1.00
S882   S     0.44358   0.61742   0.41175   0.00000  Uiso   1.00
O883   O     0.40263   0.64422   0.40395   0.00000  Uiso   1.00
O884   O     0.46604   0.61859   0.36530   0.00000  Uiso   1.00
O885   O     0.42945   0.56573   0.41488   0.00000  Uiso   1.00
H886   H     0.41845   0.55788   0.37992   0.00000  Uiso   1.00
S887   S     0.46240   0.38602   0.39986   0.00000  Uiso   1.00
O888   O     0.50182   0.39697   0.37880   0.00000  Uiso   1.00
O889   O     0.43798   0.36309   0.35741   0.00000  Uiso   1.00
O890   O     0.43150   0.43101   0.40940   0.00000  Uiso   1.00
H891   H     0.40482   0.41952   0.41733   0.00000  Uiso   1.00
S892   S     0.57301   0.61885   0.56657   0.00000  Uiso   1.00
O893   O     0.59457   0.65192   0.60096   0.00000  Uiso   1.00
O894   O     0.56623   0.57927   0.59727   0.00000  Uiso   1.00
O895   O     0.60561   0.60474   0.52376   0.00000  Uiso   1.00
H896   H     0.63081   0.59119   0.54389   0.00000  Uiso   1.00
O897   O     0.77226   0.53821   0.50000   0.00000  Uiso   1.00
O898   O     0.89441   0.46179   0.50000   0.00000  Uiso   1.00
O899   O     0.89441   0.53821   0.50000   0.00000  Uiso   1.00
O900   O     0.77226   0.46179   0.50000   0.00000  Uiso   1.00
C901   C     0.75338   0.50153   0.50172   0.00000  Uiso   1.00
C902   C     0.91304   0.49858   0.50073   0.00000  Uiso   1.00
O903   O     0.83334   0.53821   0.42845   0.00000  Uiso   1.00
O904   O     0.83333   0.46179   0.57155   0.00000  Uiso   1.00
O905   O     0.83333   0.53821   0.57155   0.00000  Uiso   1.00
O906   O     0.83334   0.46179   0.42845   0.00000  Uiso   1.00
C907   C     0.83353   0.49992   0.40656   0.00000  Uiso   1.00
C908   C     0.83391   0.50007   0.59352   0.00000  Uiso   1.00
Zn909  Zn    0.83333   0.55104   0.50000   0.00000  Uiso   1.00
Zn910  Zn    0.83333   0.44896   0.50000   0.00000  Uiso   1.00
C911   C     0.83373   0.49995   0.35525   0.00000  Uiso   1.00
C912   C     0.83387   0.50017   0.64485   0.00000  Uiso   1.00
C913   C     0.69332   0.47681   0.54268   0.00000  Uiso   1.00
C914   C     0.97373   0.52194   0.46559   0.00000  Uiso   1.00
C915   C     0.98319   0.47238   0.53915   0.00000  Uiso   1.00
C916   C     0.68129   0.53342   0.47662   0.00000  Uiso   1.00
C917   C     0.95742   0.49532   0.50020   0.00000  Uiso   1.00
C918   C     0.70907   0.50527   0.50843   0.00000  Uiso   1.00
C919   C     0.85076   0.35506   0.54029   0.00000  Uiso   1.00
C920   C     0.80946   0.64345   0.46201   0.00000  Uiso   1.00
C921   C     0.81303   0.35775   0.45914   0.00000  Uiso   1.00
C922   C     0.85849   0.64231   0.53469   0.00000  Uiso   1.00
N923   N     0.83333   0.61907   0.50000   0.00000  Uiso   1.00
N924   N     0.83333   0.38093   0.50000   0.00000  Uiso   1.00
C925   C     0.72189   0.45504   0.58567   0.00000  Uiso   1.00
H926   H     0.75420   0.46577   0.58833   0.00000  Uiso   1.00
H927   H     0.71086   0.46465   0.62238   0.00000  Uiso   1.00
H928   H     0.72254   0.41869   0.58129   0.00000  Uiso   1.00
C929   C     0.94715   0.54071   0.41899   0.00000  Uiso   1.00
H930   H     0.92017   0.52042   0.40750   0.00000  Uiso   1.00
H931   H     0.93545   0.57501   0.42590   0.00000  Uiso   1.00
H932   H     0.96584   0.54034   0.38642   0.00000  Uiso   1.00
C933   C     0.96371   0.44418   0.57618   0.00000  Uiso   1.00
H934   H     0.94757   0.41708   0.55556   0.00000  Uiso   1.00
H935   H     0.98619   0.42809   0.60579   0.00000  Uiso   1.00
H936   H     0.94089   0.46483   0.59566   0.00000  Uiso   1.00
C937   C     0.69057   0.57926   0.46157   0.00000  Uiso   1.00
H938   H     0.71901   0.59157   0.48267   0.00000  Uiso   1.00
H939   H     0.69041   0.58106   0.42011   0.00000  Uiso   1.00
H940   H     0.99879   0.60324   0.47097   0.00000  Uiso   1.00
S941   S     0.84754   0.37206   0.60316   0.00000  Uiso   1.00
O942   O     0.80525   0.39456   0.60653   0.00000  Uiso   1.00
O943   O     0.85146   0.66600   0.63764   0.00000  Uiso   1.00
O944   O     0.88591   0.40584   0.62205   0.00000  Uiso   1.00
H945   H     0.90053   0.39299   0.65375   0.00000  Uiso   1.00
S946   S     0.77692   0.61742   0.41175   0.00000  Uiso   1.00
O947   O     0.73597   0.64422   0.40395   0.00000  Uiso   1.00
O948   O     0.79937   0.61859   0.36530   0.00000  Uiso   1.00
O949   O     0.76278   0.56573   0.41488   0.00000  Uiso   1.00
H950   H     0.75179   0.55788   0.37992   0.00000  Uiso   1.00
S951   S     0.79573   0.38602   0.39986   0.00000  Uiso   1.00
O952   O     0.83516   0.39697   0.37880   0.00000  Uiso   1.00
O953   O     0.77131   0.36309   0.35741   0.00000  Uiso   1.00
O954   O     0.76483   0.43101   0.40940   0.00000  Uiso   1.00
H955   H     0.73815   0.41952   0.41733   0.00000  Uiso   1.00
S956   S     0.90635   0.61885   0.56657   0.00000  Uiso   1.00
O957   O     0.92790   0.65192   0.60096   0.00000  Uiso   1.00
O958   O     0.89956   0.57927   0.59727   0.00000  Uiso   1.00
O959   O     0.93894   0.60474   0.52376   0.00000  Uiso   1.00
H960   H     0.96415   0.59119   0.54389   0.00000  Uiso   1.00
O961   O     0.10559   0.87154   0.50000   0.00000  Uiso   1.00
O962   O     0.22774   0.79513   0.50000   0.00000  Uiso   1.00
O963   O     0.22774   0.87154   0.50000   0.00000  Uiso   1.00
O964   O     0.10559   0.79513   0.50000   0.00000  Uiso   1.00
C965   C     0.08671   0.83487   0.50172   0.00000  Uiso   1.00
C966   C     0.24637   0.83191   0.50073   0.00000  Uiso   1.00
O967   O     0.16667   0.87155   0.42845   0.00000  Uiso   1.00
O968   O     0.16666   0.79512   0.57155   0.00000  Uiso   1.00
O969   O     0.16666   0.87155   0.57155   0.00000  Uiso   1.00
O970   O     0.16667   0.79512   0.42845   0.00000  Uiso   1.00
C971   C     0.16687   0.83326   0.40656   0.00000  Uiso   1.00
C972   C     0.16724   0.83340   0.59352   0.00000  Uiso   1.00
Zn973  Zn    0.16667   0.88437   0.50000   0.00000  Uiso   1.00
Zn974  Zn    0.16667   0.78229   0.50000   0.00000  Uiso   1.00
C975   C     0.16706   0.83329   0.35525   0.00000  Uiso   1.00
C976   C     0.16720   0.83350   0.64485   0.00000  Uiso   1.00
C977   C     0.02665   0.81014   0.54268   0.00000  Uiso   1.00
C978   C     0.30707   0.85527   0.46559   0.00000  Uiso   1.00
C979   C     0.31652   0.80571   0.53915   0.00000  Uiso   1.00
C980   C     0.01462   0.86675   0.47662   0.00000  Uiso   1.00
C981   C     0.29075   0.82865   0.50020   0.00000  Uiso   1.00
C982   C     0.04241   0.83861   0.50843   0.00000  Uiso   1.00
C983   C     0.18409   0.68839   0.54029   0.00000  Uiso   1.00
C984   C     0.14280   0.97678   0.46201   0.00000  Uiso   1.00
C985   C     0.14637   0.69108   0.45914   0.00000  Uiso   1.00
C986   C     0.19182   0.97564   0.53469   0.00000  Uiso   1.00
N987   N     0.16667   0.95240   0.50000   0.00000  Uiso   1.00
N988   N     0.16667   0.71427   0.50000   0.00000  Uiso   1.00
C989   C     0.05523   0.78837   0.58567   0.00000  Uiso   1.00
H990   H     0.08753   0.79910   0.58833   0.00000  Uiso   1.00
H991   H     0.04419   0.79799   0.62238   0.00000  Uiso   1.00
H992   H     0.05587   0.75202   0.58129   0.00000  Uiso   1.00
C993   C     0.28048   0.87404   0.41899   0.00000  Uiso   1.00
H994   H     0.25350   0.85375   0.40750   0.00000  Uiso   1.00
H995   H     0.26878   0.90834   0.42590   0.00000  Uiso   1.00
H996   H     0.29917   0.87368   0.38642   0.00000  Uiso   1.00
C997   C     0.29705   0.77751   0.57618   0.00000  Uiso   1.00
H998   H     0.28090   0.75041   0.55556   0.00000  Uiso   1.00
H999   H     0.31953   0.76142   0.60579   0.00000  Uiso   1.00
H1000  H     0.27423   0.79816   0.59566   0.00000  Uiso   1.00
C1001  C     0.02391   0.91259   0.46157   0.00000  Uiso   1.00
H1002  H     0.05234   0.92490   0.48267   0.00000  Uiso   1.00
H1003  H     0.02374   0.91439   0.42011   0.00000  Uiso   1.00
H1004  H     0.33212   0.93658   0.47097   0.00000  Uiso   1.00
S1005  S     0.18087   0.70540   0.60316   0.00000  Uiso   1.00
O1006  O     0.13859   0.72790   0.60653   0.00000  Uiso   1.00
O1007  O     0.18480   0.99933   0.63764   0.00000  Uiso   1.00
O1008  O     0.21924   0.73917   0.62205   0.00000  Uiso   1.00
H1009  H     0.23386   0.72632   0.65375   0.00000  Uiso   1.00
S1010  S     0.11025   0.95076   0.41175   0.00000  Uiso   1.00
O1011  O     0.06930   0.97755   0.40395   0.00000  Uiso   1.00
O1012  O     0.13271   0.95192   0.36530   0.00000  Uiso   1.00
O1013  O     0.09611   0.89906   0.41488   0.00000  Uiso   1.00
H1014  H     0.08512   0.89121   0.37992   0.00000  Uiso   1.00
S1015  S     0.12906   0.71936   0.39986   0.00000  Uiso   1.00
O1016  O     0.16849   0.73030   0.37880   0.00000  Uiso   1.00
O1017  O     0.10465   0.69643   0.35741   0.00000  Uiso   1.00
O1018  O     0.09817   0.76434   0.40940   0.00000  Uiso   1.00
H1019  H     0.07148   0.75285   0.41733   0.00000  Uiso   1.00
S1020  S     0.23968   0.95219   0.56657   0.00000  Uiso   1.00
O1021  O     0.26124   0.98525   0.60096   0.00000  Uiso   1.00
O1022  O     0.23290   0.91260   0.59727   0.00000  Uiso   1.00
O1023  O     0.27228   0.93807   0.52376   0.00000  Uiso   1.00
H1024  H     0.29748   0.92453   0.54389   0.00000  Uiso   1.00
O1025  O     0.43892   0.87154   0.50000   0.00000  Uiso   1.00
O1026  O     0.56108   0.79513   0.50000   0.00000  Uiso   1.00
O1027  O     0.56108   0.87154   0.50000   0.00000  Uiso   1.00
O1028  O     0.43892   0.79513   0.50000   0.00000  Uiso   1.00
C1029  C     0.42005   0.83487   0.50172   0.00000  Uiso   1.00
C1030  C     0.57971   0.83191   0.50073   0.00000  Uiso   1.00
O1031  O     0.50000   0.87155   0.42845   0.00000  Uiso   1.00
O1032  O     0.50000   0.79512   0.57155   0.00000  Uiso   1.00
O1033  O     0.50000   0.87155   0.57155   0.00000  Uiso   1.00
O1034  O     0.50000   0.79512   0.42845   0.00000  Uiso   1.00
C1035  C     0.50020   0.83326   0.40656   0.00000  Uiso   1.00
C1036  C     0.50058   0.83340   0.59352   0.00000  Uiso   1.00
Zn1037 Zn    0.50000   0.88437   0.50000   0.00000  Uiso   1.00
Zn1038 Zn    0.50000   0.78229   0.50000   0.00000  Uiso   1.00
C1039  C     0.50039   0.83329   0.35525   0.00000  Uiso   1.00
C1040  C     0.50053   0.83350   0.64485   0.00000  Uiso   1.00
C1041  C     0.35999   0.81014   0.54268   0.00000  Uiso   1.00
C1042  C     0.64040   0.85527   0.46559   0.00000  Uiso   1.00
C1043  C     0.64986   0.80571   0.53915   0.00000  Uiso   1.00
C1044  C     0.34796   0.86675   0.47662   0.00000  Uiso   1.00
C1045  C     0.62408   0.82865   0.50020   0.00000  Uiso   1.00
C1046  C     0.37574   0.83861   0.50843   0.00000  Uiso   1.00
C1047  C     0.51743   0.68839   0.54029   0.00000  Uiso   1.00
C1048  C     0.47613   0.97678   0.46201   0.00000  Uiso   1.00
C1049  C     0.47970   0.69108   0.45914   0.00000  Uiso   1.00
C1050  C     0.52515   0.97564   0.53469   0.00000  Uiso   1.00
N1051  N     0.50000   0.95240   0.50000   0.00000  Uiso   1.00
N1052  N     0.50000   0.71427   0.50000   0.00000  Uiso   1.00
C1053  C     0.38856   0.78837   0.58567   0.00000  Uiso   1.00
H1054  H     0.42086   0.79910   0.58833   0.00000  Uiso   1.00
H1055  H     0.37753   0.79799   0.62238   0.00000  Uiso   1.00
H1056  H     0.38921   0.75202   0.58129   0.00000  Uiso   1.00
C1057  C     0.61381   0.87404   0.41899   0.00000  Uiso   1.00
H1058  H     0.58684   0.85375   0.40750   0.00000  Uiso   1.00
H1059  H     0.60211   0.90834   0.42590   0.00000  Uiso   1.00
H1060  H     0.63250   0.87368   0.38642   0.00000  Uiso   1.00
C1061  C     0.63038   0.77751   0.57618   0.00000  Uiso   1.00
H1062  H     0.61423   0.75041   0.55556   0.00000  Uiso   1.00
H1063  H     0.65286   0.76142   0.60579   0.00000  Uiso   1.00
H1064  H     0.60756   0.79816   0.59566   0.00000  Uiso   1.00
C1065  C     0.35724   0.91259   0.46157   0.00000  Uiso   1.00
H1066  H     0.38567   0.92490   0.48267   0.00000  Uiso   1.00
H1067  H     0.35708   0.91439   0.42011   0.00000  Uiso   1.00
H1068  H     0.66546   0.93658   0.47097   0.00000  Uiso   1.00
S1069  S     0.51421   0.70540   0.60316   0.00000  Uiso   1.00
O1070  O     0.47192   0.72790   0.60653   0.00000  Uiso   1.00
O1071  O     0.51813   0.99933   0.63764   0.00000  Uiso   1.00
O1072  O     0.55258   0.73917   0.62205   0.00000  Uiso   1.00
H1073  H     0.56720   0.72632   0.65375   0.00000  Uiso   1.00
S1074  S     0.44358   0.95076   0.41175   0.00000  Uiso   1.00
O1075  O     0.40263   0.97755   0.40395   0.00000  Uiso   1.00
O1076  O     0.46604   0.95192   0.36530   0.00000  Uiso   1.00
O1077  O     0.42945   0.89906   0.41488   0.00000  Uiso   1.00
H1078  H     0.41845   0.89121   0.37992   0.00000  Uiso   1.00
S1079  S     0.46240   0.71936   0.39986   0.00000  Uiso   1.00
O1080  O     0.50182   0.73030   0.37880   0.00000  Uiso   1.00
O1081  O     0.43798   0.69643   0.35741   0.00000  Uiso   1.00
O1082  O     0.43150   0.76434   0.40940   0.00000  Uiso   1.00
H1083  H     0.40482   0.75285   0.41733   0.00000  Uiso   1.00
S1084  S     0.57301   0.95219   0.56657   0.00000  Uiso   1.00
O1085  O     0.59457   0.98525   0.60096   0.00000  Uiso   1.00
O1086  O     0.56623   0.91260   0.59727   0.00000  Uiso   1.00
O1087  O     0.60561   0.93807   0.52376   0.00000  Uiso   1.00
H1088  H     0.63081   0.92453   0.54389   0.00000  Uiso   1.00
O1089  O     0.77226   0.87154   0.50000   0.00000  Uiso   1.00
O1090  O     0.89441   0.79513   0.50000   0.00000  Uiso   1.00
O1091  O     0.89441   0.87154   0.50000   0.00000  Uiso   1.00
O1092  O     0.77226   0.79513   0.50000   0.00000  Uiso   1.00
C1093  C     0.75338   0.83487   0.50172   0.00000  Uiso   1.00
C1094  C     0.91304   0.83191   0.50073   0.00000  Uiso   1.00
O1095  O     0.83334   0.87155   0.42845   0.00000  Uiso   1.00
O1096  O     0.83333   0.79512   0.57155   0.00000  Uiso   1.00
O1097  O     0.83333   0.87155   0.57155   0.00000  Uiso   1.00
O1098  O     0.83334   0.79512   0.42845   0.00000  Uiso   1.00
C1099  C     0.83353   0.83326   0.40656   0.00000  Uiso   1.00
C1100  C     0.83391   0.83340   0.59352   0.00000  Uiso   1.00
Zn1101 Zn    0.83333   0.88437   0.50000   0.00000  Uiso   1.00
Zn1102 Zn    0.83333   0.78229   0.50000   0.00000  Uiso   1.00
C1103  C     0.83373   0.83329   0.35525   0.00000  Uiso   1.00
C1104  C     0.83387   0.83350   0.64485   0.00000  Uiso   1.00
C1105  C     0.69332   0.81014   0.54268   0.00000  Uiso   1.00
C1106  C     0.97373   0.85527   0.46559   0.00000  Uiso   1.00
C1107  C     0.98319   0.80571   0.53915   0.00000  Uiso   1.00
C1108  C     0.68129   0.86675   0.47662   0.00000  Uiso   1.00
C1109  C     0.95742   0.82865   0.50020   0.00000  Uiso   1.00
C1110  C     0.70907   0.83861   0.50843   0.00000  Uiso   1.00
C1111  C     0.85076   0.68839   0.54029   0.00000  Uiso   1.00
C1112  C     0.80946   0.97678   0.46201   0.00000  Uiso   1.00
C1113  C     0.81303   0.69108   0.45914   0.00000  Uiso   1.00
C1114  C     0.85849   0.97564   0.53469   0.00000  Uiso   1.00
N1115  N     0.83333   0.95240   0.50000   0.00000  Uiso   1.00
N1116  N     0.83333   0.71427   0.50000   0.00000  Uiso   1.00
C1117  C     0.72189   0.78837   0.58567   0.00000  Uiso   1.00
H1118  H     0.75420   0.79910   0.58833   0.00000  Uiso   1.00
H1119  H     0.71086   0.79799   0.62238   0.00000  Uiso   1.00
H1120  H     0.72254   0.75202   0.58129   0.00000  Uiso   1.00
C1121  C     0.94715   0.87404   0.41899   0.00000  Uiso   1.00
H1122  H     0.92017   0.85375   0.40750   0.00000  Uiso   1.00
H1123  H     0.93545   0.90834   0.42590   0.00000  Uiso   1.00
H1124  H     0.96584   0.87368   0.38642   0.00000  Uiso   1.00
C1125  C     0.96371   0.77751   0.57618   0.00000  Uiso   1.00
H1126  H     0.94757   0.75041   0.55556   0.00000  Uiso   1.00
H1127  H     0.98619   0.76142   0.60579   0.00000  Uiso   1.00
H1128  H     0.94089   0.79816   0.59566   0.00000  Uiso   1.00
C1129  C     0.69057   0.91259   0.46157   0.00000  Uiso   1.00
H1130  H     0.71901   0.92490   0.48267   0.00000  Uiso   1.00
H1131  H     0.69041   0.91439   0.42011   0.00000  Uiso   1.00
H1132  H     0.99879   0.93658   0.47097   0.00000  Uiso   1.00
S1133  S     0.84754   0.70540   0.60316   0.00000  Uiso   1.00
O1134  O     0.80525   0.72790   0.60653   0.00000  Uiso   1.00
O1135  O     0.85146   0.99933   0.63764   0.00000  Uiso   1.00
O1136  O     0.88591   0.73917   0.62205   0.00000  Uiso   1.00
H1137  H     0.90053   0.72632   0.65375   0.00000  Uiso   1.00
S1138  S     0.77692   0.95076   0.41175   0.00000  Uiso   1.00
O1139  O     0.73597   0.97755   0.40395   0.00000  Uiso   1.00
O1140  O     0.79937   0.95192   0.36530   0.00000  Uiso   1.00
O1141  O     0.76278   0.89906   0.41488   0.00000  Uiso   1.00
H1142  H     0.75179   0.89121   0.37992   0.00000  Uiso   1.00
S1143  S     0.79573   0.71936   0.39986   0.00000  Uiso   1.00
O1144  O     0.83516   0.73030   0.37880   0.00000  Uiso   1.00
O1145  O     0.77131   0.69643   0.35741   0.00000  Uiso   1.00
O1146  O     0.76483   0.76434   0.40940   0.00000  Uiso   1.00
H1147  H     0.73815   0.75285   0.41733   0.00000  Uiso   1.00
S1148  S     0.90635   0.95219   0.56657   0.00000  Uiso   1.00
O1149  O     0.92790   0.98525   0.60096   0.00000  Uiso   1.00
O1150  O     0.89956   0.91260   0.59727   0.00000  Uiso   1.00
O1151  O     0.93894   0.93807   0.52376   0.00000  Uiso   1.00
H1152  H     0.96415   0.92453   0.54389   0.00000  Uiso   1.00
O1153  O     0.10559   0.20487   0.83333   0.00000  Uiso   1.00
O1154  O     0.22774   0.12846   0.83334   0.00000  Uiso   1.00
O1155  O     0.22774   0.20487   0.83334   0.00000  Uiso   1.00
O1156  O     0.10559   0.12846   0.83333   0.00000  Uiso   1.00
C1157  C     0.08671   0.16820   0.83505   0.00000  Uiso   1.00
C1158  C     0.24637   0.16525   0.83407   0.00000  Uiso   1.00
O1159  O     0.16667   0.20488   0.76178   0.00000  Uiso   1.00
O1160  O     0.16666   0.12845   0.90489   0.00000  Uiso   1.00
O1161  O     0.16666   0.20488   0.90489   0.00000  Uiso   1.00
O1162  O     0.16667   0.12845   0.76178   0.00000  Uiso   1.00
C1163  C     0.16687   0.16659   0.73989   0.00000  Uiso   1.00
C1164  C     0.16724   0.16673   0.92686   0.00000  Uiso   1.00
Zn1165 Zn    0.16667   0.21771   0.83333   0.00000  Uiso   1.00
Zn1166 Zn    0.16667   0.11563   0.83333   0.00000  Uiso   1.00
C1167  C     0.16706   0.16662   0.68858   0.00000  Uiso   1.00
C1168  C     0.16720   0.16683   0.97818   0.00000  Uiso   1.00
C1169  C     0.02665   0.14347   0.87601   0.00000  Uiso   1.00
C1170  C     0.30707   0.18860   0.79892   0.00000  Uiso   1.00
C1171  C     0.31652   0.13905   0.87248   0.00000  Uiso   1.00
C1172  C     0.01462   0.20009   0.80995   0.00000  Uiso   1.00
C1173  C     0.29075   0.16199   0.83353   0.00000  Uiso   1.00
C1174  C     0.04241   0.17194   0.84176   0.00000  Uiso   1.00
C1175  C     0.18409   0.02172   0.87362   0.00000  Uiso   1.00
C1176  C     0.14280   0.31011   0.79534   0.00000  Uiso   1.00
C1177  C     0.14637   0.02442   0.79248   0.00000  Uiso   1.00
C1178  C     0.19182   0.30897   0.86802   0.00000  Uiso   1.00
N1179  N     0.16667   0.28573   0.83333   0.00000  Uiso   1.00
N1180  N     0.16667   0.04760   0.83333   0.00000  Uiso   1.00
C1181  C     0.05523   0.12171   0.91900   0.00000  Uiso   1.00
H1182  H     0.08753   0.13243   0.92166   0.00000  Uiso   1.00
H1183  H     0.04419   0.13132   0.95572   0.00000  Uiso   1.00
H1184  H     0.05587   0.08535   0.91462   0.00000  Uiso   1.00
C1185  C     0.28048   0.20738   0.75232   0.00000  Uiso   1.00
H1186  H     0.25350   0.18708   0.74084   0.00000  Uiso   1.00
H1187  H     0.26878   0.24167   0.75923   0.00000  Uiso   1.00
H1188  H     0.29917   0.20701   0.71975   0.00000  Uiso   1.00
C1189  C     0.29705   0.11084   0.90951   0.00000  Uiso   1.00
H1190  H     0.28090   0.08375   0.88889   0.00000  Uiso   1.00
H1191  H     0.31953   0.09476   0.93912   0.00000  Uiso   1.00
H1192  H     0.27423   0.13150   0.92900   0.00000  Uiso   1.00
C1193  C     0.02391   0.24592   0.79490   0.00000  Uiso   1.00
H1194  H     0.05234   0.25824   0.81600   0.00000  Uiso   1.00
H1195  H     0.02374   0.24772   0.75345   0.00000  Uiso   1.00
H1196  H     0.33212   0.26991   0.80430   0.00000  Uiso   1.00
S1197  S     0.18087   0.03873   0.93649   0.00000  Uiso   1.00
O1198  O     0.13859   0.06123   0.93986   0.00000  Uiso   1.00
O1199  O     0.18480   0.33267   0.97098   0.00000  Uiso   1.00
O1200  O     0.21924   0.07250   0.95538   0.00000  Uiso   1.00
H1201  H     0.23386   0.05966   0.98708   0.00000  Uiso   1.00
S1202  S     0.11025   0.28409   0.74509   0.00000  Uiso   1.00
O1203  O     0.06930   0.31088   0.73729   0.00000  Uiso   1.00
O1204  O     0.13271   0.28525   0.69863   0.00000  Uiso   1.00
O1205  O     0.09611   0.23240   0.74821   0.00000  Uiso   1.00
H1206  H     0.08512   0.22455   0.71326   0.00000  Uiso   1.00
S1207  S     0.12906   0.05269   0.73319   0.00000  Uiso   1.00
O1208  O     0.16849   0.06363   0.71214   0.00000  Uiso   1.00
O1209  O     0.10465   0.02976   0.69075   0.00000  Uiso   1.00
O1210  O     0.09817   0.09768   0.74273   0.00000  Uiso   1.00
H1211  H     0.07148   0.08618   0.75067   0.00000  Uiso   1.00
S1212  S     0.23968   0.28552   0.89991   0.00000  Uiso   1.00
O1213  O     0.26124   0.31858   0.93429   0.00000  Uiso   1.00
O1214  O     0.23290   0.24593   0.93060   0.00000  Uiso   1.00
O1215  O     0.27228   0.27141   0.85710   0.00000  Uiso   1.00
H1216  H     0.29748   0.25786   0.87722   0.00000  Uiso   1.00
O1217  O     0.43892   0.20487   0.83333   0.00000  Uiso   1.00
O1218  O     0.56108   0.12846   0.83334   0.00000  Uiso   1.00
O1219  O     0.56108   0.20487   0.83334   0.00000  Uiso   1.00
O1220  O     0.43892   0.12846   0.83333   0.00000  Uiso   1.00
C1221  C     0.42005   0.16820   0.83505   0.00000  Uiso   1.00
C1222  C     0.57971   0.16525   0.83407   0.00000  Uiso   1.00
O1223  O     0.50000   0.20488   0.76178   0.00000  Uiso   1.00
O1224  O     0.50000   0.12845   0.90489   0.00000  Uiso   1.00
O1225  O     0.50000   0.20488   0.90489   0.00000  Uiso   1.00
O1226  O     0.50000   0.12845   0.76178   0.00000  Uiso   1.00
C1227  C     0.50020   0.16659   0.73989   0.00000  Uiso   1.00
C1228  C     0.50058   0.16673   0.92686   0.00000  Uiso   1.00
Zn1229 Zn    0.50000   0.21771   0.83333   0.00000  Uiso   1.00
Zn1230 Zn    0.50000   0.11563   0.83333   0.00000  Uiso   1.00
C1231  C     0.50039   0.16662   0.68858   0.00000  Uiso   1.00
C1232  C     0.50053   0.16683   0.97818   0.00000  Uiso   1.00
C1233  C     0.35999   0.14347   0.87601   0.00000  Uiso   1.00
C1234  C     0.64040   0.18860   0.79892   0.00000  Uiso   1.00
C1235  C     0.64986   0.13905   0.87248   0.00000  Uiso   1.00
C1236  C     0.34796   0.20009   0.80995   0.00000  Uiso   1.00
C1237  C     0.62408   0.16199   0.83353   0.00000  Uiso   1.00
C1238  C     0.37574   0.17194   0.84176   0.00000  Uiso   1.00
C1239  C     0.51743   0.02172   0.87362   0.00000  Uiso   1.00
C1240  C     0.47613   0.31011   0.79534   0.00000  Uiso   1.00
C1241  C     0.47970   0.02442   0.79248   0.00000  Uiso   1.00
C1242  C     0.52515   0.30897   0.86802   0.00000  Uiso   1.00
N1243  N     0.50000   0.28573   0.83333   0.00000  Uiso   1.00
N1244  N     0.50000   0.04760   0.83333   0.00000  Uiso   1.00
C1245  C     0.38856   0.12171   0.91900   0.00000  Uiso   1.00
H1246  H     0.42086   0.13243   0.92166   0.00000  Uiso   1.00
H1247  H     0.37753   0.13132   0.95572   0.00000  Uiso   1.00
H1248  H     0.38921   0.08535   0.91462   0.00000  Uiso   1.00
C1249  C     0.61381   0.20738   0.75232   0.00000  Uiso   1.00
H1250  H     0.58684   0.18708   0.74084   0.00000  Uiso   1.00
H1251  H     0.60211   0.24167   0.75923   0.00000  Uiso   1.00
H1252  H     0.63250   0.20701   0.71975   0.00000  Uiso   1.00
C1253  C     0.63038   0.11084   0.90951   0.00000  Uiso   1.00
H1254  H     0.61423   0.08375   0.88889   0.00000  Uiso   1.00
H1255  H     0.65286   0.09476   0.93912   0.00000  Uiso   1.00
H1256  H     0.60756   0.13150   0.92900   0.00000  Uiso   1.00
C1257  C     0.35724   0.24592   0.79490   0.00000  Uiso   1.00
H1258  H     0.38567   0.25824   0.81600   0.00000  Uiso   1.00
H1259  H     0.35708   0.24772   0.75345   0.00000  Uiso   1.00
H1260  H     0.66546   0.26991   0.80430   0.00000  Uiso   1.00
S1261  S     0.51421   0.03873   0.93649   0.00000  Uiso   1.00
O1262  O     0.47192   0.06123   0.93986   0.00000  Uiso   1.00
O1263  O     0.51813   0.33267   0.97098   0.00000  Uiso   1.00
O1264  O     0.55258   0.07250   0.95538   0.00000  Uiso   1.00
H1265  H     0.56720   0.05966   0.98708   0.00000  Uiso   1.00
S1266  S     0.44358   0.28409   0.74509   0.00000  Uiso   1.00
O1267  O     0.40263   0.31088   0.73729   0.00000  Uiso   1.00
O1268  O     0.46604   0.28525   0.69863   0.00000  Uiso   1.00
O1269  O     0.42945   0.23240   0.74821   0.00000  Uiso   1.00
H1270  H     0.41845   0.22455   0.71326   0.00000  Uiso   1.00
S1271  S     0.46240   0.05269   0.73319   0.00000  Uiso   1.00
O1272  O     0.50182   0.06363   0.71214   0.00000  Uiso   1.00
O1273  O     0.43798   0.02976   0.69075   0.00000  Uiso   1.00
O1274  O     0.43150   0.09768   0.74273   0.00000  Uiso   1.00
H1275  H     0.40482   0.08618   0.75067   0.00000  Uiso   1.00
S1276  S     0.57301   0.28552   0.89991   0.00000  Uiso   1.00
O1277  O     0.59457   0.31858   0.93429   0.00000  Uiso   1.00
O1278  O     0.56623   0.24593   0.93060   0.00000  Uiso   1.00
O1279  O     0.60561   0.27141   0.85710   0.00000  Uiso   1.00
H1280  H     0.63081   0.25786   0.87722   0.00000  Uiso   1.00
O1281  O     0.77226   0.20487   0.83333   0.00000  Uiso   1.00
O1282  O     0.89441   0.12846   0.83334   0.00000  Uiso   1.00
O1283  O     0.89441   0.20487   0.83334   0.00000  Uiso   1.00
O1284  O     0.77226   0.12846   0.83333   0.00000  Uiso   1.00
C1285  C     0.75338   0.16820   0.83505   0.00000  Uiso   1.00
C1286  C     0.91304   0.16525   0.83407   0.00000  Uiso   1.00
O1287  O     0.83334   0.20488   0.76178   0.00000  Uiso   1.00
O1288  O     0.83333   0.12845   0.90489   0.00000  Uiso   1.00
O1289  O     0.83333   0.20488   0.90489   0.00000  Uiso   1.00
O1290  O     0.83334   0.12845   0.76178   0.00000  Uiso   1.00
C1291  C     0.83353   0.16659   0.73989   0.00000  Uiso   1.00
C1292  C     0.83391   0.16673   0.92686   0.00000  Uiso   1.00
Zn1293 Zn    0.83333   0.21771   0.83333   0.00000  Uiso   1.00
Zn1294 Zn    0.83333   0.11563   0.83333   0.00000  Uiso   1.00
C1295  C     0.83373   0.16662   0.68858   0.00000  Uiso   1.00
C1296  C     0.83387   0.16683   0.97818   0.00000  Uiso   1.00
C1297  C     0.69332   0.14347   0.87601   0.00000  Uiso   1.00
C1298  C     0.97373   0.18860   0.79892   0.00000  Uiso   1.00
C1299  C     0.98319   0.13905   0.87248   0.00000  Uiso   1.00
C1300  C     0.68129   0.20009   0.80995   0.00000  Uiso   1.00
C1301  C     0.95742   0.16199   0.83353   0.00000  Uiso   1.00
C1302  C     0.70907   0.17194   0.84176   0.00000  Uiso   1.00
C1303  C     0.85076   0.02172   0.87362   0.00000  Uiso   1.00
C1304  C     0.80946   0.31011   0.79534   0.00000  Uiso   1.00
C1305  C     0.81303   0.02442   0.79248   0.00000  Uiso   1.00
C1306  C     0.85849   0.30897   0.86802   0.00000  Uiso   1.00
N1307  N     0.83333   0.28573   0.83333   0.00000  Uiso   1.00
N1308  N     0.83333   0.04760   0.83333   0.00000  Uiso   1.00
C1309  C     0.72189   0.12171   0.91900   0.00000  Uiso   1.00
H1310  H     0.75420   0.13243   0.92166   0.00000  Uiso   1.00
H1311  H     0.71086   0.13132   0.95572   0.00000  Uiso   1.00
H1312  H     0.72254   0.08535   0.91462   0.00000  Uiso   1.00
C1313  C     0.94715   0.20738   0.75232   0.00000  Uiso   1.00
H1314  H     0.92017   0.18708   0.74084   0.00000  Uiso   1.00
H1315  H     0.93545   0.24167   0.75923   0.00000  Uiso   1.00
H1316  H     0.96584   0.20701   0.71975   0.00000  Uiso   1.00
C1317  C     0.96371   0.11084   0.90951   0.00000  Uiso   1.00
H1318  H     0.94757   0.08375   0.88889   0.00000  Uiso   1.00
H1319  H     0.98619   0.09476   0.93912   0.00000  Uiso   1.00
H1320  H     0.94089   0.13150   0.92900   0.00000  Uiso   1.00
C1321  C     0.69057   0.24592   0.79490   0.00000  Uiso   1.00
H1322  H     0.71901   0.25824   0.81600   0.00000  Uiso   1.00
H1323  H     0.69041   0.24772   0.75345   0.00000  Uiso   1.00
H1324  H     0.99879   0.26991   0.80430   0.00000  Uiso   1.00
S1325  S     0.84754   0.03873   0.93649   0.00000  Uiso   1.00
O1326  O     0.80525   0.06123   0.93986   0.00000  Uiso   1.00
O1327  O     0.85146   0.33267   0.97098   0.00000  Uiso   1.00
O1328  O     0.88591   0.07250   0.95538   0.00000  Uiso   1.00
H1329  H     0.90053   0.05966   0.98708   0.00000  Uiso   1.00
S1330  S     0.77692   0.28409   0.74509   0.00000  Uiso   1.00
O1331  O     0.73597   0.31088   0.73729   0.00000  Uiso   1.00
O1332  O     0.79937   0.28525   0.69863   0.00000  Uiso   1.00
O1333  O     0.76278   0.23240   0.74821   0.00000  Uiso   1.00
H1334  H     0.75179   0.22455   0.71326   0.00000  Uiso   1.00
S1335  S     0.79573   0.05269   0.73319   0.00000  Uiso   1.00
O1336  O     0.83516   0.06363   0.71214   0.00000  Uiso   1.00
O1337  O     0.77131   0.02976   0.69075   0.00000  Uiso   1.00
O1338  O     0.76483   0.09768   0.74273   0.00000  Uiso   1.00
H1339  H     0.73815   0.08618   0.75067   0.00000  Uiso   1.00
S1340  S     0.90635   0.28552   0.89991   0.00000  Uiso   1.00
O1341  O     0.92790   0.31858   0.93429   0.00000  Uiso   1.00
O1342  O     0.89956   0.24593   0.93060   0.00000  Uiso   1.00
O1343  O     0.93894   0.27141   0.85710   0.00000  Uiso   1.00
H1344  H     0.96415   0.25786   0.87722   0.00000  Uiso   1.00
O1345  O     0.10559   0.53821   0.83333   0.00000  Uiso   1.00
O1346  O     0.22774   0.46179   0.83334   0.00000  Uiso   1.00
O1347  O     0.22774   0.53821   0.83334   0.00000  Uiso   1.00
O1348  O     0.10559   0.46179   0.83333   0.00000  Uiso   1.00
C1349  C     0.08671   0.50153   0.83505   0.00000  Uiso   1.00
C1350  C     0.24637   0.49858   0.83407   0.00000  Uiso   1.00
O1351  O     0.16667   0.53821   0.76178   0.00000  Uiso   1.00
O1352  O     0.16666   0.46179   0.90489   0.00000  Uiso   1.00
O1353  O     0.16666   0.53821   0.90489   0.00000  Uiso   1.00
O1354  O     0.16667   0.46179   0.76178   0.00000  Uiso   1.00
C1355  C     0.16687   0.49992   0.73989   0.00000  Uiso   1.00
C1356  C     0.16724   0.50007   0.92686   0.00000  Uiso   1.00
Zn1357 Zn    0.16667   0.55104   0.83333   0.00000  Uiso   1.00
Zn1358 Zn    0.16667   0.44896   0.83333   0.00000  Uiso   1.00
C1359  C     0.16706   0.49995   0.68858   0.00000  Uiso   1.00
C1360  C     0.16720   0.50017   0.97818   0.00000  Uiso   1.00
C1361  C     0.02665   0.47681   0.87601   0.00000  Uiso   1.00
C1362  C     0.30707   0.52194   0.79892   0.00000  Uiso   1.00
C1363  C     0.31652   0.47238   0.87248   0.00000  Uiso   1.00
C1364  C     0.01462   0.53342   0.80995   0.00000  Uiso   1.00
C1365  C     0.29075   0.49532   0.83353   0.00000  Uiso   1.00
C1366  C     0.04241   0.50527   0.84176   0.00000  Uiso   1.00
C1367  C     0.18409   0.35506   0.87362   0.00000  Uiso   1.00
C1368  C     0.14280   0.64345   0.79534   0.00000  Uiso   1.00
C1369  C     0.14637   0.35775   0.79248   0.00000  Uiso   1.00
C1370  C     0.19182   0.64231   0.86802   0.00000  Uiso   1.00
N1371  N     0.16667   0.61907   0.83333   0.00000  Uiso   1.00
N1372  N     0.16667   0.38093   0.83333   0.00000  Uiso   1.00
C1373  C     0.05523   0.45504   0.91900   0.00000  Uiso   1.00
H1374  H     0.08753   0.46577   0.92166   0.00000  Uiso   1.00
H1375  H     0.04419   0.46465   0.95572   0.00000  Uiso   1.00
H1376  H     0.05587   0.41869   0.91462   0.00000  Uiso   1.00
C1377  C     0.28048   0.54071   0.75232   0.00000  Uiso   1.00
H1378  H     0.25350   0.52042   0.74084   0.00000  Uiso   1.00
H1379  H     0.26878   0.57501   0.75923   0.00000  Uiso   1.00
H1380  H     0.29917   0.54034   0.71975   0.00000  Uiso   1.00
C1381  C     0.29705   0.44418   0.90951   0.00000  Uiso   1.00
H1382  H     0.28090   0.41708   0.88889   0.00000  Uiso   1.00
H1383  H     0.31953   0.42809   0.93912   0.00000  Uiso   1.00
H1384  H     0.27423   0.46483   0.92900   0.00000  Uiso   1.00
C1385  C     0.02391   0.57926   0.79490   0.00000  Uiso   1.00
H1386  H     0.05234   0.59157   0.81600   0.00000  Uiso   1.00
H1387  H     0.02374   0.58106   0.75345   0.00000  Uiso   1.00
H1388  H     0.33212   0.60324   0.80430   0.00000  Uiso   1.00
S1389  S     0.18087   0.37206   0.93649   0.00000  Uiso   1.00
O1390  O     0.13859   0.39456   0.93986   0.00000  Uiso   1.00
O1391  O     0.18480   0.66600   0.97098   0.00000  Uiso   1.00
O1392  O     0.21924   0.40584   0.95538   0.00000  Uiso   1.00
H1393  H     0.23386   0.39299   0.98708   0.00000  Uiso   1.00
S1394  S     0.11025   0.61742   0.74509   0.00000  Uiso   1.00
O1395  O     0.06930   0.64422   0.73729   0.00000  Uiso   1.00
O1396  O     0.13271   0.61859   0.69863   0.00000  Uiso   1.00
O1397  O     0.09611   0.56573   0.74821   0.00000  Uiso   1.00
H1398  H     0.08512   0.55788   0.71326   0.00000  Uiso   1.00
S1399  S     0.12906   0.38602   0.73319   0.00000  Uiso   1.00
O1400  O     0.16849   0.39697   0.71214   0.00000  Uiso   1.00
O1401  O     0.10465   0.36309   0.69075   0.00000  Uiso   1.00
O1402  O     0.09817   0.43101   0.74273   0.00000  Uiso   1.00
H1403  H     0.07148   0.41952   0.75067   0.00000  Uiso   1.00
S1404  S     0.23968   0.61885   0.89991   0.00000  Uiso   1.00
O1405  O     0.26124   0.65192   0.93429   0.00000  Uiso   1.00
O1406  O     0.23290   0.57927   0.93060   0.00000  Uiso   1.00
O1407  O     0.27228   0.60474   0.85710   0.00000  Uiso   1.00
H1408  H     0.29748   0.59119   0.87722   0.00000  Uiso   1.00
O1409  O     0.43892   0.53821   0.83333   0.00000  Uiso   1.00
O1410  O     0.56108   0.46179   0.83334   0.00000  Uiso   1.00
O1411  O     0.56108   0.53821   0.83334   0.00000  Uiso   1.00
O1412  O     0.43892   0.46179   0.83333   0.00000  Uiso   1.00
C1413  C     0.42005   0.50153   0.83505   0.00000  Uiso   1.00
C1414  C     0.57971   0.49858   0.83407   0.00000  Uiso   1.00
O1415  O     0.50000   0.53821   0.76178   0.00000  Uiso   1.00
O1416  O     0.50000   0.46179   0.90489   0.00000  Uiso   1.00
O1417  O     0.50000   0.53821   0.90489   0.00000  Uiso   1.00
O1418  O     0.50000   0.46179   0.76178   0.00000  Uiso   1.00
C1419  C     0.50020   0.49992   0.73989   0.00000  Uiso   1.00
C1420  C     0.50058   0.50007   0.92686   0.00000  Uiso   1.00
Zn1421 Zn    0.50000   0.55104   0.83333   0.00000  Uiso   1.00
Zn1422 Zn    0.50000   0.44896   0.83333   0.00000  Uiso   1.00
C1423  C     0.50039   0.49995   0.68858   0.00000  Uiso   1.00
C1424  C     0.50053   0.50017   0.97818   0.00000  Uiso   1.00
C1425  C     0.35999   0.47681   0.87601   0.00000  Uiso   1.00
C1426  C     0.64040   0.52194   0.79892   0.00000  Uiso   1.00
C1427  C     0.64986   0.47238   0.87248   0.00000  Uiso   1.00
C1428  C     0.34796   0.53342   0.80995   0.00000  Uiso   1.00
C1429  C     0.62408   0.49532   0.83353   0.00000  Uiso   1.00
C1430  C     0.37574   0.50527   0.84176   0.00000  Uiso   1.00
C1431  C     0.51743   0.35506   0.87362   0.00000  Uiso   1.00
C1432  C     0.47613   0.64345   0.79534   0.00000  Uiso   1.00
C1433  C     0.47970   0.35775   0.79248   0.00000  Uiso   1.00
C1434  C     0.52515   0.64231   0.86802   0.00000  Uiso   1.00
N1435  N     0.50000   0.61907   0.83333   0.00000  Uiso   1.00
N1436  N     0.50000   0.38093   0.83333   0.00000  Uiso   1.00
C1437  C     0.38856   0.45504   0.91900   0.00000  Uiso   1.00
H1438  H     0.42086   0.46577   0.92166   0.00000  Uiso   1.00
H1439  H     0.37753   0.46465   0.95572   0.00000  Uiso   1.00
H1440  H     0.38921   0.41869   0.91462   0.00000  Uiso   1.00
C1441  C     0.61381   0.54071   0.75232   0.00000  Uiso   1.00
H1442  H     0.58684   0.52042   0.74084   0.00000  Uiso   1.00
H1443  H     0.60211   0.57501   0.75923   0.00000  Uiso   1.00
H1444  H     0.63250   0.54034   0.71975   0.00000  Uiso   1.00
C1445  C     0.63038   0.44418   0.90951   0.00000  Uiso   1.00
H1446  H     0.61423   0.41708   0.88889   0.00000  Uiso   1.00
H1447  H     0.65286   0.42809   0.93912   0.00000  Uiso   1.00
H1448  H     0.60756   0.46483   0.92900   0.00000  Uiso   1.00
C1449  C     0.35724   0.57926   0.79490   0.00000  Uiso   1.00
H1450  H     0.38567   0.59157   0.81600   0.00000  Uiso   1.00
H1451  H     0.35708   0.58106   0.75345   0.00000  Uiso   1.00
H1452  H     0.66546   0.60324   0.80430   0.00000  Uiso   1.00
S1453  S     0.51421   0.37206   0.93649   0.00000  Uiso   1.00
O1454  O     0.47192   0.39456   0.93986   0.00000  Uiso   1.00
O1455  O     0.51813   0.66600   0.97098   0.00000  Uiso   1.00
O1456  O     0.55258   0.40584   0.95538   0.00000  Uiso   1.00
H1457  H     0.56720   0.39299   0.98708   0.00000  Uiso   1.00
S1458  S     0.44358   0.61742   0.74509   0.00000  Uiso   1.00
O1459  O     0.40263   0.64422   0.73729   0.00000  Uiso   1.00
O1460  O     0.46604   0.61859   0.69863   0.00000  Uiso   1.00
O1461  O     0.42945   0.56573   0.74821   0.00000  Uiso   1.00
H1462  H     0.41845   0.55788   0.71326   0.00000  Uiso   1.00
S1463  S     0.46240   0.38602   0.73319   0.00000  Uiso   1.00
O1464  O     0.50182   0.39697   0.71214   0.00000  Uiso   1.00
O1465  O     0.43798   0.36309   0.69075   0.00000  Uiso   1.00
O1466  O     0.43150   0.43101   0.74273   0.00000  Uiso   1.00
H1467  H     0.40482   0.41952   0.75067   0.00000  Uiso   1.00
S1468  S     0.57301   0.61885   0.89991   0.00000  Uiso   1.00
O1469  O     0.59457   0.65192   0.93429   0.00000  Uiso   1.00
O1470  O     0.56623   0.57927   0.93060   0.00000  Uiso   1.00
O1471  O     0.60561   0.60474   0.85710   0.00000  Uiso   1.00
H1472  H     0.63081   0.59119   0.87722   0.00000  Uiso   1.00
O1473  O     0.77226   0.53821   0.83333   0.00000  Uiso   1.00
O1474  O     0.89441   0.46179   0.83334   0.00000  Uiso   1.00
O1475  O     0.89441   0.53821   0.83334   0.00000  Uiso   1.00
O1476  O     0.77226   0.46179   0.83333   0.00000  Uiso   1.00
C1477  C     0.75338   0.50153   0.83505   0.00000  Uiso   1.00
C1478  C     0.91304   0.49858   0.83407   0.00000  Uiso   1.00
O1479  O     0.83334   0.53821   0.76178   0.00000  Uiso   1.00
O1480  O     0.83333   0.46179   0.90489   0.00000  Uiso   1.00
O1481  O     0.83333   0.53821   0.90489   0.00000  Uiso   1.00
O1482  O     0.83334   0.46179   0.76178   0.00000  Uiso   1.00
C1483  C     0.83353   0.49992   0.73989   0.00000  Uiso   1.00
C1484  C     0.83391   0.50007   0.92686   0.00000  Uiso   1.00
Zn1485 Zn    0.83333   0.55104   0.83333   0.00000  Uiso   1.00
Zn1486 Zn    0.83333   0.44896   0.83333   0.00000  Uiso   1.00
C1487  C     0.83373   0.49995   0.68858   0.00000  Uiso   1.00
C1488  C     0.83387   0.50017   0.97818   0.00000  Uiso   1.00
C1489  C     0.69332   0.47681   0.87601   0.00000  Uiso   1.00
C1490  C     0.97373   0.52194   0.79892   0.00000  Uiso   1.00
C1491  C     0.98319   0.47238   0.87248   0.00000  Uiso   1.00
C1492  C     0.68129   0.53342   0.80995   0.00000  Uiso   1.00
C1493  C     0.95742   0.49532   0.83353   0.00000  Uiso   1.00
C1494  C     0.70907   0.50527   0.84176   0.00000  Uiso   1.00
C1495  C     0.85076   0.35506   0.87362   0.00000  Uiso   1.00
C1496  C     0.80946   0.64345   0.79534   0.00000  Uiso   1.00
C1497  C     0.81303   0.35775   0.79248   0.00000  Uiso   1.00
C1498  C     0.85849   0.64231   0.86802   0.00000  Uiso   1.00
N1499  N     0.83333   0.61907   0.83333   0.00000  Uiso   1.00
N1500  N     0.83333   0.38093   0.83333   0.00000  Uiso   1.00
C1501  C     0.72189   0.45504   0.91900   0.00000  Uiso   1.00
H1502  H     0.75420   0.46577   0.92166   0.00000  Uiso   1.00
H1503  H     0.71086   0.46465   0.95572   0.00000  Uiso   1.00
H1504  H     0.72254   0.41869   0.91462   0.00000  Uiso   1.00
C1505  C     0.94715   0.54071   0.75232   0.00000  Uiso   1.00
H1506  H     0.92017   0.52042   0.74084   0.00000  Uiso   1.00
H1507  H     0.93545   0.57501   0.75923   0.00000  Uiso   1.00
H1508  H     0.96584   0.54034   0.71975   0.00000  Uiso   1.00
C1509  C     0.96371   0.44418   0.90951   0.00000  Uiso   1.00
H1510  H     0.94757   0.41708   0.88889   0.00000  Uiso   1.00
H1511  H     0.98619   0.42809   0.93912   0.00000  Uiso   1.00
H1512  H     0.94089   0.46483   0.92900   0.00000  Uiso   1.00
C1513  C     0.69057   0.57926   0.79490   0.00000  Uiso   1.00
H1514  H     0.71901   0.59157   0.81600   0.00000  Uiso   1.00
H1515  H     0.69041   0.58106   0.75345   0.00000  Uiso   1.00
H1516  H     0.99879   0.60324   0.80430   0.00000  Uiso   1.00
S1517  S     0.84754   0.37206   0.93649   0.00000  Uiso   1.00
O1518  O     0.80525   0.39456   0.93986   0.00000  Uiso   1.00
O1519  O     0.85146   0.66600   0.97098   0.00000  Uiso   1.00
O1520  O     0.88591   0.40584   0.95538   0.00000  Uiso   1.00
H1521  H     0.90053   0.39299   0.98708   0.00000  Uiso   1.00
S1522  S     0.77692   0.61742   0.74509   0.00000  Uiso   1.00
O1523  O     0.73597   0.64422   0.73729   0.00000  Uiso   1.00
O1524  O     0.79937   0.61859   0.69863   0.00000  Uiso   1.00
O1525  O     0.76278   0.56573   0.74821   0.00000  Uiso   1.00
H1526  H     0.75179   0.55788   0.71326   0.00000  Uiso   1.00
S1527  S     0.79573   0.38602   0.73319   0.00000  Uiso   1.00
O1528  O     0.83516   0.39697   0.71214   0.00000  Uiso   1.00
O1529  O     0.77131   0.36309   0.69075   0.00000  Uiso   1.00
O1530  O     0.76483   0.43101   0.74273   0.00000  Uiso   1.00
H1531  H     0.73815   0.41952   0.75067   0.00000  Uiso   1.00
S1532  S     0.90635   0.61885   0.89991   0.00000  Uiso   1.00
O1533  O     0.92790   0.65192   0.93429   0.00000  Uiso   1.00
O1534  O     0.89956   0.57927   0.93060   0.00000  Uiso   1.00
O1535  O     0.93894   0.60474   0.85710   0.00000  Uiso   1.00
H1536  H     0.96415   0.59119   0.87722   0.00000  Uiso   1.00
O1537  O     0.10559   0.87154   0.83333   0.00000  Uiso   1.00
O1538  O     0.22774   0.79513   0.83334   0.00000  Uiso   1.00
O1539  O     0.22774   0.87154   0.83334   0.00000  Uiso   1.00
O1540  O     0.10559   0.79513   0.83333   0.00000  Uiso   1.00
C1541  C     0.08671   0.83487   0.83505   0.00000  Uiso   1.00
C1542  C     0.24637   0.83191   0.83407   0.00000  Uiso   1.00
O1543  O     0.16667   0.87155   0.76178   0.00000  Uiso   1.00
O1544  O     0.16666   0.79512   0.90489   0.00000  Uiso   1.00
O1545  O     0.16666   0.87155   0.90489   0.00000  Uiso   1.00
O1546  O     0.16667   0.79512   0.76178   0.00000  Uiso   1.00
C1547  C     0.16687   0.83326   0.73989   0.00000  Uiso   1.00
C1548  C     0.16724   0.83340   0.92686   0.00000  Uiso   1.00
Zn1549 Zn    0.16667   0.88437   0.83333   0.00000  Uiso   1.00
Zn1550 Zn    0.16667   0.78229   0.83333   0.00000  Uiso   1.00
C1551  C     0.16706   0.83329   0.68858   0.00000  Uiso   1.00
C1552  C     0.16720   0.83350   0.97818   0.00000  Uiso   1.00
C1553  C     0.02665   0.81014   0.87601   0.00000  Uiso   1.00
C1554  C     0.30707   0.85527   0.79892   0.00000  Uiso   1.00
C1555  C     0.31652   0.80571   0.87248   0.00000  Uiso   1.00
C1556  C     0.01462   0.86675   0.80995   0.00000  Uiso   1.00
C1557  C     0.29075   0.82865   0.83353   0.00000  Uiso   1.00
C1558  C     0.04241   0.83861   0.84176   0.00000  Uiso   1.00
C1559  C     0.18409   0.68839   0.87362   0.00000  Uiso   1.00
C1560  C     0.14280   0.97678   0.79534   0.00000  Uiso   1.00
C1561  C     0.14637   0.69108   0.79248   0.00000  Uiso   1.00
C1562  C     0.19182   0.97564   0.86802   0.00000  Uiso   1.00
N1563  N     0.16667   0.95240   0.83333   0.00000  Uiso   1.00
N1564  N     0.16667   0.71427   0.83333   0.00000  Uiso   1.00
C1565  C     0.05523   0.78837   0.91900   0.00000  Uiso   1.00
H1566  H     0.08753   0.79910   0.92166   0.00000  Uiso   1.00
H1567  H     0.04419   0.79799   0.95572   0.00000  Uiso   1.00
H1568  H     0.05587   0.75202   0.91462   0.00000  Uiso   1.00
C1569  C     0.28048   0.87404   0.75232   0.00000  Uiso   1.00
H1570  H     0.25350   0.85375   0.74084   0.00000  Uiso   1.00
H1571  H     0.26878   0.90834   0.75923   0.00000  Uiso   1.00
H1572  H     0.29917   0.87368   0.71975   0.00000  Uiso   1.00
C1573  C     0.29705   0.77751   0.90951   0.00000  Uiso   1.00
H1574  H     0.28090   0.75041   0.88889   0.00000  Uiso   1.00
H1575  H     0.31953   0.76142   0.93912   0.00000  Uiso   1.00
H1576  H     0.27423   0.79816   0.92900   0.00000  Uiso   1.00
C1577  C     0.02391   0.91259   0.79490   0.00000  Uiso   1.00
H1578  H     0.05234   0.92490   0.81600   0.00000  Uiso   1.00
H1579  H     0.02374   0.91439   0.75345   0.00000  Uiso   1.00
H1580  H     0.33212   0.93658   0.80430   0.00000  Uiso   1.00
S1581  S     0.18087   0.70540   0.93649   0.00000  Uiso   1.00
O1582  O     0.13859   0.72790   0.93986   0.00000  Uiso   1.00
O1583  O     0.18480   0.99933   0.97098   0.00000  Uiso   1.00
O1584  O     0.21924   0.73917   0.95538   0.00000  Uiso   1.00
H1585  H     0.23386   0.72632   0.98708   0.00000  Uiso   1.00
S1586  S     0.11025   0.95076   0.74509   0.00000  Uiso   1.00
O1587  O     0.06930   0.97755   0.73729   0.00000  Uiso   1.00
O1588  O     0.13271   0.95192   0.69863   0.00000  Uiso   1.00
O1589  O     0.09611   0.89906   0.74821   0.00000  Uiso   1.00
H1590  H     0.08512   0.89121   0.71326   0.00000  Uiso   1.00
S1591  S     0.12906   0.71936   0.73319   0.00000  Uiso   1.00
O1592  O     0.16849   0.73030   0.71214   0.00000  Uiso   1.00
O1593  O     0.10465   0.69643   0.69075   0.00000  Uiso   1.00
O1594  O     0.09817   0.76434   0.74273   0.00000  Uiso   1.00
H1595  H     0.07148   0.75285   0.75067   0.00000  Uiso   1.00
S1596  S     0.23968   0.95219   0.89991   0.00000  Uiso   1.00
O1597  O     0.26124   0.98525   0.93429   0.00000  Uiso   1.00
O1598  O     0.23290   0.91260   0.93060   0.00000  Uiso   1.00
O1599  O     0.27228   0.93807   0.85710   0.00000  Uiso   1.00
H1600  H     0.29748   0.92453   0.87722   0.00000  Uiso   1.00
O1601  O     0.43892   0.87154   0.83333   0.00000  Uiso   1.00
O1602  O     0.56108   0.79513   0.83334   0.00000  Uiso   1.00
O1603  O     0.56108   0.87154   0.83334   0.00000  Uiso   1.00
O1604  O     0.43892   0.79513   0.83333   0.00000  Uiso   1.00
C1605  C     0.42005   0.83487   0.83505   0.00000  Uiso   1.00
C1606  C     0.57971   0.83191   0.83407   0.00000  Uiso   1.00
O1607  O     0.50000   0.87155   0.76178   0.00000  Uiso   1.00
O1608  O     0.50000   0.79512   0.90489   0.00000  Uiso   1.00
O1609  O     0.50000   0.87155   0.90489   0.00000  Uiso   1.00
O1610  O     0.50000   0.79512   0.76178   0.00000  Uiso   1.00
C1611  C     0.50020   0.83326   0.73989   0.00000  Uiso   1.00
C1612  C     0.50058   0.83340   0.92686   0.00000  Uiso   1.00
Zn1613 Zn    0.50000   0.88437   0.83333   0.00000  Uiso   1.00
Zn1614 Zn    0.50000   0.78229   0.83333   0.00000  Uiso   1.00
C1615  C     0.50039   0.83329   0.68858   0.00000  Uiso   1.00
C1616  C     0.50053   0.83350   0.97818   0.00000  Uiso   1.00
C1617  C     0.35999   0.81014   0.87601   0.00000  Uiso   1.00
C1618  C     0.64040   0.85527   0.79892   0.00000  Uiso   1.00
C1619  C     0.64986   0.80571   0.87248   0.00000  Uiso   1.00
C1620  C     0.34796   0.86675   0.80995   0.00000  Uiso   1.00
C1621  C     0.62408   0.82865   0.83353   0.00000  Uiso   1.00
C1622  C     0.37574   0.83861   0.84176   0.00000  Uiso   1.00
C1623  C     0.51743   0.68839   0.87362   0.00000  Uiso   1.00
C1624  C     0.47613   0.97678   0.79534   0.00000  Uiso   1.00
C1625  C     0.47970   0.69108   0.79248   0.00000  Uiso   1.00
C1626  C     0.52515   0.97564   0.86802   0.00000  Uiso   1.00
N1627  N     0.50000   0.95240   0.83333   0.00000  Uiso   1.00
N1628  N     0.50000   0.71427   0.83333   0.00000  Uiso   1.00
C1629  C     0.38856   0.78837   0.91900   0.00000  Uiso   1.00
H1630  H     0.42086   0.79910   0.92166   0.00000  Uiso   1.00
H1631  H     0.37753   0.79799   0.95572   0.00000  Uiso   1.00
H1632  H     0.38921   0.75202   0.91462   0.00000  Uiso   1.00
C1633  C     0.61381   0.87404   0.75232   0.00000  Uiso   1.00
H1634  H     0.58684   0.85375   0.74084   0.00000  Uiso   1.00
H1635  H     0.60211   0.90834   0.75923   0.00000  Uiso   1.00
H1636  H     0.63250   0.87368   0.71975   0.00000  Uiso   1.00
C1637  C     0.63038   0.77751   0.90951   0.00000  Uiso   1.00
H1638  H     0.61423   0.75041   0.88889   0.00000  Uiso   1.00
H1639  H     0.65286   0.76142   0.93912   0.00000  Uiso   1.00
H1640  H     0.60756   0.79816   0.92900   0.00000  Uiso   1.00
C1641  C     0.35724   0.91259   0.79490   0.00000  Uiso   1.00
H1642  H     0.38567   0.92490   0.81600   0.00000  Uiso   1.00
H1643  H     0.35708   0.91439   0.75345   0.00000  Uiso   1.00
H1644  H     0.66546   0.93658   0.80430   0.00000  Uiso   1.00
S1645  S     0.51421   0.70540   0.93649   0.00000  Uiso   1.00
O1646  O     0.47192   0.72790   0.93986   0.00000  Uiso   1.00
O1647  O     0.51813   0.99933   0.97098   0.00000  Uiso   1.00
O1648  O     0.55258   0.73917   0.95538   0.00000  Uiso   1.00
H1649  H     0.56720   0.72632   0.98708   0.00000  Uiso   1.00
S1650  S     0.44358   0.95076   0.74509   0.00000  Uiso   1.00
O1651  O     0.40263   0.97755   0.73729   0.00000  Uiso   1.00
O1652  O     0.46604   0.95192   0.69863   0.00000  Uiso   1.00
O1653  O     0.42945   0.89906   0.74821   0.00000  Uiso   1.00
H1654  H     0.41845   0.89121   0.71326   0.00000  Uiso   1.00
S1655  S     0.46240   0.71936   0.73319   0.00000  Uiso   1.00
O1656  O     0.50182   0.73030   0.71214   0.00000  Uiso   1.00
O1657  O     0.43798   0.69643   0.69075   0.00000  Uiso   1.00
O1658  O     0.43150   0.76434   0.74273   0.00000  Uiso   1.00
H1659  H     0.40482   0.75285   0.75067   0.00000  Uiso   1.00
S1660  S     0.57301   0.95219   0.89991   0.00000  Uiso   1.00
O1661  O     0.59457   0.98525   0.93429   0.00000  Uiso   1.00
O1662  O     0.56623   0.91260   0.93060   0.00000  Uiso   1.00
O1663  O     0.60561   0.93807   0.85710   0.00000  Uiso   1.00
H1664  H     0.63081   0.92453   0.87722   0.00000  Uiso   1.00
O1665  O     0.77226   0.87154   0.83333   0.00000  Uiso   1.00
O1666  O     0.89441   0.79513   0.83334   0.00000  Uiso   1.00
O1667  O     0.89441   0.87154   0.83334   0.00000  Uiso   1.00
O1668  O     0.77226   0.79513   0.83333   0.00000  Uiso   1.00
C1669  C     0.75338   0.83487   0.83505   0.00000  Uiso   1.00
C1670  C     0.91304   0.83191   0.83407   0.00000  Uiso   1.00
O1671  O     0.83334   0.87155   0.76178   0.00000  Uiso   1.00
O1672  O     0.83333   0.79512   0.90489   0.00000  Uiso   1.00
O1673  O     0.83333   0.87155   0.90489   0.00000  Uiso   1.00
O1674  O     0.83334   0.79512   0.76178   0.00000  Uiso   1.00
C1675  C     0.83353   0.83326   0.73989   0.00000  Uiso   1.00
C1676  C     0.83391   0.83340   0.92686   0.00000  Uiso   1.00
Zn1677 Zn    0.83333   0.88437   0.83333   0.00000  Uiso   1.00
Zn1678 Zn    0.83333   0.78229   0.83333   0.00000  Uiso   1.00
C1679  C     0.83373   0.83329   0.68858   0.00000  Uiso   1.00
C1680  C     0.83387   0.83350   0.97818   0.00000  Uiso   1.00
C1681  C     0.69332   0.81014   0.87601   0.00000  Uiso   1.00
C1682  C     0.97373   0.85527   0.79892   0.00000  Uiso   1.00
C1683  C     0.98319   0.80571   0.87248   0.00000  Uiso   1.00
C1684  C     0.68129   0.86675   0.80995   0.00000  Uiso   1.00
C1685  C     0.95742   0.82865   0.83353   0.00000  Uiso   1.00
C1686  C     0.70907   0.83861   0.84176   0.00000  Uiso   1.00
C1687  C     0.85076   0.68839   0.87362   0.00000  Uiso   1.00
C1688  C     0.80946   0.97678   0.79534   0.00000  Uiso   1.00
C1689  C     0.81303   0.69108   0.79248   0.00000  Uiso   1.00
C1690  C     0.85849   0.97564   0.86802   0.00000  Uiso   1.00
N1691  N     0.83333   0.95240   0.83333   0.00000  Uiso   1.00
N1692  N     0.83333   0.71427   0.83333   0.00000  Uiso   1.00
C1693  C     0.72189   0.78837   0.91900   0.00000  Uiso   1.00
H1694  H     0.75420   0.79910   0.92166   0.00000  Uiso   1.00
H1695  H     0.71086   0.79799   0.95572   0.00000  Uiso   1.00
H1696  H     0.72254   0.75202   0.91462   0.00000  Uiso   1.00
C1697  C     0.94715   0.87404   0.75232   0.00000  Uiso   1.00
H1698  H     0.92017   0.85375   0.74084   0.00000  Uiso   1.00
H1699  H     0.93545   0.90834   0.75923   0.00000  Uiso   1.00
H1700  H     0.96584   0.87368   0.71975   0.00000  Uiso   1.00
C1701  C     0.96371   0.77751   0.90951   0.00000  Uiso   1.00
H1702  H     0.94757   0.75041   0.88889   0.00000  Uiso   1.00
H1703  H     0.98619   0.76142   0.93912   0.00000  Uiso   1.00
H1704  H     0.94089   0.79816   0.92900   0.00000  Uiso   1.00
C1705  C     0.69057   0.91259   0.79490   0.00000  Uiso   1.00
H1706  H     0.71901   0.92490   0.81600   0.00000  Uiso   1.00
H1707  H     0.69041   0.91439   0.75345   0.00000  Uiso   1.00
H1708  H     0.99879   0.93658   0.80430   0.00000  Uiso   1.00
S1709  S     0.84754   0.70540   0.93649   0.00000  Uiso   1.00
O1710  O     0.80525   0.72790   0.93986   0.00000  Uiso   1.00
O1711  O     0.85146   0.99933   0.97098   0.00000  Uiso   1.00
O1712  O     0.88591   0.73917   0.95538   0.00000  Uiso   1.00
H1713  H     0.90053   0.72632   0.98708   0.00000  Uiso   1.00
S1714  S     0.77692   0.95076   0.74509   0.00000  Uiso   1.00
O1715  O     0.73597   0.97755   0.73729   0.00000  Uiso   1.00
O1716  O     0.79937   0.95192   0.69863   0.00000  Uiso   1.00
O1717  O     0.76278   0.89906   0.74821   0.00000  Uiso   1.00
H1718  H     0.75179   0.89121   0.71326   0.00000  Uiso   1.00
S1719  S     0.79573   0.71936   0.73319   0.00000  Uiso   1.00
O1720  O     0.83516   0.73030   0.71214   0.00000  Uiso   1.00
O1721  O     0.77131   0.69643   0.69075   0.00000  Uiso   1.00
O1722  O     0.76483   0.76434   0.74273   0.00000  Uiso   1.00
H1723  H     0.73815   0.75285   0.75067   0.00000  Uiso   1.00
S1724  S     0.90635   0.95219   0.89991   0.00000  Uiso   1.00
O1725  O     0.92790   0.98525   0.93429   0.00000  Uiso   1.00
O1726  O     0.89956   0.91260   0.93060   0.00000  Uiso   1.00
O1727  O     0.93894   0.93807   0.85710   0.00000  Uiso   1.00
H1728  H     0.96415   0.92453   0.87722   0.00000  Uiso   1.00
loop_
_geom_bond_atom_site_label_1
_geom_bond_atom_site_label_2
_geom_bond_distance
_geom_bond_site_symmetry_2
_ccdc_geom_bond_type
O1     C5      1.304   .     A
O1     Zn13    2.027   .     S
O2     C6      1.299   .     A
O2     Zn14    2.027   .     S
O3     Zn13    1.983   .     S
O3     C6      1.314   .     A
O4     Zn14    1.983   .     S
O4     C5      1.324   .     A
C5     C22     1.456   .     S
C6     C21     1.429   .     S
O7     C11     1.299   .     A
O7     Zn13    1.945   .     S
O8     C12     1.300   .     A
O8     Zn14    1.945   .     S
O9     C12     1.300   .     A
O9     Zn13    1.949   .     S
O10    C11     1.302   .     A
O10    Zn14    1.949   .     S
C11    C15     1.368   .     S
C12    C16     1.368   .     S
Zn13   N27     2.068   .     S
Zn14   N28     2.068   .     S
C15    C1168   1.166   1_554 S
C16    C591    1.166   .     S
C17    C29     1.516   .     S
C17    C22     1.416   .     A
C17    C147    1.407   1_455 S
C18    C21     1.396   .     A
C18    C33     1.521   .     S
C18    C84     1.381   .     S
C19    C37     1.521   .     S
C19    C21     1.414   .     A
C19    C81     1.407   .     S
C20    C41     1.508   .     S
C20    C22     1.414   .     A
C20    C146    1.381   1_455 S
C23    N28     1.382   .     A
C23    S45     1.763   .     S
C23    C410    1.419   1_545 S
C24    N27     1.390   .     A
C24    S50     1.813   .     S
C24    C217    1.463   .     S
C25    N28     1.412   .     A
C25    S55     1.819   .     S
C25    C408    1.463   1_545 S
C26    N27     1.379   .     A
C26    S60     1.786   .     S
C26    C215    1.419   .     S
C29    H30     1.103   .     S
C29    H31     1.110   .     S
C29    H32     1.110   .     S
C33    H35     1.110   .     S
C33    H34     1.109   .     S
C33    H36     1.110   .     S
C37    H40     1.111   .     S
C37    H38     1.110   .     S
C37    H39     1.105   .     S
C41    H42     1.103   .     S
C41    H43     1.106   .     S
C41    H172    1.107   1_455 S
H44    C105    1.107   .     S
S45    O48     1.684   .     S
S45    O46     1.500   .     D
S45    O431    1.505   1_545 S
O47    S237    1.505   .     S
O48    H49     0.990   .     S
S50    O52     1.504   .     D
S50    O51     1.504   .     D
S50    O53     1.666   .     S
O53    H54     0.992   .     S
S55    O56     1.500   .     D
S55    O57     1.496   .     D
S55    O58     1.680   .     S
O58    H59     0.991   .     S
S60    O61     1.503   .     D
S60    O63     1.674   .     S
S60    O62     1.499   .     D
O63    H64     0.991   .     S
O65    C69     1.304   .     A
O65    Zn77    2.027   .     S
O66    C70     1.299   .     A
O66    Zn78    2.027   .     S
O67    Zn77    1.983   .     S
O67    C70     1.314   .     A
O68    Zn78    1.983   .     S
O68    C69     1.324   .     A
C69    C86     1.456   .     S
C70    C85     1.429   .     S
O71    C75     1.299   .     A
O71    Zn77    1.945   .     S
O72    C76     1.300   .     A
O72    Zn78    1.945   .     S
O73    C76     1.300   .     A
O73    Zn77    1.949   .     S
O74    C75     1.302   .     A
O74    Zn78    1.949   .     S
C75    C79     1.368   .     S
C76    C80     1.368   .     S
Zn77   N91     2.068   .     S
Zn78   N92     2.068   .     S
C79    C1232   1.166   1_554 S
C80    C655    1.166   .     S
C81    C93     1.516   .     S
C81    C86     1.416   .     A
C82    C85     1.396   .     A
C82    C97     1.521   .     S
C82    C148    1.381   .     S
C83    C101    1.521   .     S
C83    C85     1.414   .     A
C83    C145    1.407   .     S
C84    C105    1.508   .     S
C84    C86     1.414   .     A
C87    N92     1.382   .     A
C87    S109    1.763   .     S
C87    C474    1.419   1_545 S
C88    N91     1.390   .     A
C88    S114    1.813   .     S
C88    C281    1.463   .     S
C89    N92     1.412   .     A
C89    S119    1.819   .     S
C89    C472    1.463   1_545 S
C90    N91     1.379   .     A
C90    S124    1.786   .     S
C90    C279    1.419   .     S
C93    H94     1.103   .     S
C93    H95     1.110   .     S
C93    H96     1.110   .     S
C97    H99     1.110   .     S
C97    H98     1.109   .     S
C97    H100    1.110   .     S
C101   H104    1.111   .     S
C101   H102    1.110   .     S
C101   H103    1.105   .     S
C105   H106    1.103   .     S
C105   H107    1.106   .     S
H108   C169    1.107   .     S
S109   O112    1.684   .     S
S109   O110    1.500   .     D
S109   O495    1.505   1_545 S
O111   S301    1.505   .     S
O112   H113    0.990   .     S
S114   O116    1.504   .     D
S114   O115    1.504   .     D
S114   O117    1.666   .     S
O117   H118    0.992   .     S
S119   O120    1.500   .     D
S119   O121    1.496   .     D
S119   O122    1.680   .     S
O122   H123    0.991   .     S
S124   O125    1.503   .     D
S124   O127    1.674   .     S
S124   O126    1.499   .     D
O127   H128    0.991   .     S
O129   C133    1.304   .     A
O129   Zn141   2.027   .     S
O130   C134    1.299   .     A
O130   Zn142   2.027   .     S
O131   Zn141   1.983   .     S
O131   C134    1.314   .     A
O132   Zn142   1.983   .     S
O132   C133    1.324   .     A
C133   C150    1.456   .     S
C134   C149    1.429   .     S
O135   C139    1.299   .     A
O135   Zn141   1.945   .     S
O136   C140    1.300   .     A
O136   Zn142   1.945   .     S
O137   C140    1.300   .     A
O137   Zn141   1.949   .     S
O138   C139    1.302   .     A
O138   Zn142   1.949   .     S
C139   C143    1.368   .     S
C140   C144    1.368   .     S
Zn141  N155    2.068   .     S
Zn142  N156    2.068   .     S
C143   C1296   1.166   1_554 S
C144   C719    1.166   .     S
C145   C157    1.516   .     S
C145   C150    1.416   .     A
C146   C149    1.396   .     A
C146   C161    1.521   .     S
C146   C20     1.381   1_655 S
C147   C165    1.521   .     S
C147   C149    1.414   .     A
C147   C17     1.407   1_655 S
C148   C169    1.508   .     S
C148   C150    1.414   .     A
C151   N156    1.382   .     A
C151   S173    1.763   .     S
C151   C538    1.419   1_545 S
C152   N155    1.390   .     A
C152   S178    1.813   .     S
C152   C345    1.463   .     S
C153   N156    1.412   .     A
C153   S183    1.819   .     S
C153   C536    1.463   1_545 S
C154   N155    1.379   .     A
C154   S188    1.786   .     S
C154   C343    1.419   .     S
C157   H158    1.103   .     S
C157   H159    1.110   .     S
C157   H160    1.110   .     S
C161   H163    1.110   .     S
C161   H162    1.109   .     S
C161   H164    1.110   .     S
C165   H168    1.111   .     S
C165   H166    1.110   .     S
C165   H167    1.105   .     S
C169   H170    1.103   .     S
C169   H171    1.106   .     S
H172   C41     1.107   1_655 S
S173   O176    1.684   .     S
S173   O174    1.500   .     D
S173   O559    1.505   1_545 S
O175   S365    1.505   .     S
O176   H177    0.990   .     S
S178   O180    1.504   .     D
S178   O179    1.504   .     D
S178   O181    1.666   .     S
O181   H182    0.992   .     S
S183   O184    1.500   .     D
S183   O185    1.496   .     D
S183   O186    1.680   .     S
O186   H187    0.991   .     S
S188   O189    1.503   .     D
S188   O191    1.674   .     S
S188   O190    1.499   .     D
O191   H192    0.991   .     S
O193   C197    1.304   .     A
O193   Zn205   2.027   .     S
O194   C198    1.299   .     A
O194   Zn206   2.027   .     S
O195   Zn205   1.983   .     S
O195   C198    1.314   .     A
O196   Zn206   1.983   .     S
O196   C197    1.324   .     A
C197   C214    1.456   .     S
C198   C213    1.429   .     S
O199   C203    1.299   .     A
O199   Zn205   1.945   .     S
O200   C204    1.300   .     A
O200   Zn206   1.945   .     S
O201   C204    1.300   .     A
O201   Zn205   1.949   .     S
O202   C203    1.302   .     A
O202   Zn206   1.949   .     S
C203   C207    1.368   .     S
C204   C208    1.368   .     S
Zn205  N219    2.068   .     S
Zn206  N220    2.068   .     S
C207   C1360   1.166   1_554 S
C208   C783    1.166   .     S
C209   C221    1.516   .     S
C209   C214    1.416   .     A
C209   C339    1.407   1_455 S
C210   C213    1.396   .     A
C210   C225    1.521   .     S
C210   C276    1.381   .     S
C211   C229    1.521   .     S
C211   C213    1.414   .     A
C211   C273    1.407   .     S
C212   C233    1.508   .     S
C212   C214    1.414   .     A
C212   C338    1.381   1_455 S
C215   N220    1.382   .     A
C215   S237    1.763   .     S
C216   N219    1.390   .     A
C216   S242    1.813   .     S
C216   C409    1.463   .     S
C217   N220    1.412   .     A
C217   S247    1.819   .     S
C218   N219    1.379   .     A
C218   S252    1.786   .     S
C218   C407    1.419   .     S
C221   H222    1.103   .     S
C221   H223    1.110   .     S
C221   H224    1.110   .     S
C225   H227    1.110   .     S
C225   H226    1.109   .     S
C225   H228    1.110   .     S
C229   H232    1.111   .     S
C229   H230    1.110   .     S
C229   H231    1.105   .     S
C233   H234    1.103   .     S
C233   H235    1.106   .     S
C233   H364    1.107   1_455 S
H236   C297    1.107   .     S
S237   O240    1.684   .     S
S237   O238    1.500   .     D
O239   S429    1.505   .     S
O240   H241    0.990   .     S
S242   O244    1.504   .     D
S242   O243    1.504   .     D
S242   O245    1.666   .     S
O245   H246    0.992   .     S
S247   O248    1.500   .     D
S247   O249    1.496   .     D
S247   O250    1.680   .     S
O250   H251    0.991   .     S
S252   O253    1.503   .     D
S252   O255    1.674   .     S
S252   O254    1.499   .     D
O255   H256    0.991   .     S
O257   C261    1.304   .     A
O257   Zn269   2.027   .     S
O258   C262    1.299   .     A
O258   Zn270   2.027   .     S
O259   Zn269   1.983   .     S
O259   C262    1.314   .     A
O260   Zn270   1.983   .     S
O260   C261    1.324   .     A
C261   C278    1.456   .     S
C262   C277    1.429   .     S
O263   C267    1.299   .     A
O263   Zn269   1.945   .     S
O264   C268    1.300   .     A
O264   Zn270   1.945   .     S
O265   C268    1.300   .     A
O265   Zn269   1.949   .     S
O266   C267    1.302   .     A
O266   Zn270   1.949   .     S
C267   C271    1.368   .     S
C268   C272    1.368   .     S
Zn269  N283    2.068   .     S
Zn270  N284    2.068   .     S
C271   C1424   1.166   1_554 S
C272   C847    1.166   .     S
C273   C285    1.516   .     S
C273   C278    1.416   .     A
C274   C277    1.396   .     A
C274   C289    1.521   .     S
C274   C340    1.381   .     S
C275   C293    1.521   .     S
C275   C277    1.414   .     A
C275   C337    1.407   .     S
C276   C297    1.508   .     S
C276   C278    1.414   .     A
C279   N284    1.382   .     A
C279   S301    1.763   .     S
C280   N283    1.390   .     A
C280   S306    1.813   .     S
C280   C473    1.463   .     S
C281   N284    1.412   .     A
C281   S311    1.819   .     S
C282   N283    1.379   .     A
C282   S316    1.786   .     S
C282   C471    1.419   .     S
C285   H286    1.103   .     S
C285   H287    1.110   .     S
C285   H288    1.110   .     S
C289   H291    1.110   .     S
C289   H290    1.109   .     S
C289   H292    1.110   .     S
C293   H296    1.111   .     S
C293   H294    1.110   .     S
C293   H295    1.105   .     S
C297   H298    1.103   .     S
C297   H299    1.106   .     S
H300   C361    1.107   .     S
S301   O304    1.684   .     S
S301   O302    1.500   .     D
O303   S493    1.505   .     S
O304   H305    0.990   .     S
S306   O308    1.504   .     D
S306   O307    1.504   .     D
S306   O309    1.666   .     S
O309   H310    0.992   .     S
S311   O312    1.500   .     D
S311   O313    1.496   .     D
S311   O314    1.680   .     S
O314   H315    0.991   .     S
S316   O317    1.503   .     D
S316   O319    1.674   .     S
S316   O318    1.499   .     D
O319   H320    0.991   .     S
O321   C325    1.304   .     A
O321   Zn333   2.027   .     S
O322   C326    1.299   .     A
O322   Zn334   2.027   .     S
O323   Zn333   1.983   .     S
O323   C326    1.314   .     A
O324   Zn334   1.983   .     S
O324   C325    1.324   .     A
C325   C342    1.456   .     S
C326   C341    1.429   .     S
O327   C331    1.299   .     A
O327   Zn333   1.945   .     S
O328   C332    1.300   .     A
O328   Zn334   1.945   .     S
O329   C332    1.300   .     A
O329   Zn333   1.949   .     S
O330   C331    1.302   .     A
O330   Zn334   1.949   .     S
C331   C335    1.368   .     S
C332   C336    1.368   .     S
Zn333  N347    2.068   .     S
Zn334  N348    2.068   .     S
C335   C1488   1.166   1_554 S
C336   C911    1.166   .     S
C337   C349    1.516   .     S
C337   C342    1.416   .     A
C338   C341    1.396   .     A
C338   C353    1.521   .     S
C338   C212    1.381   1_655 S
C339   C357    1.521   .     S
C339   C341    1.414   .     A
C339   C209    1.407   1_655 S
C340   C361    1.508   .     S
C340   C342    1.414   .     A
C343   N348    1.382   .     A
C343   S365    1.763   .     S
C344   N347    1.390   .     A
C344   S370    1.813   .     S
C344   C537    1.463   .     S
C345   N348    1.412   .     A
C345   S375    1.819   .     S
C346   N347    1.379   .     A
C346   S380    1.786   .     S
C346   C535    1.419   .     S
C349   H350    1.103   .     S
C349   H351    1.110   .     S
C349   H352    1.110   .     S
C353   H355    1.110   .     S
C353   H354    1.109   .     S
C353   H356    1.110   .     S
C357   H360    1.111   .     S
C357   H358    1.110   .     S
C357   H359    1.105   .     S
C361   H362    1.103   .     S
C361   H363    1.106   .     S
H364   C233    1.107   1_655 S
S365   O368    1.684   .     S
S365   O366    1.500   .     D
O367   S557    1.505   .     S
O368   H369    0.990   .     S
S370   O372    1.504   .     D
S370   O371    1.504   .     D
S370   O373    1.666   .     S
O373   H374    0.992   .     S
S375   O376    1.500   .     D
S375   O377    1.496   .     D
S375   O378    1.680   .     S
O378   H379    0.991   .     S
S380   O381    1.503   .     D
S380   O383    1.674   .     S
S380   O382    1.499   .     D
O383   H384    0.991   .     S
O385   C389    1.304   .     A
O385   Zn397   2.027   .     S
O386   C390    1.299   .     A
O386   Zn398   2.027   .     S
O387   Zn397   1.983   .     S
O387   C390    1.314   .     A
O388   Zn398   1.983   .     S
O388   C389    1.324   .     A
C389   C406    1.456   .     S
C390   C405    1.429   .     S
O391   C395    1.299   .     A
O391   Zn397   1.945   .     S
O392   C396    1.300   .     A
O392   Zn398   1.945   .     S
O393   C396    1.300   .     A
O393   Zn397   1.949   .     S
O394   C395    1.302   .     A
O394   Zn398   1.949   .     S
C395   C399    1.368   .     S
C396   C400    1.368   .     S
Zn397  N411    2.068   .     S
Zn398  N412    2.068   .     S
C399   C1552   1.166   1_554 S
C400   C975    1.166   .     S
C401   C413    1.516   .     S
C401   C406    1.416   .     A
C401   C531    1.407   1_455 S
C402   C405    1.396   .     A
C402   C417    1.521   .     S
C402   C468    1.381   .     S
C403   C421    1.521   .     S
C403   C405    1.414   .     A
C403   C465    1.407   .     S
C404   C425    1.508   .     S
C404   C406    1.414   .     A
C404   C530    1.381   1_455 S
C407   N412    1.382   .     A
C407   S429    1.763   .     S
C408   N411    1.390   .     A
C408   S434    1.813   .     S
C408   C25     1.463   1_565 S
C409   N412    1.412   .     A
C409   S439    1.819   .     S
C410   N411    1.379   .     A
C410   S444    1.786   .     S
C410   C23     1.419   1_565 S
C413   H414    1.103   .     S
C413   H415    1.110   .     S
C413   H416    1.110   .     S
C417   H419    1.110   .     S
C417   H418    1.109   .     S
C417   H420    1.110   .     S
C421   H424    1.111   .     S
C421   H422    1.110   .     S
C421   H423    1.105   .     S
C425   H426    1.103   .     S
C425   H427    1.106   .     S
C425   H556    1.107   1_455 S
H428   C489    1.107   .     S
S429   O432    1.684   .     S
S429   O430    1.500   .     D
O431   S45     1.505   1_565 S
O432   H433    0.990   .     S
S434   O436    1.504   .     D
S434   O435    1.504   .     D
S434   O437    1.666   .     S
O437   H438    0.992   .     S
S439   O440    1.500   .     D
S439   O441    1.496   .     D
S439   O442    1.680   .     S
O442   H443    0.991   .     S
S444   O445    1.503   .     D
S444   O447    1.674   .     S
S444   O446    1.499   .     D
O447   H448    0.991   .     S
O449   C453    1.304   .     A
O449   Zn461   2.027   .     S
O450   C454    1.299   .     A
O450   Zn462   2.027   .     S
O451   Zn461   1.983   .     S
O451   C454    1.314   .     A
O452   Zn462   1.983   .     S
O452   C453    1.324   .     A
C453   C470    1.456   .     S
C454   C469    1.429   .     S
O455   C459    1.299   .     A
O455   Zn461   1.945   .     S
O456   C460    1.300   .     A
O456   Zn462   1.945   .     S
O457   C460    1.300   .     A
O457   Zn461   1.949   .     S
O458   C459    1.302   .     A
O458   Zn462   1.949   .     S
C459   C463    1.368   .     S
C460   C464    1.368   .     S
Zn461  N475    2.068   .     S
Zn462  N476    2.068   .     S
C463   C1616   1.166   1_554 S
C464   C1039   1.166   .     S
C465   C477    1.516   .     S
C465   C470    1.416   .     A
C466   C469    1.396   .     A
C466   C481    1.521   .     S
C466   C532    1.381   .     S
C467   C485    1.521   .     S
C467   C469    1.414   .     A
C467   C529    1.407   .     S
C468   C489    1.508   .     S
C468   C470    1.414   .     A
C471   N476    1.382   .     A
C471   S493    1.763   .     S
C472   N475    1.390   .     A
C472   S498    1.813   .     S
C472   C89     1.463   1_565 S
C473   N476    1.412   .     A
C473   S503    1.819   .     S
C474   N475    1.379   .     A
C474   S508    1.786   .     S
C474   C87     1.419   1_565 S
C477   H478    1.103   .     S
C477   H479    1.110   .     S
C477   H480    1.110   .     S
C481   H483    1.110   .     S
C481   H482    1.109   .     S
C481   H484    1.110   .     S
C485   H488    1.111   .     S
C485   H486    1.110   .     S
C485   H487    1.105   .     S
C489   H490    1.103   .     S
C489   H491    1.106   .     S
H492   C553    1.107   .     S
S493   O496    1.684   .     S
S493   O494    1.500   .     D
O495   S109    1.505   1_565 S
O496   H497    0.990   .     S
S498   O500    1.504   .     D
S498   O499    1.504   .     D
S498   O501    1.666   .     S
O501   H502    0.992   .     S
S503   O504    1.500   .     D
S503   O505    1.496   .     D
S503   O506    1.680   .     S
O506   H507    0.991   .     S
S508   O509    1.503   .     D
S508   O511    1.674   .     S
S508   O510    1.499   .     D
O511   H512    0.991   .     S
O513   C517    1.304   .     A
O513   Zn525   2.027   .     S
O514   C518    1.299   .     A
O514   Zn526   2.027   .     S
O515   Zn525   1.983   .     S
O515   C518    1.314   .     A
O516   Zn526   1.983   .     S
O516   C517    1.324   .     A
C517   C534    1.456   .     S
C518   C533    1.429   .     S
O519   C523    1.299   .     A
O519   Zn525   1.945   .     S
O520   C524    1.300   .     A
O520   Zn526   1.945   .     S
O521   C524    1.300   .     A
O521   Zn525   1.949   .     S
O522   C523    1.302   .     A
O522   Zn526   1.949   .     S
C523   C527    1.368   .     S
C524   C528    1.368   .     S
Zn525  N539    2.068   .     S
Zn526  N540    2.068   .     S
C527   C1680   1.166   1_554 S
C528   C1103   1.166   .     S
C529   C541    1.516   .     S
C529   C534    1.416   .     A
C530   C533    1.396   .     A
C530   C545    1.521   .     S
C530   C404    1.381   1_655 S
C531   C549    1.521   .     S
C531   C533    1.414   .     A
C531   C401    1.407   1_655 S
C532   C553    1.508   .     S
C532   C534    1.414   .     A
C535   N540    1.382   .     A
C535   S557    1.763   .     S
C536   N539    1.390   .     A
C536   S562    1.813   .     S
C536   C153    1.463   1_565 S
C537   N540    1.412   .     A
C537   S567    1.819   .     S
C538   N539    1.379   .     A
C538   S572    1.786   .     S
C538   C151    1.419   1_565 S
C541   H542    1.103   .     S
C541   H543    1.110   .     S
C541   H544    1.110   .     S
C545   H547    1.110   .     S
C545   H546    1.109   .     S
C545   H548    1.110   .     S
C549   H552    1.111   .     S
C549   H550    1.110   .     S
C549   H551    1.105   .     S
C553   H554    1.103   .     S
C553   H555    1.106   .     S
H556   C425    1.107   1_655 S
S557   O560    1.684   .     S
S557   O558    1.500   .     D
O559   S173    1.505   1_565 S
O560   H561    0.990   .     S
S562   O564    1.504   .     D
S562   O563    1.504   .     D
S562   O565    1.666   .     S
O565   H566    0.992   .     S
S567   O568    1.500   .     D
S567   O569    1.496   .     D
S567   O570    1.680   .     S
O570   H571    0.991   .     S
S572   O573    1.503   .     D
S572   O575    1.674   .     S
S572   O574    1.499   .     D
O575   H576    0.991   .     S
O577   C581    1.304   .     A
O577   Zn589   2.027   .     S
O578   C582    1.299   .     A
O578   Zn590   2.027   .     S
O579   Zn589   1.983   .     S
O579   C582    1.314   .     A
O580   Zn590   1.983   .     S
O580   C581    1.324   .     A
C581   C598    1.456   .     S
C582   C597    1.429   .     S
O583   C587    1.299   .     A
O583   Zn589   1.945   .     S
O584   C588    1.300   .     A
O584   Zn590   1.945   .     S
O585   C588    1.300   .     A
O585   Zn589   1.949   .     S
O586   C587    1.302   .     A
O586   Zn590   1.949   .     S
C587   C591    1.368   .     S
C588   C592    1.368   .     S
Zn589  N603    2.068   .     S
Zn590  N604    2.068   .     S
C592   C1167   1.166   .     S
C593   C605    1.516   .     S
C593   C598    1.416   .     A
C593   C723    1.407   1_455 S
C594   C597    1.396   .     A
C594   C609    1.521   .     S
C594   C660    1.381   .     S
C595   C613    1.521   .     S
C595   C597    1.414   .     A
C595   C657    1.407   .     S
C596   C617    1.508   .     S
C596   C598    1.414   .     A
C596   C722    1.381   1_455 S
C599   N604    1.382   .     A
C599   S621    1.763   .     S
C599   C986    1.419   1_545 S
C600   N603    1.390   .     A
C600   S626    1.813   .     S
C600   C793    1.463   .     S
C601   N604    1.412   .     A
C601   S631    1.819   .     S
C601   C984    1.463   1_545 S
C602   N603    1.379   .     A
C602   S636    1.786   .     S
C602   C791    1.419   .     S
C605   H606    1.103   .     S
C605   H607    1.110   .     S
C605   H608    1.110   .     S
C609   H611    1.110   .     S
C609   H610    1.109   .     S
C609   H612    1.110   .     S
C613   H616    1.111   .     S
C613   H614    1.110   .     S
C613   H615    1.105   .     S
C617   H618    1.103   .     S
C617   H619    1.106   .     S
C617   H748    1.107   1_455 S
H620   C681    1.107   .     S
S621   O624    1.684   .     S
S621   O622    1.500   .     D
S621   O1007   1.505   1_545 S
O623   S813    1.505   .     S
O624   H625    0.990   .     S
S626   O628    1.504   .     D
S626   O627    1.504   .     D
S626   O629    1.666   .     S
O629   H630    0.992   .     S
S631   O632    1.500   .     D
S631   O633    1.496   .     D
S631   O634    1.680   .     S
O634   H635    0.991   .     S
S636   O637    1.503   .     D
S636   O639    1.674   .     S
S636   O638    1.499   .     D
O639   H640    0.991   .     S
O641   C645    1.304   .     A
O641   Zn653   2.027   .     S
O642   C646    1.299   .     A
O642   Zn654   2.027   .     S
O643   Zn653   1.983   .     S
O643   C646    1.314   .     A
O644   Zn654   1.983   .     S
O644   C645    1.324   .     A
C645   C662    1.456   .     S
C646   C661    1.429   .     S
O647   C651    1.299   .     A
O647   Zn653   1.945   .     S
O648   C652    1.300   .     A
O648   Zn654   1.945   .     S
O649   C652    1.300   .     A
O649   Zn653   1.949   .     S
O650   C651    1.302   .     A
O650   Zn654   1.949   .     S
C651   C655    1.368   .     S
C652   C656    1.368   .     S
Zn653  N667    2.068   .     S
Zn654  N668    2.068   .     S
C656   C1231   1.166   .     S
C657   C669    1.516   .     S
C657   C662    1.416   .     A
C658   C661    1.396   .     A
C658   C673    1.521   .     S
C658   C724    1.381   .     S
C659   C677    1.521   .     S
C659   C661    1.414   .     A
C659   C721    1.407   .     S
C660   C681    1.508   .     S
C660   C662    1.414   .     A
C663   N668    1.382   .     A
C663   S685    1.763   .     S
C663   C1050   1.419   1_545 S
C664   N667    1.390   .     A
C664   S690    1.813   .     S
C664   C857    1.463   .     S
C665   N668    1.412   .     A
C665   S695    1.819   .     S
C665   C1048   1.463   1_545 S
C666   N667    1.379   .     A
C666   S700    1.786   .     S
C666   C855    1.419   .     S
C669   H670    1.103   .     S
C669   H671    1.110   .     S
C669   H672    1.110   .     S
C673   H675    1.110   .     S
C673   H674    1.109   .     S
C673   H676    1.110   .     S
C677   H680    1.111   .     S
C677   H678    1.110   .     S
C677   H679    1.105   .     S
C681   H682    1.103   .     S
C681   H683    1.106   .     S
H684   C745    1.107   .     S
S685   O688    1.684   .     S
S685   O686    1.500   .     D
S685   O1071   1.505   1_545 S
O687   S877    1.505   .     S
O688   H689    0.990   .     S
S690   O692    1.504   .     D
S690   O691    1.504   .     D
S690   O693    1.666   .     S
O693   H694    0.992   .     S
S695   O696    1.500   .     D
S695   O697    1.496   .     D
S695   O698    1.680   .     S
O698   H699    0.991   .     S
S700   O701    1.503   .     D
S700   O703    1.674   .     S
S700   O702    1.499   .     D
O703   H704    0.991   .     S
O705   C709    1.304   .     A
O705   Zn717   2.027   .     S
O706   C710    1.299   .     A
O706   Zn718   2.027   .     S
O707   Zn717   1.983   .     S
O707   C710    1.314   .     A
O708   Zn718   1.983   .     S
O708   C709    1.324   .     A
C709   C726    1.456   .     S
C710   C725    1.429   .     S
O711   C715    1.299   .     A
O711   Zn717   1.945   .     S
O712   C716    1.300   .     A
O712   Zn718   1.945   .     S
O713   C716    1.300   .     A
O713   Zn717   1.949   .     S
O714   C715    1.302   .     A
O714   Zn718   1.949   .     S
C715   C719    1.368   .     S
C716   C720    1.368   .     S
Zn717  N731    2.068   .     S
Zn718  N732    2.068   .     S
C720   C1295   1.166   .     S
C721   C733    1.516   .     S
C721   C726    1.416   .     A
C722   C725    1.396   .     A
C722   C737    1.521   .     S
C722   C596    1.381   1_655 S
C723   C741    1.521   .     S
C723   C725    1.414   .     A
C723   C593    1.407   1_655 S
C724   C745    1.508   .     S
C724   C726    1.414   .     A
C727   N732    1.382   .     A
C727   S749    1.763   .     S
C727   C1114   1.419   1_545 S
C728   N731    1.390   .     A
C728   S754    1.813   .     S
C728   C921    1.463   .     S
C729   N732    1.412   .     A
C729   S759    1.819   .     S
C729   C1112   1.463   1_545 S
C730   N731    1.379   .     A
C730   S764    1.786   .     S
C730   C919    1.419   .     S
C733   H734    1.103   .     S
C733   H735    1.110   .     S
C733   H736    1.110   .     S
C737   H739    1.110   .     S
C737   H738    1.109   .     S
C737   H740    1.110   .     S
C741   H744    1.111   .     S
C741   H742    1.110   .     S
C741   H743    1.105   .     S
C745   H746    1.103   .     S
C745   H747    1.106   .     S
H748   C617    1.107   1_655 S
S749   O752    1.684   .     S
S749   O750    1.500   .     D
S749   O1135   1.505   1_545 S
O751   S941    1.505   .     S
O752   H753    0.990   .     S
S754   O756    1.504   .     D
S754   O755    1.504   .     D
S754   O757    1.666   .     S
O757   H758    0.992   .     S
S759   O760    1.500   .     D
S759   O761    1.496   .     D
S759   O762    1.680   .     S
O762   H763    0.991   .     S
S764   O765    1.503   .     D
S764   O767    1.674   .     S
S764   O766    1.499   .     D
O767   H768    0.991   .     S
O769   C773    1.304   .     A
O769   Zn781   2.027   .     S
O770   C774    1.299   .     A
O770   Zn782   2.027   .     S
O771   Zn781   1.983   .     S
O771   C774    1.314   .     A
O772   Zn782   1.983   .     S
O772   C773    1.324   .     A
C773   C790    1.456   .     S
C774   C789    1.429   .     S
O775   C779    1.299   .     A
O775   Zn781   1.945   .     S
O776   C780    1.300   .     A
O776   Zn782   1.945   .     S
O777   C780    1.300   .     A
O777   Zn781   1.949   .     S
O778   C779    1.302   .     A
O778   Zn782   1.949   .     S
C779   C783    1.368   .     S
C780   C784    1.368   .     S
Zn781  N795    2.068   .     S
Zn782  N796    2.068   .     S
C784   C1359   1.166   .     S
C785   C797    1.516   .     S
C785   C790    1.416   .     A
C785   C915    1.407   1_455 S
C786   C789    1.396   .     A
C786   C801    1.521   .     S
C786   C852    1.381   .     S
C787   C805    1.521   .     S
C787   C789    1.414   .     A
C787   C849    1.407   .     S
C788   C809    1.508   .     S
C788   C790    1.414   .     A
C788   C914    1.381   1_455 S
C791   N796    1.382   .     A
C791   S813    1.763   .     S
C792   N795    1.390   .     A
C792   S818    1.813   .     S
C792   C985    1.463   .     S
C793   N796    1.412   .     A
C793   S823    1.819   .     S
C794   N795    1.379   .     A
C794   S828    1.786   .     S
C794   C983    1.419   .     S
C797   H798    1.103   .     S
C797   H799    1.110   .     S
C797   H800    1.110   .     S
C801   H803    1.110   .     S
C801   H802    1.109   .     S
C801   H804    1.110   .     S
C805   H808    1.111   .     S
C805   H806    1.110   .     S
C805   H807    1.105   .     S
C809   H810    1.103   .     S
C809   H811    1.106   .     S
C809   H940    1.107   1_455 S
H812   C873    1.107   .     S
S813   O816    1.684   .     S
S813   O814    1.500   .     D
O815   S1005   1.505   .     S
O816   H817    0.990   .     S
S818   O820    1.504   .     D
S818   O819    1.504   .     D
S818   O821    1.666   .     S
O821   H822    0.992   .     S
S823   O824    1.500   .     D
S823   O825    1.496   .     D
S823   O826    1.680   .     S
O826   H827    0.991   .     S
S828   O829    1.503   .     D
S828   O831    1.674   .     S
S828   O830    1.499   .     D
O831   H832    0.991   .     S
O833   C837    1.304   .     A
O833   Zn845   2.027   .     S
O834   C838    1.299   .     A
O834   Zn846   2.027   .     S
O835   Zn845   1.983   .     S
O835   C838    1.314   .     A
O836   Zn846   1.983   .     S
O836   C837    1.324   .     A
C837   C854    1.456   .     S
C838   C853    1.429   .     S
O839   C843    1.299   .     A
O839   Zn845   1.945   .     S
O840   C844    1.300   .     A
O840   Zn846   1.945   .     S
O841   C844    1.300   .     A
O841   Zn845   1.949   .     S
O842   C843    1.302   .     A
O842   Zn846   1.949   .     S
C843   C847    1.368   .     S
C844   C848    1.368   .     S
Zn845  N859    2.068   .     S
Zn846  N860    2.068   .     S
C848   C1423   1.166   .     S
C849   C861    1.516   .     S
C849   C854    1.416   .     A
C850   C853    1.396   .     A
C850   C865    1.521   .     S
C850   C916    1.381   .     S
C851   C869    1.521   .     S
C851   C853    1.414   .     A
C851   C913    1.407   .     S
C852   C873    1.508   .     S
C852   C854    1.414   .     A
C855   N860    1.382   .     A
C855   S877    1.763   .     S
C856   N859    1.390   .     A
C856   S882    1.813   .     S
C856   C1049   1.463   .     S
C857   N860    1.412   .     A
C857   S887    1.819   .     S
C858   N859    1.379   .     A
C858   S892    1.786   .     S
C858   C1047   1.419   .     S
C861   H862    1.103   .     S
C861   H863    1.110   .     S
C861   H864    1.110   .     S
C865   H867    1.110   .     S
C865   H866    1.109   .     S
C865   H868    1.110   .     S
C869   H872    1.111   .     S
C869   H870    1.110   .     S
C869   H871    1.105   .     S
C873   H874    1.103   .     S
C873   H875    1.106   .     S
H876   C937    1.107   .     S
S877   O880    1.684   .     S
S877   O878    1.500   .     D
O879   S1069   1.505   .     S
O880   H881    0.990   .     S
S882   O884    1.504   .     D
S882   O883    1.504   .     D
S882   O885    1.666   .     S
O885   H886    0.992   .     S
S887   O888    1.500   .     D
S887   O889    1.496   .     D
S887   O890    1.680   .     S
O890   H891    0.991   .     S
S892   O893    1.503   .     D
S892   O895    1.674   .     S
S892   O894    1.499   .     D
O895   H896    0.991   .     S
O897   C901    1.304   .     A
O897   Zn909   2.027   .     S
O898   C902    1.299   .     A
O898   Zn910   2.027   .     S
O899   Zn909   1.983   .     S
O899   C902    1.314   .     A
O900   Zn910   1.983   .     S
O900   C901    1.324   .     A
C901   C918    1.456   .     S
C902   C917    1.429   .     S
O903   C907    1.299   .     A
O903   Zn909   1.945   .     S
O904   C908    1.300   .     A
O904   Zn910   1.945   .     S
O905   C908    1.300   .     A
O905   Zn909   1.949   .     S
O906   C907    1.302   .     A
O906   Zn910   1.949   .     S
C907   C911    1.368   .     S
C908   C912    1.368   .     S
Zn909  N923    2.068   .     S
Zn910  N924    2.068   .     S
C912   C1487   1.166   .     S
C913   C925    1.516   .     S
C913   C918    1.416   .     A
C914   C917    1.396   .     A
C914   C929    1.521   .     S
C914   C788    1.381   1_655 S
C915   C933    1.521   .     S
C915   C917    1.414   .     A
C915   C785    1.407   1_655 S
C916   C937    1.508   .     S
C916   C918    1.414   .     A
C919   N924    1.382   .     A
C919   S941    1.763   .     S
C920   N923    1.390   .     A
C920   S946    1.813   .     S
C920   C1113   1.463   .     S
C921   N924    1.412   .     A
C921   S951    1.819   .     S
C922   N923    1.379   .     A
C922   S956    1.786   .     S
C922   C1111   1.419   .     S
C925   H926    1.103   .     S
C925   H927    1.110   .     S
C925   H928    1.110   .     S
C929   H931    1.110   .     S
C929   H930    1.109   .     S
C929   H932    1.110   .     S
C933   H936    1.111   .     S
C933   H934    1.110   .     S
C933   H935    1.105   .     S
C937   H938    1.103   .     S
C937   H939    1.106   .     S
H940   C809    1.107   1_655 S
S941   O944    1.684   .     S
S941   O942    1.500   .     D
O943   S1133   1.505   .     S
O944   H945    0.990   .     S
S946   O948    1.504   .     D
S946   O947    1.504   .     D
S946   O949    1.666   .     S
O949   H950    0.992   .     S
S951   O952    1.500   .     D
S951   O953    1.496   .     D
S951   O954    1.680   .     S
O954   H955    0.991   .     S
S956   O957    1.503   .     D
S956   O959    1.674   .     S
S956   O958    1.499   .     D
O959   H960    0.991   .     S
O961   C965    1.304   .     A
O961   Zn973   2.027   .     S
O962   C966    1.299   .     A
O962   Zn974   2.027   .     S
O963   Zn973   1.983   .     S
O963   C966    1.314   .     A
O964   Zn974   1.983   .     S
O964   C965    1.324   .     A
C965   C982    1.456   .     S
C966   C981    1.429   .     S
O967   C971    1.299   .     A
O967   Zn973   1.945   .     S
O968   C972    1.300   .     A
O968   Zn974   1.945   .     S
O969   C972    1.300   .     A
O969   Zn973   1.949   .     S
O970   C971    1.302   .     A
O970   Zn974   1.949   .     S
C971   C975    1.368   .     S
C972   C976    1.368   .     S
Zn973  N987    2.068   .     S
Zn974  N988    2.068   .     S
C976   C1551   1.166   .     S
C977   C989    1.516   .     S
C977   C982    1.416   .     A
C977   C1107   1.407   1_455 S
C978   C981    1.396   .     A
C978   C993    1.521   .     S
C978   C1044   1.381   .     S
C979   C997    1.521   .     S
C979   C981    1.414   .     A
C979   C1041   1.407   .     S
C980   C1001   1.508   .     S
C980   C982    1.414   .     A
C980   C1106   1.381   1_455 S
C983   N988    1.382   .     A
C983   S1005   1.763   .     S
C984   N987    1.390   .     A
C984   S1010   1.813   .     S
C984   C601    1.463   1_565 S
C985   N988    1.412   .     A
C985   S1015   1.819   .     S
C986   N987    1.379   .     A
C986   S1020   1.786   .     S
C986   C599    1.419   1_565 S
C989   H990    1.103   .     S
C989   H991    1.110   .     S
C989   H992    1.110   .     S
C993   H995    1.110   .     S
C993   H994    1.109   .     S
C993   H996    1.110   .     S
C997   H1000   1.111   .     S
C997   H998    1.110   .     S
C997   H999    1.105   .     S
C1001  H1002   1.103   .     S
C1001  H1003   1.106   .     S
C1001  H1132   1.107   1_455 S
H1004  C1065   1.107   .     S
S1005  O1008   1.684   .     S
S1005  O1006   1.500   .     D
O1007  S621    1.505   1_565 S
O1008  H1009   0.990   .     S
S1010  O1012   1.504   .     D
S1010  O1011   1.504   .     D
S1010  O1013   1.666   .     S
O1013  H1014   0.992   .     S
S1015  O1016   1.500   .     D
S1015  O1017   1.496   .     D
S1015  O1018   1.680   .     S
O1018  H1019   0.991   .     S
S1020  O1021   1.503   .     D
S1020  O1023   1.674   .     S
S1020  O1022   1.499   .     D
O1023  H1024   0.991   .     S
O1025  C1029   1.304   .     A
O1025  Zn1037  2.027   .     S
O1026  C1030   1.299   .     A
O1026  Zn1038  2.027   .     S
O1027  Zn1037  1.983   .     S
O1027  C1030   1.314   .     A
O1028  Zn1038  1.983   .     S
O1028  C1029   1.324   .     A
C1029  C1046   1.456   .     S
C1030  C1045   1.429   .     S
O1031  C1035   1.299   .     A
O1031  Zn1037  1.945   .     S
O1032  C1036   1.300   .     A
O1032  Zn1038  1.945   .     S
O1033  C1036   1.300   .     A
O1033  Zn1037  1.949   .     S
O1034  C1035   1.302   .     A
O1034  Zn1038  1.949   .     S
C1035  C1039   1.368   .     S
C1036  C1040   1.368   .     S
Zn1037 N1051   2.068   .     S
Zn1038 N1052   2.068   .     S
C1040  C1615   1.166   .     S
C1041  C1053   1.516   .     S
C1041  C1046   1.416   .     A
C1042  C1045   1.396   .     A
C1042  C1057   1.521   .     S
C1042  C1108   1.381   .     S
C1043  C1061   1.521   .     S
C1043  C1045   1.414   .     A
C1043  C1105   1.407   .     S
C1044  C1065   1.508   .     S
C1044  C1046   1.414   .     A
C1047  N1052   1.382   .     A
C1047  S1069   1.763   .     S
C1048  N1051   1.390   .     A
C1048  S1074   1.813   .     S
C1048  C665    1.463   1_565 S
C1049  N1052   1.412   .     A
C1049  S1079   1.819   .     S
C1050  N1051   1.379   .     A
C1050  S1084   1.786   .     S
C1050  C663    1.419   1_565 S
C1053  H1054   1.103   .     S
C1053  H1055   1.110   .     S
C1053  H1056   1.110   .     S
C1057  H1059   1.110   .     S
C1057  H1058   1.109   .     S
C1057  H1060   1.110   .     S
C1061  H1064   1.111   .     S
C1061  H1062   1.110   .     S
C1061  H1063   1.105   .     S
C1065  H1066   1.103   .     S
C1065  H1067   1.106   .     S
H1068  C1129   1.107   .     S
S1069  O1072   1.684   .     S
S1069  O1070   1.500   .     D
O1071  S685    1.505   1_565 S
O1072  H1073   0.990   .     S
S1074  O1076   1.504   .     D
S1074  O1075   1.504   .     D
S1074  O1077   1.666   .     S
O1077  H1078   0.992   .     S
S1079  O1080   1.500   .     D
S1079  O1081   1.496   .     D
S1079  O1082   1.680   .     S
O1082  H1083   0.991   .     S
S1084  O1085   1.503   .     D
S1084  O1087   1.674   .     S
S1084  O1086   1.499   .     D
O1087  H1088   0.991   .     S
O1089  C1093   1.304   .     A
O1089  Zn1101  2.027   .     S
O1090  C1094   1.299   .     A
O1090  Zn1102  2.027   .     S
O1091  Zn1101  1.983   .     S
O1091  C1094   1.314   .     A
O1092  Zn1102  1.983   .     S
O1092  C1093   1.324   .     A
C1093  C1110   1.456   .     S
C1094  C1109   1.429   .     S
O1095  C1099   1.299   .     A
O1095  Zn1101  1.945   .     S
O1096  C1100   1.300   .     A
O1096  Zn1102  1.945   .     S
O1097  C1100   1.300   .     A
O1097  Zn1101  1.949   .     S
O1098  C1099   1.302   .     A
O1098  Zn1102  1.949   .     S
C1099  C1103   1.368   .     S
C1100  C1104   1.368   .     S
Zn1101 N1115   2.068   .     S
Zn1102 N1116   2.068   .     S
C1104  C1679   1.166   .     S
C1105  C1117   1.516   .     S
C1105  C1110   1.416   .     A
C1106  C1109   1.396   .     A
C1106  C1121   1.521   .     S
C1106  C980    1.381   1_655 S
C1107  C1125   1.521   .     S
C1107  C1109   1.414   .     A
C1107  C977    1.407   1_655 S
C1108  C1129   1.508   .     S
C1108  C1110   1.414   .     A
C1111  N1116   1.382   .     A
C1111  S1133   1.763   .     S
C1112  N1115   1.390   .     A
C1112  S1138   1.813   .     S
C1112  C729    1.463   1_565 S
C1113  N1116   1.412   .     A
C1113  S1143   1.819   .     S
C1114  N1115   1.379   .     A
C1114  S1148   1.786   .     S
C1114  C727    1.419   1_565 S
C1117  H1118   1.103   .     S
C1117  H1119   1.110   .     S
C1117  H1120   1.110   .     S
C1121  H1123   1.110   .     S
C1121  H1122   1.109   .     S
C1121  H1124   1.110   .     S
C1125  H1128   1.111   .     S
C1125  H1126   1.110   .     S
C1125  H1127   1.105   .     S
C1129  H1130   1.103   .     S
C1129  H1131   1.106   .     S
H1132  C1001   1.107   1_655 S
S1133  O1136   1.684   .     S
S1133  O1134   1.500   .     D
O1135  S749    1.505   1_565 S
O1136  H1137   0.990   .     S
S1138  O1140   1.504   .     D
S1138  O1139   1.504   .     D
S1138  O1141   1.666   .     S
O1141  H1142   0.992   .     S
S1143  O1144   1.500   .     D
S1143  O1145   1.496   .     D
S1143  O1146   1.680   .     S
O1146  H1147   0.991   .     S
S1148  O1149   1.503   .     D
S1148  O1151   1.674   .     S
S1148  O1150   1.499   .     D
O1151  H1152   0.991   .     S
O1153  C1157   1.304   .     A
O1153  Zn1165  2.027   .     S
O1154  C1158   1.299   .     A
O1154  Zn1166  2.027   .     S
O1155  Zn1165  1.983   .     S
O1155  C1158   1.314   .     A
O1156  Zn1166  1.983   .     S
O1156  C1157   1.324   .     A
C1157  C1174   1.456   .     S
C1158  C1173   1.429   .     S
O1159  C1163   1.299   .     A
O1159  Zn1165  1.945   .     S
O1160  C1164   1.300   .     A
O1160  Zn1166  1.945   .     S
O1161  C1164   1.300   .     A
O1161  Zn1165  1.949   .     S
O1162  C1163   1.302   .     A
O1162  Zn1166  1.949   .     S
C1163  C1167   1.368   .     S
C1164  C1168   1.368   .     S
Zn1165 N1179   2.068   .     S
Zn1166 N1180   2.068   .     S
C1168  C15     1.166   1_556 S
C1169  C1181   1.516   .     S
C1169  C1174   1.416   .     A
C1169  C1299   1.407   1_455 S
C1170  C1173   1.396   .     A
C1170  C1185   1.521   .     S
C1170  C1236   1.381   .     S
C1171  C1189   1.521   .     S
C1171  C1173   1.414   .     A
C1171  C1233   1.407   .     S
C1172  C1193   1.508   .     S
C1172  C1174   1.414   .     A
C1172  C1298   1.381   1_455 S
C1175  N1180   1.382   .     A
C1175  S1197   1.763   .     S
C1175  C1562   1.419   1_545 S
C1176  N1179   1.390   .     A
C1176  S1202   1.813   .     S
C1176  C1369   1.463   .     S
C1177  N1180   1.412   .     A
C1177  S1207   1.819   .     S
C1177  C1560   1.463   1_545 S
C1178  N1179   1.379   .     A
C1178  S1212   1.786   .     S
C1178  C1367   1.419   .     S
C1181  H1182   1.103   .     S
C1181  H1183   1.110   .     S
C1181  H1184   1.110   .     S
C1185  H1187   1.110   .     S
C1185  H1186   1.109   .     S
C1185  H1188   1.110   .     S
C1189  H1192   1.111   .     S
C1189  H1190   1.110   .     S
C1189  H1191   1.105   .     S
C1193  H1194   1.103   .     S
C1193  H1195   1.106   .     S
C1193  H1324   1.107   1_455 S
H1196  C1257   1.107   .     S
S1197  O1200   1.684   .     S
S1197  O1198   1.500   .     D
S1197  O1583   1.505   1_545 S
O1199  S1389   1.505   .     S
O1200  H1201   0.990   .     S
S1202  O1204   1.504   .     D
S1202  O1203   1.504   .     D
S1202  O1205   1.666   .     S
O1205  H1206   0.992   .     S
S1207  O1208   1.500   .     D
S1207  O1209   1.496   .     D
S1207  O1210   1.680   .     S
O1210  H1211   0.991   .     S
S1212  O1213   1.503   .     D
S1212  O1215   1.674   .     S
S1212  O1214   1.499   .     D
O1215  H1216   0.991   .     S
O1217  C1221   1.304   .     A
O1217  Zn1229  2.027   .     S
O1218  C1222   1.299   .     A
O1218  Zn1230  2.027   .     S
O1219  Zn1229  1.983   .     S
O1219  C1222   1.314   .     A
O1220  Zn1230  1.983   .     S
O1220  C1221   1.324   .     A
C1221  C1238   1.456   .     S
C1222  C1237   1.429   .     S
O1223  C1227   1.299   .     A
O1223  Zn1229  1.945   .     S
O1224  C1228   1.300   .     A
O1224  Zn1230  1.945   .     S
O1225  C1228   1.300   .     A
O1225  Zn1229  1.949   .     S
O1226  C1227   1.302   .     A
O1226  Zn1230  1.949   .     S
C1227  C1231   1.368   .     S
C1228  C1232   1.368   .     S
Zn1229 N1243   2.068   .     S
Zn1230 N1244   2.068   .     S
C1232  C79     1.166   1_556 S
C1233  C1245   1.516   .     S
C1233  C1238   1.416   .     A
C1234  C1237   1.396   .     A
C1234  C1249   1.521   .     S
C1234  C1300   1.381   .     S
C1235  C1253   1.521   .     S
C1235  C1237   1.414   .     A
C1235  C1297   1.407   .     S
C1236  C1257   1.508   .     S
C1236  C1238   1.414   .     A
C1239  N1244   1.382   .     A
C1239  S1261   1.763   .     S
C1239  C1626   1.419   1_545 S
C1240  N1243   1.390   .     A
C1240  S1266   1.813   .     S
C1240  C1433   1.463   .     S
C1241  N1244   1.412   .     A
C1241  S1271   1.819   .     S
C1241  C1624   1.463   1_545 S
C1242  N1243   1.379   .     A
C1242  S1276   1.786   .     S
C1242  C1431   1.419   .     S
C1245  H1246   1.103   .     S
C1245  H1247   1.110   .     S
C1245  H1248   1.110   .     S
C1249  H1251   1.110   .     S
C1249  H1250   1.109   .     S
C1249  H1252   1.110   .     S
C1253  H1256   1.111   .     S
C1253  H1254   1.110   .     S
C1253  H1255   1.105   .     S
C1257  H1258   1.103   .     S
C1257  H1259   1.106   .     S
H1260  C1321   1.107   .     S
S1261  O1264   1.684   .     S
S1261  O1262   1.500   .     D
S1261  O1647   1.505   1_545 S
O1263  S1453   1.505   .     S
O1264  H1265   0.990   .     S
S1266  O1268   1.504   .     D
S1266  O1267   1.504   .     D
S1266  O1269   1.666   .     S
O1269  H1270   0.992   .     S
S1271  O1272   1.500   .     D
S1271  O1273   1.496   .     D
S1271  O1274   1.680   .     S
O1274  H1275   0.991   .     S
S1276  O1277   1.503   .     D
S1276  O1279   1.674   .     S
S1276  O1278   1.499   .     D
O1279  H1280   0.991   .     S
O1281  C1285   1.304   .     A
O1281  Zn1293  2.027   .     S
O1282  C1286   1.299   .     A
O1282  Zn1294  2.027   .     S
O1283  Zn1293  1.983   .     S
O1283  C1286   1.314   .     A
O1284  Zn1294  1.983   .     S
O1284  C1285   1.324   .     A
C1285  C1302   1.456   .     S
C1286  C1301   1.429   .     S
O1287  C1291   1.299   .     A
O1287  Zn1293  1.945   .     S
O1288  C1292   1.300   .     A
O1288  Zn1294  1.945   .     S
O1289  C1292   1.300   .     A
O1289  Zn1293  1.949   .     S
O1290  C1291   1.302   .     A
O1290  Zn1294  1.949   .     S
C1291  C1295   1.368   .     S
C1292  C1296   1.368   .     S
Zn1293 N1307   2.068   .     S
Zn1294 N1308   2.068   .     S
C1296  C143    1.166   1_556 S
C1297  C1309   1.516   .     S
C1297  C1302   1.416   .     A
C1298  C1301   1.396   .     A
C1298  C1313   1.521   .     S
C1298  C1172   1.381   1_655 S
C1299  C1317   1.521   .     S
C1299  C1301   1.414   .     A
C1299  C1169   1.407   1_655 S
C1300  C1321   1.508   .     S
C1300  C1302   1.414   .     A
C1303  N1308   1.382   .     A
C1303  S1325   1.763   .     S
C1303  C1690   1.419   1_545 S
C1304  N1307   1.390   .     A
C1304  S1330   1.813   .     S
C1304  C1497   1.463   .     S
C1305  N1308   1.412   .     A
C1305  S1335   1.819   .     S
C1305  C1688   1.463   1_545 S
C1306  N1307   1.379   .     A
C1306  S1340   1.786   .     S
C1306  C1495   1.419   .     S
C1309  H1310   1.103   .     S
C1309  H1311   1.110   .     S
C1309  H1312   1.110   .     S
C1313  H1315   1.110   .     S
C1313  H1314   1.109   .     S
C1313  H1316   1.110   .     S
C1317  H1320   1.111   .     S
C1317  H1318   1.110   .     S
C1317  H1319   1.105   .     S
C1321  H1322   1.103   .     S
C1321  H1323   1.106   .     S
H1324  C1193   1.107   1_655 S
S1325  O1328   1.684   .     S
S1325  O1326   1.500   .     D
S1325  O1711   1.505   1_545 S
O1327  S1517   1.505   .     S
O1328  H1329   0.990   .     S
S1330  O1332   1.504   .     D
S1330  O1331   1.504   .     D
S1330  O1333   1.666   .     S
O1333  H1334   0.992   .     S
S1335  O1336   1.500   .     D
S1335  O1337   1.496   .     D
S1335  O1338   1.680   .     S
O1338  H1339   0.991   .     S
S1340  O1341   1.503   .     D
S1340  O1343   1.674   .     S
S1340  O1342   1.499   .     D
O1343  H1344   0.991   .     S
O1345  C1349   1.304   .     A
O1345  Zn1357  2.027   .     S
O1346  C1350   1.299   .     A
O1346  Zn1358  2.027   .     S
O1347  Zn1357  1.983   .     S
O1347  C1350   1.314   .     A
O1348  Zn1358  1.983   .     S
O1348  C1349   1.324   .     A
C1349  C1366   1.456   .     S
C1350  C1365   1.429   .     S
O1351  C1355   1.299   .     A
O1351  Zn1357  1.945   .     S
O1352  C1356   1.300   .     A
O1352  Zn1358  1.945   .     S
O1353  C1356   1.300   .     A
O1353  Zn1357  1.949   .     S
O1354  C1355   1.302   .     A
O1354  Zn1358  1.949   .     S
C1355  C1359   1.368   .     S
C1356  C1360   1.368   .     S
Zn1357 N1371   2.068   .     S
Zn1358 N1372   2.068   .     S
C1360  C207    1.166   1_556 S
C1361  C1373   1.516   .     S
C1361  C1366   1.416   .     A
C1361  C1491   1.407   1_455 S
C1362  C1365   1.396   .     A
C1362  C1377   1.521   .     S
C1362  C1428   1.381   .     S
C1363  C1381   1.521   .     S
C1363  C1365   1.414   .     A
C1363  C1425   1.407   .     S
C1364  C1385   1.508   .     S
C1364  C1366   1.414   .     A
C1364  C1490   1.381   1_455 S
C1367  N1372   1.382   .     A
C1367  S1389   1.763   .     S
C1368  N1371   1.390   .     A
C1368  S1394   1.813   .     S
C1368  C1561   1.463   .     S
C1369  N1372   1.412   .     A
C1369  S1399   1.819   .     S
C1370  N1371   1.379   .     A
C1370  S1404   1.786   .     S
C1370  C1559   1.419   .     S
C1373  H1374   1.103   .     S
C1373  H1375   1.110   .     S
C1373  H1376   1.110   .     S
C1377  H1379   1.110   .     S
C1377  H1378   1.109   .     S
C1377  H1380   1.110   .     S
C1381  H1384   1.111   .     S
C1381  H1382   1.110   .     S
C1381  H1383   1.105   .     S
C1385  H1386   1.103   .     S
C1385  H1387   1.106   .     S
C1385  H1516   1.107   1_455 S
H1388  C1449   1.107   .     S
S1389  O1392   1.684   .     S
S1389  O1390   1.500   .     D
O1391  S1581   1.505   .     S
O1392  H1393   0.990   .     S
S1394  O1396   1.504   .     D
S1394  O1395   1.504   .     D
S1394  O1397   1.666   .     S
O1397  H1398   0.992   .     S
S1399  O1400   1.500   .     D
S1399  O1401   1.496   .     D
S1399  O1402   1.680   .     S
O1402  H1403   0.991   .     S
S1404  O1405   1.503   .     D
S1404  O1407   1.674   .     S
S1404  O1406   1.499   .     D
O1407  H1408   0.991   .     S
O1409  C1413   1.304   .     A
O1409  Zn1421  2.027   .     S
O1410  C1414   1.299   .     A
O1410  Zn1422  2.027   .     S
O1411  Zn1421  1.983   .     S
O1411  C1414   1.314   .     A
O1412  Zn1422  1.983   .     S
O1412  C1413   1.324   .     A
C1413  C1430   1.456   .     S
C1414  C1429   1.429   .     S
O1415  C1419   1.299   .     A
O1415  Zn1421  1.945   .     S
O1416  C1420   1.300   .     A
O1416  Zn1422  1.945   .     S
O1417  C1420   1.300   .     A
O1417  Zn1421  1.949   .     S
O1418  C1419   1.302   .     A
O1418  Zn1422  1.949   .     S
C1419  C1423   1.368   .     S
C1420  C1424   1.368   .     S
Zn1421 N1435   2.068   .     S
Zn1422 N1436   2.068   .     S
C1424  C271    1.166   1_556 S
C1425  C1437   1.516   .     S
C1425  C1430   1.416   .     A
C1426  C1429   1.396   .     A
C1426  C1441   1.521   .     S
C1426  C1492   1.381   .     S
C1427  C1445   1.521   .     S
C1427  C1429   1.414   .     A
C1427  C1489   1.407   .     S
C1428  C1449   1.508   .     S
C1428  C1430   1.414   .     A
C1431  N1436   1.382   .     A
C1431  S1453   1.763   .     S
C1432  N1435   1.390   .     A
C1432  S1458   1.813   .     S
C1432  C1625   1.463   .     S
C1433  N1436   1.412   .     A
C1433  S1463   1.819   .     S
C1434  N1435   1.379   .     A
C1434  S1468   1.786   .     S
C1434  C1623   1.419   .     S
C1437  H1438   1.103   .     S
C1437  H1439   1.110   .     S
C1437  H1440   1.110   .     S
C1441  H1443   1.110   .     S
C1441  H1442   1.109   .     S
C1441  H1444   1.110   .     S
C1445  H1448   1.111   .     S
C1445  H1446   1.110   .     S
C1445  H1447   1.105   .     S
C1449  H1450   1.103   .     S
C1449  H1451   1.106   .     S
H1452  C1513   1.107   .     S
S1453  O1456   1.684   .     S
S1453  O1454   1.500   .     D
O1455  S1645   1.505   .     S
O1456  H1457   0.990   .     S
S1458  O1460   1.504   .     D
S1458  O1459   1.504   .     D
S1458  O1461   1.666   .     S
O1461  H1462   0.992   .     S
S1463  O1464   1.500   .     D
S1463  O1465   1.496   .     D
S1463  O1466   1.680   .     S
O1466  H1467   0.991   .     S
S1468  O1469   1.503   .     D
S1468  O1471   1.674   .     S
S1468  O1470   1.499   .     D
O1471  H1472   0.991   .     S
O1473  C1477   1.304   .     A
O1473  Zn1485  2.027   .     S
O1474  C1478   1.299   .     A
O1474  Zn1486  2.027   .     S
O1475  Zn1485  1.983   .     S
O1475  C1478   1.314   .     A
O1476  Zn1486  1.983   .     S
O1476  C1477   1.324   .     A
C1477  C1494   1.456   .     S
C1478  C1493   1.429   .     S
O1479  C1483   1.299   .     A
O1479  Zn1485  1.945   .     S
O1480  C1484   1.300   .     A
O1480  Zn1486  1.945   .     S
O1481  C1484   1.300   .     A
O1481  Zn1485  1.949   .     S
O1482  C1483   1.302   .     A
O1482  Zn1486  1.949   .     S
C1483  C1487   1.368   .     S
C1484  C1488   1.368   .     S
Zn1485 N1499   2.068   .     S
Zn1486 N1500   2.068   .     S
C1488  C335    1.166   1_556 S
C1489  C1501   1.516   .     S
C1489  C1494   1.416   .     A
C1490  C1493   1.396   .     A
C1490  C1505   1.521   .     S
C1490  C1364   1.381   1_655 S
C1491  C1509   1.521   .     S
C1491  C1493   1.414   .     A
C1491  C1361   1.407   1_655 S
C1492  C1513   1.508   .     S
C1492  C1494   1.414   .     A
C1495  N1500   1.382   .     A
C1495  S1517   1.763   .     S
C1496  N1499   1.390   .     A
C1496  S1522   1.813   .     S
C1496  C1689   1.463   .     S
C1497  N1500   1.412   .     A
C1497  S1527   1.819   .     S
C1498  N1499   1.379   .     A
C1498  S1532   1.786   .     S
C1498  C1687   1.419   .     S
C1501  H1502   1.103   .     S
C1501  H1503   1.110   .     S
C1501  H1504   1.110   .     S
C1505  H1507   1.110   .     S
C1505  H1506   1.109   .     S
C1505  H1508   1.110   .     S
C1509  H1512   1.111   .     S
C1509  H1510   1.110   .     S
C1509  H1511   1.105   .     S
C1513  H1514   1.103   .     S
C1513  H1515   1.106   .     S
H1516  C1385   1.107   1_655 S
S1517  O1520   1.684   .     S
S1517  O1518   1.500   .     D
O1519  S1709   1.505   .     S
O1520  H1521   0.990   .     S
S1522  O1524   1.504   .     D
S1522  O1523   1.504   .     D
S1522  O1525   1.666   .     S
O1525  H1526   0.992   .     S
S1527  O1528   1.500   .     D
S1527  O1529   1.496   .     D
S1527  O1530   1.680   .     S
O1530  H1531   0.991   .     S
S1532  O1533   1.503   .     D
S1532  O1535   1.674   .     S
S1532  O1534   1.499   .     D
O1535  H1536   0.991   .     S
O1537  C1541   1.304   .     A
O1537  Zn1549  2.027   .     S
O1538  C1542   1.299   .     A
O1538  Zn1550  2.027   .     S
O1539  Zn1549  1.983   .     S
O1539  C1542   1.314   .     A
O1540  Zn1550  1.983   .     S
O1540  C1541   1.324   .     A
C1541  C1558   1.456   .     S
C1542  C1557   1.429   .     S
O1543  C1547   1.299   .     A
O1543  Zn1549  1.945   .     S
O1544  C1548   1.300   .     A
O1544  Zn1550  1.945   .     S
O1545  C1548   1.300   .     A
O1545  Zn1549  1.949   .     S
O1546  C1547   1.302   .     A
O1546  Zn1550  1.949   .     S
C1547  C1551   1.368   .     S
C1548  C1552   1.368   .     S
Zn1549 N1563   2.068   .     S
Zn1550 N1564   2.068   .     S
C1552  C399    1.166   1_556 S
C1553  C1565   1.516   .     S
C1553  C1558   1.416   .     A
C1553  C1683   1.407   1_455 S
C1554  C1557   1.396   .     A
C1554  C1569   1.521   .     S
C1554  C1620   1.381   .     S
C1555  C1573   1.521   .     S
C1555  C1557   1.414   .     A
C1555  C1617   1.407   .     S
C1556  C1577   1.508   .     S
C1556  C1558   1.414   .     A
C1556  C1682   1.381   1_455 S
C1559  N1564   1.382   .     A
C1559  S1581   1.763   .     S
C1560  N1563   1.390   .     A
C1560  S1586   1.813   .     S
C1560  C1177   1.463   1_565 S
C1561  N1564   1.412   .     A
C1561  S1591   1.819   .     S
C1562  N1563   1.379   .     A
C1562  S1596   1.786   .     S
C1562  C1175   1.419   1_565 S
C1565  H1566   1.103   .     S
C1565  H1567   1.110   .     S
C1565  H1568   1.110   .     S
C1569  H1571   1.110   .     S
C1569  H1570   1.109   .     S
C1569  H1572   1.110   .     S
C1573  H1576   1.111   .     S
C1573  H1574   1.110   .     S
C1573  H1575   1.105   .     S
C1577  H1578   1.103   .     S
C1577  H1579   1.106   .     S
C1577  H1708   1.107   1_455 S
H1580  C1641   1.107   .     S
S1581  O1584   1.684   .     S
S1581  O1582   1.500   .     D
O1583  S1197   1.505   1_565 S
O1584  H1585   0.990   .     S
S1586  O1588   1.504   .     D
S1586  O1587   1.504   .     D
S1586  O1589   1.666   .     S
O1589  H1590   0.992   .     S
S1591  O1592   1.500   .     D
S1591  O1593   1.496   .     D
S1591  O1594   1.680   .     S
O1594  H1595   0.991   .     S
S1596  O1597   1.503   .     D
S1596  O1599   1.674   .     S
S1596  O1598   1.499   .     D
O1599  H1600   0.991   .     S
O1601  C1605   1.304   .     A
O1601  Zn1613  2.027   .     S
O1602  C1606   1.299   .     A
O1602  Zn1614  2.027   .     S
O1603  Zn1613  1.983   .     S
O1603  C1606   1.314   .     A
O1604  Zn1614  1.983   .     S
O1604  C1605   1.324   .     A
C1605  C1622   1.456   .     S
C1606  C1621   1.429   .     S
O1607  C1611   1.299   .     A
O1607  Zn1613  1.945   .     S
O1608  C1612   1.300   .     A
O1608  Zn1614  1.945   .     S
O1609  C1612   1.300   .     A
O1609  Zn1613  1.949   .     S
O1610  C1611   1.302   .     A
O1610  Zn1614  1.949   .     S
C1611  C1615   1.368   .     S
C1612  C1616   1.368   .     S
Zn1613 N1627   2.068   .     S
Zn1614 N1628   2.068   .     S
C1616  C463    1.166   1_556 S
C1617  C1629   1.516   .     S
C1617  C1622   1.416   .     A
C1618  C1621   1.396   .     A
C1618  C1633   1.521   .     S
C1618  C1684   1.381   .     S
C1619  C1637   1.521   .     S
C1619  C1621   1.414   .     A
C1619  C1681   1.407   .     S
C1620  C1641   1.508   .     S
C1620  C1622   1.414   .     A
C1623  N1628   1.382   .     A
C1623  S1645   1.763   .     S
C1624  N1627   1.390   .     A
C1624  S1650   1.813   .     S
C1624  C1241   1.463   1_565 S
C1625  N1628   1.412   .     A
C1625  S1655   1.819   .     S
C1626  N1627   1.379   .     A
C1626  S1660   1.786   .     S
C1626  C1239   1.419   1_565 S
C1629  H1630   1.103   .     S
C1629  H1631   1.110   .     S
C1629  H1632   1.110   .     S
C1633  H1635   1.110   .     S
C1633  H1634   1.109   .     S
C1633  H1636   1.110   .     S
C1637  H1640   1.111   .     S
C1637  H1638   1.110   .     S
C1637  H1639   1.105   .     S
C1641  H1642   1.103   .     S
C1641  H1643   1.106   .     S
H1644  C1705   1.107   .     S
S1645  O1648   1.684   .     S
S1645  O1646   1.500   .     D
O1647  S1261   1.505   1_565 S
O1648  H1649   0.990   .     S
S1650  O1652   1.504   .     D
S1650  O1651   1.504   .     D
S1650  O1653   1.666   .     S
O1653  H1654   0.992   .     S
S1655  O1656   1.500   .     D
S1655  O1657   1.496   .     D
S1655  O1658   1.680   .     S
O1658  H1659   0.991   .     S
S1660  O1661   1.503   .     D
S1660  O1663   1.674   .     S
S1660  O1662   1.499   .     D
O1663  H1664   0.991   .     S
O1665  C1669   1.304   .     A
O1665  Zn1677  2.027   .     S
O1666  C1670   1.299   .     A
O1666  Zn1678  2.027   .     S
O1667  Zn1677  1.983   .     S
O1667  C1670   1.314   .     A
O1668  Zn1678  1.983   .     S
O1668  C1669   1.324   .     A
C1669  C1686   1.456   .     S
C1670  C1685   1.429   .     S
O1671  C1675   1.299   .     A
O1671  Zn1677  1.945   .     S
O1672  C1676   1.300   .     A
O1672  Zn1678  1.945   .     S
O1673  C1676   1.300   .     A
O1673  Zn1677  1.949   .     S
O1674  C1675   1.302   .     A
O1674  Zn1678  1.949   .     S
C1675  C1679   1.368   .     S
C1676  C1680   1.368   .     S
Zn1677 N1691   2.068   .     S
Zn1678 N1692   2.068   .     S
C1680  C527    1.166   1_556 S
C1681  C1693   1.516   .     S
C1681  C1686   1.416   .     A
C1682  C1685   1.396   .     A
C1682  C1697   1.521   .     S
C1682  C1556   1.381   1_655 S
C1683  C1701   1.521   .     S
C1683  C1685   1.414   .     A
C1683  C1553   1.407   1_655 S
C1684  C1705   1.508   .     S
C1684  C1686   1.414   .     A
C1687  N1692   1.382   .     A
C1687  S1709   1.763   .     S
C1688  N1691   1.390   .     A
C1688  S1714   1.813   .     S
C1688  C1305   1.463   1_565 S
C1689  N1692   1.412   .     A
C1689  S1719   1.819   .     S
C1690  N1691   1.379   .     A
C1690  S1724   1.786   .     S
C1690  C1303   1.419   1_565 S
C1693  H1694   1.103   .     S
C1693  H1695   1.110   .     S
C1693  H1696   1.110   .     S
C1697  H1699   1.110   .     S
C1697  H1698   1.109   .     S
C1697  H1700   1.110   .     S
C1701  H1704   1.111   .     S
C1701  H1702   1.110   .     S
C1701  H1703   1.105   .     S
C1705  H1706   1.103   .     S
C1705  H1707   1.106   .     S
H1708  C1577   1.107   1_655 S
S1709  O1712   1.684   .     S
S1709  O1710   1.500   .     D
O1711  S1325   1.505   1_565 S
O1712  H1713   0.990   .     S
S1714  O1716   1.504   .     D
S1714  O1715   1.504   .     D
S1714  O1717   1.666   .     S
O1717  H1718   0.992   .     S
S1719  O1720   1.500   .     D
S1719  O1721   1.496   .     D
S1719  O1722   1.680   .     S
O1722  H1723   0.991   .     S
S1724  O1725   1.503   .     D
S1724  O1727   1.674   .     S
S1724  O1726   1.499   .     D
O1727  H1728   0.991   .     S
