data_str_m2_o10_o16_pcu_sym.193
_audit_creation_date              2020-01-03
_audit_creation_method            'Materials Studio'
_symmetry_space_group_name_H-M    'P1'
_symmetry_Int_Tables_number       1
_symmetry_cell_setting            triclinic
loop_
_symmetry_equiv_pos_as_xyz
  x,y,z
_cell_length_a                    22.4788
_cell_length_b                    26.0953
_cell_length_c                    26.8407
_cell_angle_alpha                 93.1550
_cell_angle_beta                  78.4616
_cell_angle_gamma                 102.8937
loop_
_atom_site_label
_atom_site_type_symbol
_atom_site_fract_x
_atom_site_fract_y
_atom_site_fract_z
_atom_site_U_iso_or_equiv
_atom_site_adp_type
_atom_site_occupancy
C1     C     0.18169   0.26660   0.25129   0.00000  Uiso   1.00
C2     C     0.13771   0.14419   0.48565   0.00000  Uiso   1.00
C3     C     0.15788   0.14396   0.43214   0.00000  Uiso   1.00
C4     C     0.18429   0.16393   0.01597   0.00000  Uiso   1.00
C5     C     0.24759   0.17970   0.49163   0.00000  Uiso   1.00
C6     C     0.26491   0.17204   0.43964   0.00000  Uiso   1.00
C7     C     0.22134   0.14477   0.41287   0.00000  Uiso   1.00
C8     C     0.17141   0.16869   0.06905   0.00000  Uiso   1.00
C9     C     0.28128   0.19385   0.07293   0.00000  Uiso   1.00
C10    C     0.11430   0.13911   0.39967   0.00000  Uiso   1.00
C11    C     0.19000   0.32250   0.25190   0.00000  Uiso   1.00
C12    C     0.13327   0.15654   0.34600   0.00000  Uiso   1.00
C13    C     0.14261   0.01074   0.24921   0.00000  Uiso   1.00
C14    C     0.15152   0.06670   0.24887   0.00000  Uiso   1.00
C15    C     0.20012   0.17223   0.15318   0.00000  Uiso   1.00
C16    C     0.29456   0.19632   0.01989   0.00000  Uiso   1.00
C17    C     0.21882   0.17858   0.09766   0.00000  Uiso   1.00
C18    C     0.05240   0.11704   0.41902   0.00000  Uiso   1.00
C19    C     0.03263   0.10621   0.47048   0.00000  Uiso   1.00
C20    C     0.07376   0.12077   0.00467   0.00000  Uiso   1.00
Cu21   Cu    0.10710   0.16105   0.24435   0.00000  Uiso   1.00
Cu22   Cu    0.22623   0.17228   0.25564   0.00000  Uiso   1.00
H23    H     0.09678   0.32051   0.24682   0.00000  Uiso   1.00
H24    H     0.00380   0.20597   0.28929   0.00000  Uiso   1.00
H25    H     0.32947   0.12725   0.21084   0.00000  Uiso   1.00
H26    H     0.31324   0.18134   0.42122   0.00000  Uiso   1.00
H27    H     0.00904   0.20539   0.00011   0.00000  Uiso   1.00
H28    H     0.12485   0.16487   0.08953   0.00000  Uiso   1.00
H29    H     0.01921   0.10880   0.39410   0.00000  Uiso   1.00
H30    H     0.31716   0.08966   0.48439   0.00000  Uiso   1.00
H31    H     0.23590   0.01279   0.25371   0.00000  Uiso   1.00
N32    N     0.31574   0.18074   0.26416   0.00000  Uiso   1.00
N33    N     0.01759   0.15259   0.23584   0.00000  Uiso   1.00
O34    O     0.12797   0.23807   0.24633   0.00000  Uiso   1.00
O35    O     0.22858   0.24755   0.25586   0.00000  Uiso   1.00
O36    O     0.09181   0.15960   0.31839   0.00000  Uiso   1.00
O37    O     0.19242   0.16908   0.32793   0.00000  Uiso   1.00
O38    O     0.10476   0.08578   0.24413   0.00000  Uiso   1.00
O39    O     0.20536   0.09526   0.25367   0.00000  Uiso   1.00
O40    O     0.14092   0.16425   0.17207   0.00000  Uiso   1.00
O41    O     0.24152   0.17373   0.18160   0.00000  Uiso   1.00
O42    O     0.32892   0.19552   0.09910   0.00000  Uiso   1.00
C43    C     0.02827   0.24759   0.10529   0.00000  Uiso   1.00
H44    H     0.05041   0.24751   0.13879   0.00000  Uiso   1.00
H45    H     0.33027   0.27531   0.11526   0.00000  Uiso   1.00
C46    C     0.07867   0.26649   0.05828   0.00000  Uiso   1.00
H47    H     0.09419   0.23245   0.03751   0.00000  Uiso   1.00
H48    H     0.05956   0.28737   0.03230   0.00000  Uiso   1.00
C49    C     0.13551   0.30300   0.07273   0.00000  Uiso   1.00
H50    H     0.12274   0.00413   0.09475   0.00000  Uiso   1.00
H51    H     0.17028   0.31688   0.03794   0.00000  Uiso   1.00
H52    H     0.15620   0.28072   0.09616   0.00000  Uiso   1.00
O53    O     0.05009   0.11662   0.05620   0.00000  Uiso   1.00
C54    C     0.01967   0.06485   0.07128   0.00000  Uiso   1.00
H55    H     0.04615   0.05203   0.09719   0.00000  Uiso   1.00
H56    H     0.01704   0.03533   0.03967   0.00000  Uiso   1.00
C57    C     0.28772   0.06583   0.10076   0.00000  Uiso   1.00
H58    H     0.29040   0.09802   0.12950   0.00000  Uiso   1.00
H59    H     0.25842   0.07305   0.07421   0.00000  Uiso   1.00
C60    C     0.25747   0.01469   0.12847   0.00000  Uiso   1.00
H61    H     0.25622   0.31472   0.10098   0.00000  Uiso   1.00
H62    H     0.20932   0.01619   0.14736   0.00000  Uiso   1.00
H63    H     0.28372   0.00906   0.15791   0.00000  Uiso   1.00
O64    O     0.24109   0.11175   0.37349   0.00000  Uiso   1.00
C65    C     0.20760   0.05891   0.38272   0.00000  Uiso   1.00
H66    H     0.17171   0.04952   0.35856   0.00000  Uiso   1.00
H67    H     0.18376   0.05129   0.42319   0.00000  Uiso   1.00
C68    C     0.25171   0.02110   0.36942   0.00000  Uiso   1.00
H69    H     0.27598   0.02616   0.32914   0.00000  Uiso   1.00
H70    H     0.28712   0.02984   0.39387   0.00000  Uiso   1.00
C71    C     0.21682   0.29734   0.37846   0.00000  Uiso   1.00
H72    H     0.19735   0.29079   0.41961   0.00000  Uiso   1.00
H73    H     0.24932   0.27074   0.36563   0.00000  Uiso   1.00
H74    H     0.17820   0.28734   0.35714   0.00000  Uiso   1.00
C75    C     0.51502   0.26660   0.25129   0.00000  Uiso   1.00
C76    C     0.47104   0.14419   0.48565   0.00000  Uiso   1.00
C77    C     0.49122   0.14396   0.43214   0.00000  Uiso   1.00
C78    C     0.51763   0.16393   0.01597   0.00000  Uiso   1.00
C79    C     0.58092   0.17970   0.49163   0.00000  Uiso   1.00
C80    C     0.59824   0.17204   0.43964   0.00000  Uiso   1.00
C81    C     0.55467   0.14477   0.41287   0.00000  Uiso   1.00
C82    C     0.50475   0.16869   0.06905   0.00000  Uiso   1.00
C83    C     0.61461   0.19385   0.07293   0.00000  Uiso   1.00
C84    C     0.44763   0.13911   0.39967   0.00000  Uiso   1.00
C85    C     0.52333   0.32250   0.25190   0.00000  Uiso   1.00
C86    C     0.46661   0.15654   0.34600   0.00000  Uiso   1.00
C87    C     0.47594   0.01074   0.24921   0.00000  Uiso   1.00
C88    C     0.48485   0.06670   0.24887   0.00000  Uiso   1.00
C89    C     0.53346   0.17223   0.15318   0.00000  Uiso   1.00
C90    C     0.62789   0.19632   0.01989   0.00000  Uiso   1.00
C91    C     0.55216   0.17858   0.09766   0.00000  Uiso   1.00
C92    C     0.38574   0.11704   0.41902   0.00000  Uiso   1.00
C93    C     0.36597   0.10621   0.47048   0.00000  Uiso   1.00
C94    C     0.40709   0.12077   0.00467   0.00000  Uiso   1.00
Cu95   Cu    0.44043   0.16105   0.24435   0.00000  Uiso   1.00
Cu96   Cu    0.55957   0.17228   0.25564   0.00000  Uiso   1.00
H97    H     0.43011   0.32051   0.24682   0.00000  Uiso   1.00
H98    H     0.33713   0.20597   0.28929   0.00000  Uiso   1.00
H99    H     0.66280   0.12725   0.21084   0.00000  Uiso   1.00
H100   H     0.64657   0.18134   0.42122   0.00000  Uiso   1.00
H101   H     0.34237   0.20539   0.00011   0.00000  Uiso   1.00
H102   H     0.45818   0.16487   0.08953   0.00000  Uiso   1.00
H103   H     0.35254   0.10880   0.39410   0.00000  Uiso   1.00
H104   H     0.65050   0.08966   0.48439   0.00000  Uiso   1.00
H105   H     0.56923   0.01279   0.25371   0.00000  Uiso   1.00
N106   N     0.64908   0.18074   0.26416   0.00000  Uiso   1.00
N107   N     0.35092   0.15259   0.23584   0.00000  Uiso   1.00
O108   O     0.46131   0.23807   0.24633   0.00000  Uiso   1.00
O109   O     0.56191   0.24755   0.25586   0.00000  Uiso   1.00
O110   O     0.42515   0.15960   0.31839   0.00000  Uiso   1.00
O111   O     0.52575   0.16908   0.32793   0.00000  Uiso   1.00
O112   O     0.43809   0.08578   0.24413   0.00000  Uiso   1.00
O113   O     0.53869   0.09526   0.25367   0.00000  Uiso   1.00
O114   O     0.47425   0.16425   0.17207   0.00000  Uiso   1.00
O115   O     0.57485   0.17373   0.18160   0.00000  Uiso   1.00
O116   O     0.66225   0.19552   0.09910   0.00000  Uiso   1.00
C117   C     0.36160   0.24759   0.10529   0.00000  Uiso   1.00
H118   H     0.38374   0.24751   0.13879   0.00000  Uiso   1.00
H119   H     0.66360   0.27531   0.11526   0.00000  Uiso   1.00
C120   C     0.41201   0.26649   0.05828   0.00000  Uiso   1.00
H121   H     0.42752   0.23245   0.03751   0.00000  Uiso   1.00
H122   H     0.39289   0.28737   0.03230   0.00000  Uiso   1.00
C123   C     0.46884   0.30300   0.07273   0.00000  Uiso   1.00
H124   H     0.45608   0.00413   0.09475   0.00000  Uiso   1.00
H125   H     0.50362   0.31688   0.03794   0.00000  Uiso   1.00
H126   H     0.48953   0.28072   0.09616   0.00000  Uiso   1.00
O127   O     0.38342   0.11662   0.05620   0.00000  Uiso   1.00
C128   C     0.35300   0.06485   0.07128   0.00000  Uiso   1.00
H129   H     0.37949   0.05203   0.09719   0.00000  Uiso   1.00
H130   H     0.35038   0.03533   0.03967   0.00000  Uiso   1.00
C131   C     0.62106   0.06583   0.10076   0.00000  Uiso   1.00
H132   H     0.62374   0.09802   0.12950   0.00000  Uiso   1.00
H133   H     0.59176   0.07305   0.07421   0.00000  Uiso   1.00
C134   C     0.59080   0.01469   0.12847   0.00000  Uiso   1.00
H135   H     0.58955   0.31472   0.10098   0.00000  Uiso   1.00
H136   H     0.54265   0.01619   0.14736   0.00000  Uiso   1.00
H137   H     0.61706   0.00906   0.15791   0.00000  Uiso   1.00
O138   O     0.57442   0.11175   0.37349   0.00000  Uiso   1.00
C139   C     0.54094   0.05891   0.38272   0.00000  Uiso   1.00
H140   H     0.50505   0.04952   0.35856   0.00000  Uiso   1.00
H141   H     0.51709   0.05129   0.42319   0.00000  Uiso   1.00
C142   C     0.58504   0.02110   0.36942   0.00000  Uiso   1.00
H143   H     0.60932   0.02616   0.32914   0.00000  Uiso   1.00
H144   H     0.62046   0.02984   0.39387   0.00000  Uiso   1.00
C145   C     0.55016   0.29734   0.37846   0.00000  Uiso   1.00
H146   H     0.53068   0.29079   0.41961   0.00000  Uiso   1.00
H147   H     0.58265   0.27074   0.36563   0.00000  Uiso   1.00
H148   H     0.51153   0.28734   0.35714   0.00000  Uiso   1.00
C149   C     0.84835   0.26660   0.25129   0.00000  Uiso   1.00
C150   C     0.80438   0.14419   0.48565   0.00000  Uiso   1.00
C151   C     0.82455   0.14396   0.43214   0.00000  Uiso   1.00
C152   C     0.85096   0.16393   0.01597   0.00000  Uiso   1.00
C153   C     0.91426   0.17970   0.49163   0.00000  Uiso   1.00
C154   C     0.93158   0.17204   0.43964   0.00000  Uiso   1.00
C155   C     0.88800   0.14477   0.41287   0.00000  Uiso   1.00
C156   C     0.83808   0.16869   0.06905   0.00000  Uiso   1.00
C157   C     0.94794   0.19385   0.07293   0.00000  Uiso   1.00
C158   C     0.78096   0.13911   0.39967   0.00000  Uiso   1.00
C159   C     0.85666   0.32250   0.25190   0.00000  Uiso   1.00
C160   C     0.79994   0.15654   0.34600   0.00000  Uiso   1.00
C161   C     0.80928   0.01074   0.24921   0.00000  Uiso   1.00
C162   C     0.81819   0.06670   0.24887   0.00000  Uiso   1.00
C163   C     0.86679   0.17223   0.15318   0.00000  Uiso   1.00
C164   C     0.96122   0.19632   0.01989   0.00000  Uiso   1.00
C165   C     0.88549   0.17858   0.09766   0.00000  Uiso   1.00
C166   C     0.71907   0.11704   0.41902   0.00000  Uiso   1.00
C167   C     0.69930   0.10621   0.47048   0.00000  Uiso   1.00
C168   C     0.74043   0.12077   0.00467   0.00000  Uiso   1.00
Cu169  Cu    0.77377   0.16105   0.24435   0.00000  Uiso   1.00
Cu170  Cu    0.89290   0.17228   0.25564   0.00000  Uiso   1.00
H171   H     0.76345   0.32051   0.24682   0.00000  Uiso   1.00
H172   H     0.67047   0.20597   0.28929   0.00000  Uiso   1.00
H173   H     0.99614   0.12725   0.21084   0.00000  Uiso   1.00
H174   H     0.97990   0.18134   0.42122   0.00000  Uiso   1.00
H175   H     0.67571   0.20539   0.00011   0.00000  Uiso   1.00
H176   H     0.79152   0.16487   0.08953   0.00000  Uiso   1.00
H177   H     0.68588   0.10880   0.39410   0.00000  Uiso   1.00
H178   H     0.98383   0.08966   0.48439   0.00000  Uiso   1.00
H179   H     0.90257   0.01279   0.25371   0.00000  Uiso   1.00
N180   N     0.98241   0.18074   0.26416   0.00000  Uiso   1.00
N181   N     0.68426   0.15259   0.23584   0.00000  Uiso   1.00
O182   O     0.79464   0.23807   0.24633   0.00000  Uiso   1.00
O183   O     0.89524   0.24755   0.25586   0.00000  Uiso   1.00
O184   O     0.75848   0.15960   0.31839   0.00000  Uiso   1.00
O185   O     0.85908   0.16908   0.32793   0.00000  Uiso   1.00
O186   O     0.77142   0.08578   0.24413   0.00000  Uiso   1.00
O187   O     0.87203   0.09526   0.25367   0.00000  Uiso   1.00
O188   O     0.80758   0.16425   0.17207   0.00000  Uiso   1.00
O189   O     0.90819   0.17373   0.18160   0.00000  Uiso   1.00
O190   O     0.99558   0.19552   0.09910   0.00000  Uiso   1.00
C191   C     0.69493   0.24759   0.10529   0.00000  Uiso   1.00
H192   H     0.71707   0.24751   0.13879   0.00000  Uiso   1.00
H193   H     0.99694   0.27531   0.11526   0.00000  Uiso   1.00
C194   C     0.74534   0.26649   0.05828   0.00000  Uiso   1.00
H195   H     0.76086   0.23245   0.03751   0.00000  Uiso   1.00
H196   H     0.72623   0.28737   0.03230   0.00000  Uiso   1.00
C197   C     0.80217   0.30300   0.07273   0.00000  Uiso   1.00
H198   H     0.78941   0.00413   0.09475   0.00000  Uiso   1.00
H199   H     0.83695   0.31688   0.03794   0.00000  Uiso   1.00
H200   H     0.82286   0.28072   0.09616   0.00000  Uiso   1.00
O201   O     0.71676   0.11662   0.05620   0.00000  Uiso   1.00
C202   C     0.68633   0.06485   0.07128   0.00000  Uiso   1.00
H203   H     0.71282   0.05203   0.09719   0.00000  Uiso   1.00
H204   H     0.68371   0.03533   0.03967   0.00000  Uiso   1.00
C205   C     0.95439   0.06583   0.10076   0.00000  Uiso   1.00
H206   H     0.95707   0.09802   0.12950   0.00000  Uiso   1.00
H207   H     0.92509   0.07305   0.07421   0.00000  Uiso   1.00
C208   C     0.92413   0.01469   0.12847   0.00000  Uiso   1.00
H209   H     0.92289   0.31472   0.10098   0.00000  Uiso   1.00
H210   H     0.87598   0.01619   0.14736   0.00000  Uiso   1.00
H211   H     0.95039   0.00906   0.15791   0.00000  Uiso   1.00
O212   O     0.90776   0.11175   0.37349   0.00000  Uiso   1.00
C213   C     0.87427   0.05891   0.38272   0.00000  Uiso   1.00
H214   H     0.83838   0.04952   0.35856   0.00000  Uiso   1.00
H215   H     0.85043   0.05129   0.42319   0.00000  Uiso   1.00
C216   C     0.91838   0.02110   0.36942   0.00000  Uiso   1.00
H217   H     0.94265   0.02616   0.32914   0.00000  Uiso   1.00
H218   H     0.95379   0.02984   0.39387   0.00000  Uiso   1.00
C219   C     0.88349   0.29734   0.37846   0.00000  Uiso   1.00
H220   H     0.86401   0.29079   0.41961   0.00000  Uiso   1.00
H221   H     0.91598   0.27074   0.36563   0.00000  Uiso   1.00
H222   H     0.84486   0.28734   0.35714   0.00000  Uiso   1.00
C223   C     0.18169   0.59993   0.25129   0.00000  Uiso   1.00
C224   C     0.13771   0.47753   0.48565   0.00000  Uiso   1.00
C225   C     0.15788   0.47730   0.43214   0.00000  Uiso   1.00
C226   C     0.18429   0.49726   0.01597   0.00000  Uiso   1.00
C227   C     0.24759   0.51303   0.49163   0.00000  Uiso   1.00
C228   C     0.26491   0.50537   0.43964   0.00000  Uiso   1.00
C229   C     0.22134   0.47810   0.41287   0.00000  Uiso   1.00
C230   C     0.17141   0.50202   0.06905   0.00000  Uiso   1.00
C231   C     0.28128   0.52718   0.07293   0.00000  Uiso   1.00
C232   C     0.11430   0.47244   0.39967   0.00000  Uiso   1.00
C233   C     0.19000   0.65583   0.25190   0.00000  Uiso   1.00
C234   C     0.13327   0.48987   0.34600   0.00000  Uiso   1.00
C235   C     0.14261   0.34407   0.24921   0.00000  Uiso   1.00
C236   C     0.15152   0.40004   0.24887   0.00000  Uiso   1.00
C237   C     0.20012   0.50557   0.15318   0.00000  Uiso   1.00
C238   C     0.29456   0.52966   0.01989   0.00000  Uiso   1.00
C239   C     0.21882   0.51191   0.09766   0.00000  Uiso   1.00
C240   C     0.05240   0.45037   0.41902   0.00000  Uiso   1.00
C241   C     0.03263   0.43954   0.47048   0.00000  Uiso   1.00
C242   C     0.07376   0.45410   0.00467   0.00000  Uiso   1.00
Cu243  Cu    0.10710   0.49439   0.24435   0.00000  Uiso   1.00
Cu244  Cu    0.22623   0.50561   0.25564   0.00000  Uiso   1.00
H245   H     0.09678   0.65384   0.24682   0.00000  Uiso   1.00
H246   H     0.00380   0.53931   0.28929   0.00000  Uiso   1.00
H247   H     0.32947   0.46058   0.21084   0.00000  Uiso   1.00
H248   H     0.31324   0.51468   0.42122   0.00000  Uiso   1.00
H249   H     0.00904   0.53872   0.00011   0.00000  Uiso   1.00
H250   H     0.12485   0.49820   0.08953   0.00000  Uiso   1.00
H251   H     0.01921   0.44213   0.39410   0.00000  Uiso   1.00
H252   H     0.31716   0.42299   0.48439   0.00000  Uiso   1.00
H253   H     0.23590   0.34612   0.25371   0.00000  Uiso   1.00
N254   N     0.31574   0.51407   0.26416   0.00000  Uiso   1.00
N255   N     0.01759   0.48593   0.23584   0.00000  Uiso   1.00
O256   O     0.12797   0.57141   0.24633   0.00000  Uiso   1.00
O257   O     0.22858   0.58089   0.25586   0.00000  Uiso   1.00
O258   O     0.09181   0.49293   0.31839   0.00000  Uiso   1.00
O259   O     0.19242   0.50241   0.32793   0.00000  Uiso   1.00
O260   O     0.10476   0.41911   0.24413   0.00000  Uiso   1.00
O261   O     0.20536   0.42859   0.25367   0.00000  Uiso   1.00
O262   O     0.14092   0.49759   0.17207   0.00000  Uiso   1.00
O263   O     0.24152   0.50707   0.18160   0.00000  Uiso   1.00
O264   O     0.32892   0.52886   0.09910   0.00000  Uiso   1.00
C265   C     0.02827   0.58093   0.10529   0.00000  Uiso   1.00
H266   H     0.05041   0.58084   0.13879   0.00000  Uiso   1.00
H267   H     0.33027   0.60864   0.11526   0.00000  Uiso   1.00
C268   C     0.07867   0.59983   0.05828   0.00000  Uiso   1.00
H269   H     0.09419   0.56578   0.03751   0.00000  Uiso   1.00
H270   H     0.05956   0.62070   0.03230   0.00000  Uiso   1.00
C271   C     0.13551   0.63633   0.07273   0.00000  Uiso   1.00
H272   H     0.12274   0.33746   0.09475   0.00000  Uiso   1.00
H273   H     0.17028   0.65021   0.03794   0.00000  Uiso   1.00
H274   H     0.15620   0.61405   0.09616   0.00000  Uiso   1.00
O275   O     0.05009   0.44996   0.05620   0.00000  Uiso   1.00
C276   C     0.01967   0.39818   0.07128   0.00000  Uiso   1.00
H277   H     0.04615   0.38536   0.09719   0.00000  Uiso   1.00
H278   H     0.01704   0.36866   0.03967   0.00000  Uiso   1.00
C279   C     0.28772   0.39917   0.10076   0.00000  Uiso   1.00
H280   H     0.29040   0.43135   0.12950   0.00000  Uiso   1.00
H281   H     0.25842   0.40638   0.07421   0.00000  Uiso   1.00
C282   C     0.25747   0.34803   0.12847   0.00000  Uiso   1.00
H283   H     0.25622   0.64806   0.10098   0.00000  Uiso   1.00
H284   H     0.20932   0.34952   0.14736   0.00000  Uiso   1.00
H285   H     0.28372   0.34239   0.15791   0.00000  Uiso   1.00
O286   O     0.24109   0.44509   0.37349   0.00000  Uiso   1.00
C287   C     0.20760   0.39224   0.38272   0.00000  Uiso   1.00
H288   H     0.17171   0.38285   0.35856   0.00000  Uiso   1.00
H289   H     0.18376   0.38463   0.42319   0.00000  Uiso   1.00
C290   C     0.25171   0.35443   0.36942   0.00000  Uiso   1.00
H291   H     0.27598   0.35949   0.32914   0.00000  Uiso   1.00
H292   H     0.28712   0.36318   0.39387   0.00000  Uiso   1.00
C293   C     0.21682   0.63067   0.37846   0.00000  Uiso   1.00
H294   H     0.19735   0.62413   0.41961   0.00000  Uiso   1.00
H295   H     0.24932   0.60407   0.36563   0.00000  Uiso   1.00
H296   H     0.17820   0.62067   0.35714   0.00000  Uiso   1.00
C297   C     0.51502   0.59993   0.25129   0.00000  Uiso   1.00
C298   C     0.47104   0.47753   0.48565   0.00000  Uiso   1.00
C299   C     0.49122   0.47730   0.43214   0.00000  Uiso   1.00
C300   C     0.51763   0.49726   0.01597   0.00000  Uiso   1.00
C301   C     0.58092   0.51303   0.49163   0.00000  Uiso   1.00
C302   C     0.59824   0.50537   0.43964   0.00000  Uiso   1.00
C303   C     0.55467   0.47810   0.41287   0.00000  Uiso   1.00
C304   C     0.50475   0.50202   0.06905   0.00000  Uiso   1.00
C305   C     0.61461   0.52718   0.07293   0.00000  Uiso   1.00
C306   C     0.44763   0.47244   0.39967   0.00000  Uiso   1.00
C307   C     0.52333   0.65583   0.25190   0.00000  Uiso   1.00
C308   C     0.46661   0.48987   0.34600   0.00000  Uiso   1.00
C309   C     0.47594   0.34407   0.24921   0.00000  Uiso   1.00
C310   C     0.48485   0.40004   0.24887   0.00000  Uiso   1.00
C311   C     0.53346   0.50557   0.15318   0.00000  Uiso   1.00
C312   C     0.62789   0.52966   0.01989   0.00000  Uiso   1.00
C313   C     0.55216   0.51191   0.09766   0.00000  Uiso   1.00
C314   C     0.38574   0.45037   0.41902   0.00000  Uiso   1.00
C315   C     0.36597   0.43954   0.47048   0.00000  Uiso   1.00
C316   C     0.40709   0.45410   0.00467   0.00000  Uiso   1.00
Cu317  Cu    0.44043   0.49439   0.24435   0.00000  Uiso   1.00
Cu318  Cu    0.55957   0.50561   0.25564   0.00000  Uiso   1.00
H319   H     0.43011   0.65384   0.24682   0.00000  Uiso   1.00
H320   H     0.33713   0.53931   0.28929   0.00000  Uiso   1.00
H321   H     0.66280   0.46058   0.21084   0.00000  Uiso   1.00
H322   H     0.64657   0.51468   0.42122   0.00000  Uiso   1.00
H323   H     0.34237   0.53872   0.00011   0.00000  Uiso   1.00
H324   H     0.45818   0.49820   0.08953   0.00000  Uiso   1.00
H325   H     0.35254   0.44213   0.39410   0.00000  Uiso   1.00
H326   H     0.65050   0.42299   0.48439   0.00000  Uiso   1.00
H327   H     0.56923   0.34612   0.25371   0.00000  Uiso   1.00
N328   N     0.64908   0.51407   0.26416   0.00000  Uiso   1.00
N329   N     0.35092   0.48593   0.23584   0.00000  Uiso   1.00
O330   O     0.46131   0.57141   0.24633   0.00000  Uiso   1.00
O331   O     0.56191   0.58089   0.25586   0.00000  Uiso   1.00
O332   O     0.42515   0.49293   0.31839   0.00000  Uiso   1.00
O333   O     0.52575   0.50241   0.32793   0.00000  Uiso   1.00
O334   O     0.43809   0.41911   0.24413   0.00000  Uiso   1.00
O335   O     0.53869   0.42859   0.25367   0.00000  Uiso   1.00
O336   O     0.47425   0.49759   0.17207   0.00000  Uiso   1.00
O337   O     0.57485   0.50707   0.18160   0.00000  Uiso   1.00
O338   O     0.66225   0.52886   0.09910   0.00000  Uiso   1.00
C339   C     0.36160   0.58093   0.10529   0.00000  Uiso   1.00
H340   H     0.38374   0.58084   0.13879   0.00000  Uiso   1.00
H341   H     0.66360   0.60864   0.11526   0.00000  Uiso   1.00
C342   C     0.41201   0.59983   0.05828   0.00000  Uiso   1.00
H343   H     0.42752   0.56578   0.03751   0.00000  Uiso   1.00
H344   H     0.39289   0.62070   0.03230   0.00000  Uiso   1.00
C345   C     0.46884   0.63633   0.07273   0.00000  Uiso   1.00
H346   H     0.45608   0.33746   0.09475   0.00000  Uiso   1.00
H347   H     0.50362   0.65021   0.03794   0.00000  Uiso   1.00
H348   H     0.48953   0.61405   0.09616   0.00000  Uiso   1.00
O349   O     0.38342   0.44996   0.05620   0.00000  Uiso   1.00
C350   C     0.35300   0.39818   0.07128   0.00000  Uiso   1.00
H351   H     0.37949   0.38536   0.09719   0.00000  Uiso   1.00
H352   H     0.35038   0.36866   0.03967   0.00000  Uiso   1.00
C353   C     0.62106   0.39917   0.10076   0.00000  Uiso   1.00
H354   H     0.62374   0.43135   0.12950   0.00000  Uiso   1.00
H355   H     0.59176   0.40638   0.07421   0.00000  Uiso   1.00
C356   C     0.59080   0.34803   0.12847   0.00000  Uiso   1.00
H357   H     0.58955   0.64806   0.10098   0.00000  Uiso   1.00
H358   H     0.54265   0.34952   0.14736   0.00000  Uiso   1.00
H359   H     0.61706   0.34239   0.15791   0.00000  Uiso   1.00
O360   O     0.57442   0.44509   0.37349   0.00000  Uiso   1.00
C361   C     0.54094   0.39224   0.38272   0.00000  Uiso   1.00
H362   H     0.50505   0.38285   0.35856   0.00000  Uiso   1.00
H363   H     0.51709   0.38463   0.42319   0.00000  Uiso   1.00
C364   C     0.58504   0.35443   0.36942   0.00000  Uiso   1.00
H365   H     0.60932   0.35949   0.32914   0.00000  Uiso   1.00
H366   H     0.62046   0.36318   0.39387   0.00000  Uiso   1.00
C367   C     0.55016   0.63067   0.37846   0.00000  Uiso   1.00
H368   H     0.53068   0.62413   0.41961   0.00000  Uiso   1.00
H369   H     0.58265   0.60407   0.36563   0.00000  Uiso   1.00
H370   H     0.51153   0.62067   0.35714   0.00000  Uiso   1.00
C371   C     0.84835   0.59993   0.25129   0.00000  Uiso   1.00
C372   C     0.80438   0.47753   0.48565   0.00000  Uiso   1.00
C373   C     0.82455   0.47730   0.43214   0.00000  Uiso   1.00
C374   C     0.85096   0.49726   0.01597   0.00000  Uiso   1.00
C375   C     0.91426   0.51303   0.49163   0.00000  Uiso   1.00
C376   C     0.93158   0.50537   0.43964   0.00000  Uiso   1.00
C377   C     0.88800   0.47810   0.41287   0.00000  Uiso   1.00
C378   C     0.83808   0.50202   0.06905   0.00000  Uiso   1.00
C379   C     0.94794   0.52718   0.07293   0.00000  Uiso   1.00
C380   C     0.78096   0.47244   0.39967   0.00000  Uiso   1.00
C381   C     0.85666   0.65583   0.25190   0.00000  Uiso   1.00
C382   C     0.79994   0.48987   0.34600   0.00000  Uiso   1.00
C383   C     0.80928   0.34407   0.24921   0.00000  Uiso   1.00
C384   C     0.81819   0.40004   0.24887   0.00000  Uiso   1.00
C385   C     0.86679   0.50557   0.15318   0.00000  Uiso   1.00
C386   C     0.96122   0.52966   0.01989   0.00000  Uiso   1.00
C387   C     0.88549   0.51191   0.09766   0.00000  Uiso   1.00
C388   C     0.71907   0.45037   0.41902   0.00000  Uiso   1.00
C389   C     0.69930   0.43954   0.47048   0.00000  Uiso   1.00
C390   C     0.74043   0.45410   0.00467   0.00000  Uiso   1.00
Cu391  Cu    0.77377   0.49439   0.24435   0.00000  Uiso   1.00
Cu392  Cu    0.89290   0.50561   0.25564   0.00000  Uiso   1.00
H393   H     0.76345   0.65384   0.24682   0.00000  Uiso   1.00
H394   H     0.67047   0.53931   0.28929   0.00000  Uiso   1.00
H395   H     0.99614   0.46058   0.21084   0.00000  Uiso   1.00
H396   H     0.97990   0.51468   0.42122   0.00000  Uiso   1.00
H397   H     0.67571   0.53872   0.00011   0.00000  Uiso   1.00
H398   H     0.79152   0.49820   0.08953   0.00000  Uiso   1.00
H399   H     0.68588   0.44213   0.39410   0.00000  Uiso   1.00
H400   H     0.98383   0.42299   0.48439   0.00000  Uiso   1.00
H401   H     0.90257   0.34612   0.25371   0.00000  Uiso   1.00
N402   N     0.98241   0.51407   0.26416   0.00000  Uiso   1.00
N403   N     0.68426   0.48593   0.23584   0.00000  Uiso   1.00
O404   O     0.79464   0.57141   0.24633   0.00000  Uiso   1.00
O405   O     0.89524   0.58089   0.25586   0.00000  Uiso   1.00
O406   O     0.75848   0.49293   0.31839   0.00000  Uiso   1.00
O407   O     0.85908   0.50241   0.32793   0.00000  Uiso   1.00
O408   O     0.77142   0.41911   0.24413   0.00000  Uiso   1.00
O409   O     0.87203   0.42859   0.25367   0.00000  Uiso   1.00
O410   O     0.80758   0.49759   0.17207   0.00000  Uiso   1.00
O411   O     0.90819   0.50707   0.18160   0.00000  Uiso   1.00
O412   O     0.99558   0.52886   0.09910   0.00000  Uiso   1.00
C413   C     0.69493   0.58093   0.10529   0.00000  Uiso   1.00
H414   H     0.71707   0.58084   0.13879   0.00000  Uiso   1.00
H415   H     0.99694   0.60864   0.11526   0.00000  Uiso   1.00
C416   C     0.74534   0.59983   0.05828   0.00000  Uiso   1.00
H417   H     0.76086   0.56578   0.03751   0.00000  Uiso   1.00
H418   H     0.72623   0.62070   0.03230   0.00000  Uiso   1.00
C419   C     0.80217   0.63633   0.07273   0.00000  Uiso   1.00
H420   H     0.78941   0.33746   0.09475   0.00000  Uiso   1.00
H421   H     0.83695   0.65021   0.03794   0.00000  Uiso   1.00
H422   H     0.82286   0.61405   0.09616   0.00000  Uiso   1.00
O423   O     0.71676   0.44996   0.05620   0.00000  Uiso   1.00
C424   C     0.68633   0.39818   0.07128   0.00000  Uiso   1.00
H425   H     0.71282   0.38536   0.09719   0.00000  Uiso   1.00
H426   H     0.68371   0.36866   0.03967   0.00000  Uiso   1.00
C427   C     0.95439   0.39917   0.10076   0.00000  Uiso   1.00
H428   H     0.95707   0.43135   0.12950   0.00000  Uiso   1.00
H429   H     0.92509   0.40638   0.07421   0.00000  Uiso   1.00
C430   C     0.92413   0.34803   0.12847   0.00000  Uiso   1.00
H431   H     0.92289   0.64806   0.10098   0.00000  Uiso   1.00
H432   H     0.87598   0.34952   0.14736   0.00000  Uiso   1.00
H433   H     0.95039   0.34239   0.15791   0.00000  Uiso   1.00
O434   O     0.90776   0.44509   0.37349   0.00000  Uiso   1.00
C435   C     0.87427   0.39224   0.38272   0.00000  Uiso   1.00
H436   H     0.83838   0.38285   0.35856   0.00000  Uiso   1.00
H437   H     0.85043   0.38463   0.42319   0.00000  Uiso   1.00
C438   C     0.91838   0.35443   0.36942   0.00000  Uiso   1.00
H439   H     0.94265   0.35949   0.32914   0.00000  Uiso   1.00
H440   H     0.95379   0.36318   0.39387   0.00000  Uiso   1.00
C441   C     0.88349   0.63067   0.37846   0.00000  Uiso   1.00
H442   H     0.86401   0.62413   0.41961   0.00000  Uiso   1.00
H443   H     0.91598   0.60407   0.36563   0.00000  Uiso   1.00
H444   H     0.84486   0.62067   0.35714   0.00000  Uiso   1.00
C445   C     0.18169   0.93327   0.25129   0.00000  Uiso   1.00
C446   C     0.13771   0.81086   0.48565   0.00000  Uiso   1.00
C447   C     0.15788   0.81063   0.43214   0.00000  Uiso   1.00
C448   C     0.18429   0.83059   0.01597   0.00000  Uiso   1.00
C449   C     0.24759   0.84636   0.49163   0.00000  Uiso   1.00
C450   C     0.26491   0.83871   0.43964   0.00000  Uiso   1.00
C451   C     0.22134   0.81143   0.41287   0.00000  Uiso   1.00
C452   C     0.17141   0.83536   0.06905   0.00000  Uiso   1.00
C453   C     0.28128   0.86051   0.07293   0.00000  Uiso   1.00
C454   C     0.11430   0.80577   0.39967   0.00000  Uiso   1.00
C455   C     0.19000   0.98917   0.25190   0.00000  Uiso   1.00
C456   C     0.13327   0.82320   0.34600   0.00000  Uiso   1.00
C457   C     0.14261   0.67741   0.24921   0.00000  Uiso   1.00
C458   C     0.15152   0.73337   0.24887   0.00000  Uiso   1.00
C459   C     0.20012   0.83890   0.15318   0.00000  Uiso   1.00
C460   C     0.29456   0.86299   0.01989   0.00000  Uiso   1.00
C461   C     0.21882   0.84525   0.09766   0.00000  Uiso   1.00
C462   C     0.05240   0.78370   0.41902   0.00000  Uiso   1.00
C463   C     0.03263   0.77288   0.47048   0.00000  Uiso   1.00
C464   C     0.07376   0.78743   0.00467   0.00000  Uiso   1.00
Cu465  Cu    0.10710   0.82772   0.24435   0.00000  Uiso   1.00
Cu466  Cu    0.22623   0.83895   0.25564   0.00000  Uiso   1.00
H467   H     0.09678   0.98718   0.24682   0.00000  Uiso   1.00
H468   H     0.00380   0.87264   0.28929   0.00000  Uiso   1.00
H469   H     0.32947   0.79392   0.21084   0.00000  Uiso   1.00
H470   H     0.31324   0.84801   0.42122   0.00000  Uiso   1.00
H471   H     0.00904   0.87205   0.00011   0.00000  Uiso   1.00
H472   H     0.12485   0.83154   0.08953   0.00000  Uiso   1.00
H473   H     0.01921   0.77546   0.39410   0.00000  Uiso   1.00
H474   H     0.31716   0.75633   0.48439   0.00000  Uiso   1.00
H475   H     0.23590   0.67945   0.25371   0.00000  Uiso   1.00
N476   N     0.31574   0.84741   0.26416   0.00000  Uiso   1.00
N477   N     0.01759   0.81926   0.23584   0.00000  Uiso   1.00
O478   O     0.12797   0.90474   0.24633   0.00000  Uiso   1.00
O479   O     0.22858   0.91422   0.25586   0.00000  Uiso   1.00
O480   O     0.09181   0.82627   0.31839   0.00000  Uiso   1.00
O481   O     0.19242   0.83575   0.32793   0.00000  Uiso   1.00
O482   O     0.10476   0.75245   0.24413   0.00000  Uiso   1.00
O483   O     0.20536   0.76193   0.25367   0.00000  Uiso   1.00
O484   O     0.14092   0.83092   0.17207   0.00000  Uiso   1.00
O485   O     0.24152   0.84040   0.18160   0.00000  Uiso   1.00
O486   O     0.32892   0.86219   0.09910   0.00000  Uiso   1.00
C487   C     0.02827   0.91426   0.10529   0.00000  Uiso   1.00
H488   H     0.05041   0.91418   0.13879   0.00000  Uiso   1.00
H489   H     0.33027   0.94197   0.11526   0.00000  Uiso   1.00
C490   C     0.07867   0.93316   0.05828   0.00000  Uiso   1.00
H491   H     0.09419   0.89911   0.03751   0.00000  Uiso   1.00
H492   H     0.05956   0.95403   0.03230   0.00000  Uiso   1.00
C493   C     0.13551   0.96966   0.07273   0.00000  Uiso   1.00
H494   H     0.12274   0.67079   0.09475   0.00000  Uiso   1.00
H495   H     0.17028   0.98354   0.03794   0.00000  Uiso   1.00
H496   H     0.15620   0.94739   0.09616   0.00000  Uiso   1.00
O497   O     0.05009   0.78329   0.05620   0.00000  Uiso   1.00
C498   C     0.01967   0.73152   0.07128   0.00000  Uiso   1.00
H499   H     0.04615   0.71869   0.09719   0.00000  Uiso   1.00
H500   H     0.01704   0.70200   0.03967   0.00000  Uiso   1.00
C501   C     0.28772   0.73250   0.10076   0.00000  Uiso   1.00
H502   H     0.29040   0.76469   0.12950   0.00000  Uiso   1.00
H503   H     0.25842   0.73972   0.07421   0.00000  Uiso   1.00
C504   C     0.25747   0.68136   0.12847   0.00000  Uiso   1.00
H505   H     0.25622   0.98139   0.10098   0.00000  Uiso   1.00
H506   H     0.20932   0.68286   0.14736   0.00000  Uiso   1.00
H507   H     0.28372   0.67572   0.15791   0.00000  Uiso   1.00
O508   O     0.24109   0.77842   0.37349   0.00000  Uiso   1.00
C509   C     0.20760   0.72558   0.38272   0.00000  Uiso   1.00
H510   H     0.17171   0.71618   0.35856   0.00000  Uiso   1.00
H511   H     0.18376   0.71796   0.42319   0.00000  Uiso   1.00
C512   C     0.25171   0.68776   0.36942   0.00000  Uiso   1.00
H513   H     0.27598   0.69282   0.32914   0.00000  Uiso   1.00
H514   H     0.28712   0.69651   0.39387   0.00000  Uiso   1.00
C515   C     0.21682   0.96400   0.37846   0.00000  Uiso   1.00
H516   H     0.19735   0.95746   0.41961   0.00000  Uiso   1.00
H517   H     0.24932   0.93741   0.36563   0.00000  Uiso   1.00
H518   H     0.17820   0.95401   0.35714   0.00000  Uiso   1.00
C519   C     0.51502   0.93327   0.25129   0.00000  Uiso   1.00
C520   C     0.47104   0.81086   0.48565   0.00000  Uiso   1.00
C521   C     0.49122   0.81063   0.43214   0.00000  Uiso   1.00
C522   C     0.51763   0.83059   0.01597   0.00000  Uiso   1.00
C523   C     0.58092   0.84636   0.49163   0.00000  Uiso   1.00
C524   C     0.59824   0.83871   0.43964   0.00000  Uiso   1.00
C525   C     0.55467   0.81143   0.41287   0.00000  Uiso   1.00
C526   C     0.50475   0.83536   0.06905   0.00000  Uiso   1.00
C527   C     0.61461   0.86051   0.07293   0.00000  Uiso   1.00
C528   C     0.44763   0.80577   0.39967   0.00000  Uiso   1.00
C529   C     0.52333   0.98917   0.25190   0.00000  Uiso   1.00
C530   C     0.46661   0.82320   0.34600   0.00000  Uiso   1.00
C531   C     0.47594   0.67741   0.24921   0.00000  Uiso   1.00
C532   C     0.48485   0.73337   0.24887   0.00000  Uiso   1.00
C533   C     0.53346   0.83890   0.15318   0.00000  Uiso   1.00
C534   C     0.62789   0.86299   0.01989   0.00000  Uiso   1.00
C535   C     0.55216   0.84525   0.09766   0.00000  Uiso   1.00
C536   C     0.38574   0.78370   0.41902   0.00000  Uiso   1.00
C537   C     0.36597   0.77288   0.47048   0.00000  Uiso   1.00
C538   C     0.40709   0.78743   0.00467   0.00000  Uiso   1.00
Cu539  Cu    0.44043   0.82772   0.24435   0.00000  Uiso   1.00
Cu540  Cu    0.55957   0.83895   0.25564   0.00000  Uiso   1.00
H541   H     0.43011   0.98718   0.24682   0.00000  Uiso   1.00
H542   H     0.33713   0.87264   0.28929   0.00000  Uiso   1.00
H543   H     0.66280   0.79392   0.21084   0.00000  Uiso   1.00
H544   H     0.64657   0.84801   0.42122   0.00000  Uiso   1.00
H545   H     0.34237   0.87205   0.00011   0.00000  Uiso   1.00
H546   H     0.45818   0.83154   0.08953   0.00000  Uiso   1.00
H547   H     0.35254   0.77546   0.39410   0.00000  Uiso   1.00
H548   H     0.65050   0.75633   0.48439   0.00000  Uiso   1.00
H549   H     0.56923   0.67945   0.25371   0.00000  Uiso   1.00
N550   N     0.64908   0.84741   0.26416   0.00000  Uiso   1.00
N551   N     0.35092   0.81926   0.23584   0.00000  Uiso   1.00
O552   O     0.46131   0.90474   0.24633   0.00000  Uiso   1.00
O553   O     0.56191   0.91422   0.25586   0.00000  Uiso   1.00
O554   O     0.42515   0.82627   0.31839   0.00000  Uiso   1.00
O555   O     0.52575   0.83575   0.32793   0.00000  Uiso   1.00
O556   O     0.43809   0.75245   0.24413   0.00000  Uiso   1.00
O557   O     0.53869   0.76193   0.25367   0.00000  Uiso   1.00
O558   O     0.47425   0.83092   0.17207   0.00000  Uiso   1.00
O559   O     0.57485   0.84040   0.18160   0.00000  Uiso   1.00
O560   O     0.66225   0.86219   0.09910   0.00000  Uiso   1.00
C561   C     0.36160   0.91426   0.10529   0.00000  Uiso   1.00
H562   H     0.38374   0.91418   0.13879   0.00000  Uiso   1.00
H563   H     0.66360   0.94197   0.11526   0.00000  Uiso   1.00
C564   C     0.41201   0.93316   0.05828   0.00000  Uiso   1.00
H565   H     0.42752   0.89911   0.03751   0.00000  Uiso   1.00
H566   H     0.39289   0.95403   0.03230   0.00000  Uiso   1.00
C567   C     0.46884   0.96966   0.07273   0.00000  Uiso   1.00
H568   H     0.45608   0.67079   0.09475   0.00000  Uiso   1.00
H569   H     0.50362   0.98354   0.03794   0.00000  Uiso   1.00
H570   H     0.48953   0.94739   0.09616   0.00000  Uiso   1.00
O571   O     0.38342   0.78329   0.05620   0.00000  Uiso   1.00
C572   C     0.35300   0.73152   0.07128   0.00000  Uiso   1.00
H573   H     0.37949   0.71869   0.09719   0.00000  Uiso   1.00
H574   H     0.35038   0.70200   0.03967   0.00000  Uiso   1.00
C575   C     0.62106   0.73250   0.10076   0.00000  Uiso   1.00
H576   H     0.62374   0.76469   0.12950   0.00000  Uiso   1.00
H577   H     0.59176   0.73972   0.07421   0.00000  Uiso   1.00
C578   C     0.59080   0.68136   0.12847   0.00000  Uiso   1.00
H579   H     0.58955   0.98139   0.10098   0.00000  Uiso   1.00
H580   H     0.54265   0.68286   0.14736   0.00000  Uiso   1.00
H581   H     0.61706   0.67572   0.15791   0.00000  Uiso   1.00
O582   O     0.57442   0.77842   0.37349   0.00000  Uiso   1.00
C583   C     0.54094   0.72558   0.38272   0.00000  Uiso   1.00
H584   H     0.50505   0.71618   0.35856   0.00000  Uiso   1.00
H585   H     0.51709   0.71796   0.42319   0.00000  Uiso   1.00
C586   C     0.58504   0.68776   0.36942   0.00000  Uiso   1.00
H587   H     0.60932   0.69282   0.32914   0.00000  Uiso   1.00
H588   H     0.62046   0.69651   0.39387   0.00000  Uiso   1.00
C589   C     0.55016   0.96400   0.37846   0.00000  Uiso   1.00
H590   H     0.53068   0.95746   0.41961   0.00000  Uiso   1.00
H591   H     0.58265   0.93741   0.36563   0.00000  Uiso   1.00
H592   H     0.51153   0.95401   0.35714   0.00000  Uiso   1.00
C593   C     0.84835   0.93327   0.25129   0.00000  Uiso   1.00
C594   C     0.80438   0.81086   0.48565   0.00000  Uiso   1.00
C595   C     0.82455   0.81063   0.43214   0.00000  Uiso   1.00
C596   C     0.85096   0.83059   0.01597   0.00000  Uiso   1.00
C597   C     0.91426   0.84636   0.49163   0.00000  Uiso   1.00
C598   C     0.93158   0.83871   0.43964   0.00000  Uiso   1.00
C599   C     0.88800   0.81143   0.41287   0.00000  Uiso   1.00
C600   C     0.83808   0.83536   0.06905   0.00000  Uiso   1.00
C601   C     0.94794   0.86051   0.07293   0.00000  Uiso   1.00
C602   C     0.78096   0.80577   0.39967   0.00000  Uiso   1.00
C603   C     0.85666   0.98917   0.25190   0.00000  Uiso   1.00
C604   C     0.79994   0.82320   0.34600   0.00000  Uiso   1.00
C605   C     0.80928   0.67741   0.24921   0.00000  Uiso   1.00
C606   C     0.81819   0.73337   0.24887   0.00000  Uiso   1.00
C607   C     0.86679   0.83890   0.15318   0.00000  Uiso   1.00
C608   C     0.96122   0.86299   0.01989   0.00000  Uiso   1.00
C609   C     0.88549   0.84525   0.09766   0.00000  Uiso   1.00
C610   C     0.71907   0.78370   0.41902   0.00000  Uiso   1.00
C611   C     0.69930   0.77288   0.47048   0.00000  Uiso   1.00
C612   C     0.74043   0.78743   0.00467   0.00000  Uiso   1.00
Cu613  Cu    0.77377   0.82772   0.24435   0.00000  Uiso   1.00
Cu614  Cu    0.89290   0.83895   0.25564   0.00000  Uiso   1.00
H615   H     0.76345   0.98718   0.24682   0.00000  Uiso   1.00
H616   H     0.67047   0.87264   0.28929   0.00000  Uiso   1.00
H617   H     0.99614   0.79392   0.21084   0.00000  Uiso   1.00
H618   H     0.97990   0.84801   0.42122   0.00000  Uiso   1.00
H619   H     0.67571   0.87205   0.00011   0.00000  Uiso   1.00
H620   H     0.79152   0.83154   0.08953   0.00000  Uiso   1.00
H621   H     0.68588   0.77546   0.39410   0.00000  Uiso   1.00
H622   H     0.98383   0.75633   0.48439   0.00000  Uiso   1.00
H623   H     0.90257   0.67945   0.25371   0.00000  Uiso   1.00
N624   N     0.98241   0.84741   0.26416   0.00000  Uiso   1.00
N625   N     0.68426   0.81926   0.23584   0.00000  Uiso   1.00
O626   O     0.79464   0.90474   0.24633   0.00000  Uiso   1.00
O627   O     0.89524   0.91422   0.25586   0.00000  Uiso   1.00
O628   O     0.75848   0.82627   0.31839   0.00000  Uiso   1.00
O629   O     0.85908   0.83575   0.32793   0.00000  Uiso   1.00
O630   O     0.77142   0.75245   0.24413   0.00000  Uiso   1.00
O631   O     0.87203   0.76193   0.25367   0.00000  Uiso   1.00
O632   O     0.80758   0.83092   0.17207   0.00000  Uiso   1.00
O633   O     0.90819   0.84040   0.18160   0.00000  Uiso   1.00
O634   O     0.99558   0.86219   0.09910   0.00000  Uiso   1.00
C635   C     0.69493   0.91426   0.10529   0.00000  Uiso   1.00
H636   H     0.71707   0.91418   0.13879   0.00000  Uiso   1.00
H637   H     0.99694   0.94197   0.11526   0.00000  Uiso   1.00
C638   C     0.74534   0.93316   0.05828   0.00000  Uiso   1.00
H639   H     0.76086   0.89911   0.03751   0.00000  Uiso   1.00
H640   H     0.72623   0.95403   0.03230   0.00000  Uiso   1.00
C641   C     0.80217   0.96966   0.07273   0.00000  Uiso   1.00
H642   H     0.78941   0.67079   0.09475   0.00000  Uiso   1.00
H643   H     0.83695   0.98354   0.03794   0.00000  Uiso   1.00
H644   H     0.82286   0.94739   0.09616   0.00000  Uiso   1.00
O645   O     0.71676   0.78329   0.05620   0.00000  Uiso   1.00
C646   C     0.68633   0.73152   0.07128   0.00000  Uiso   1.00
H647   H     0.71282   0.71869   0.09719   0.00000  Uiso   1.00
H648   H     0.68371   0.70200   0.03967   0.00000  Uiso   1.00
C649   C     0.95439   0.73250   0.10076   0.00000  Uiso   1.00
H650   H     0.95707   0.76469   0.12950   0.00000  Uiso   1.00
H651   H     0.92509   0.73972   0.07421   0.00000  Uiso   1.00
C652   C     0.92413   0.68136   0.12847   0.00000  Uiso   1.00
H653   H     0.92289   0.98139   0.10098   0.00000  Uiso   1.00
H654   H     0.87598   0.68286   0.14736   0.00000  Uiso   1.00
H655   H     0.95039   0.67572   0.15791   0.00000  Uiso   1.00
O656   O     0.90776   0.77842   0.37349   0.00000  Uiso   1.00
C657   C     0.87427   0.72558   0.38272   0.00000  Uiso   1.00
H658   H     0.83838   0.71618   0.35856   0.00000  Uiso   1.00
H659   H     0.85043   0.71796   0.42319   0.00000  Uiso   1.00
C660   C     0.91838   0.68776   0.36942   0.00000  Uiso   1.00
H661   H     0.94265   0.69282   0.32914   0.00000  Uiso   1.00
H662   H     0.95379   0.69651   0.39387   0.00000  Uiso   1.00
C663   C     0.88349   0.96400   0.37846   0.00000  Uiso   1.00
H664   H     0.86401   0.95746   0.41961   0.00000  Uiso   1.00
H665   H     0.91598   0.93741   0.36563   0.00000  Uiso   1.00
H666   H     0.84486   0.95401   0.35714   0.00000  Uiso   1.00
C667   C     0.18169   0.26660   0.75129   0.00000  Uiso   1.00
C668   C     0.13771   0.14419   0.98565   0.00000  Uiso   1.00
C669   C     0.15788   0.14396   0.93214   0.00000  Uiso   1.00
C670   C     0.18429   0.16393   0.51597   0.00000  Uiso   1.00
C671   C     0.24759   0.17970   0.99163   0.00000  Uiso   1.00
C672   C     0.26491   0.17204   0.93964   0.00000  Uiso   1.00
C673   C     0.22134   0.14477   0.91287   0.00000  Uiso   1.00
C674   C     0.17141   0.16869   0.56905   0.00000  Uiso   1.00
C675   C     0.28128   0.19385   0.57293   0.00000  Uiso   1.00
C676   C     0.11430   0.13911   0.89967   0.00000  Uiso   1.00
C677   C     0.19000   0.32250   0.75190   0.00000  Uiso   1.00
C678   C     0.13327   0.15654   0.84600   0.00000  Uiso   1.00
C679   C     0.14261   0.01074   0.74921   0.00000  Uiso   1.00
C680   C     0.15152   0.06670   0.74887   0.00000  Uiso   1.00
C681   C     0.20012   0.17223   0.65318   0.00000  Uiso   1.00
C682   C     0.29456   0.19632   0.51989   0.00000  Uiso   1.00
C683   C     0.21882   0.17858   0.59766   0.00000  Uiso   1.00
C684   C     0.05240   0.11704   0.91902   0.00000  Uiso   1.00
C685   C     0.03263   0.10621   0.97048   0.00000  Uiso   1.00
C686   C     0.07376   0.12077   0.50467   0.00000  Uiso   1.00
Cu687  Cu    0.10710   0.16105   0.74435   0.00000  Uiso   1.00
Cu688  Cu    0.22623   0.17228   0.75564   0.00000  Uiso   1.00
H689   H     0.09678   0.32051   0.74682   0.00000  Uiso   1.00
H690   H     0.00380   0.20597   0.78929   0.00000  Uiso   1.00
H691   H     0.32947   0.12725   0.71084   0.00000  Uiso   1.00
H692   H     0.31324   0.18134   0.92122   0.00000  Uiso   1.00
H693   H     0.00904   0.20539   0.50011   0.00000  Uiso   1.00
H694   H     0.12485   0.16487   0.58953   0.00000  Uiso   1.00
H695   H     0.01921   0.10880   0.89410   0.00000  Uiso   1.00
H696   H     0.31716   0.08966   0.98439   0.00000  Uiso   1.00
H697   H     0.23590   0.01279   0.75371   0.00000  Uiso   1.00
N698   N     0.31574   0.18074   0.76416   0.00000  Uiso   1.00
N699   N     0.01759   0.15259   0.73584   0.00000  Uiso   1.00
O700   O     0.12797   0.23807   0.74633   0.00000  Uiso   1.00
O701   O     0.22858   0.24755   0.75586   0.00000  Uiso   1.00
O702   O     0.09181   0.15960   0.81839   0.00000  Uiso   1.00
O703   O     0.19242   0.16908   0.82793   0.00000  Uiso   1.00
O704   O     0.10476   0.08578   0.74413   0.00000  Uiso   1.00
O705   O     0.20536   0.09526   0.75367   0.00000  Uiso   1.00
O706   O     0.14092   0.16425   0.67207   0.00000  Uiso   1.00
O707   O     0.24152   0.17373   0.68160   0.00000  Uiso   1.00
O708   O     0.32892   0.19552   0.59910   0.00000  Uiso   1.00
C709   C     0.02827   0.24759   0.60529   0.00000  Uiso   1.00
H710   H     0.05041   0.24751   0.63879   0.00000  Uiso   1.00
H711   H     0.33027   0.27531   0.61526   0.00000  Uiso   1.00
C712   C     0.07867   0.26649   0.55828   0.00000  Uiso   1.00
H713   H     0.09419   0.23245   0.53751   0.00000  Uiso   1.00
H714   H     0.05956   0.28737   0.53230   0.00000  Uiso   1.00
C715   C     0.13551   0.30300   0.57273   0.00000  Uiso   1.00
H716   H     0.12274   0.00413   0.59475   0.00000  Uiso   1.00
H717   H     0.17028   0.31688   0.53794   0.00000  Uiso   1.00
H718   H     0.15620   0.28072   0.59616   0.00000  Uiso   1.00
O719   O     0.05009   0.11662   0.55620   0.00000  Uiso   1.00
C720   C     0.01967   0.06485   0.57128   0.00000  Uiso   1.00
H721   H     0.04615   0.05203   0.59719   0.00000  Uiso   1.00
H722   H     0.01704   0.03533   0.53967   0.00000  Uiso   1.00
C723   C     0.28772   0.06583   0.60076   0.00000  Uiso   1.00
H724   H     0.29040   0.09802   0.62950   0.00000  Uiso   1.00
H725   H     0.25842   0.07305   0.57421   0.00000  Uiso   1.00
C726   C     0.25747   0.01469   0.62847   0.00000  Uiso   1.00
H727   H     0.25622   0.31472   0.60098   0.00000  Uiso   1.00
H728   H     0.20932   0.01619   0.64736   0.00000  Uiso   1.00
H729   H     0.28372   0.00906   0.65791   0.00000  Uiso   1.00
O730   O     0.24109   0.11175   0.87349   0.00000  Uiso   1.00
C731   C     0.20760   0.05891   0.88272   0.00000  Uiso   1.00
H732   H     0.17171   0.04952   0.85856   0.00000  Uiso   1.00
H733   H     0.18376   0.05129   0.92319   0.00000  Uiso   1.00
C734   C     0.25171   0.02110   0.86942   0.00000  Uiso   1.00
H735   H     0.27598   0.02616   0.82914   0.00000  Uiso   1.00
H736   H     0.28712   0.02984   0.89387   0.00000  Uiso   1.00
C737   C     0.21682   0.29734   0.87846   0.00000  Uiso   1.00
H738   H     0.19735   0.29079   0.91961   0.00000  Uiso   1.00
H739   H     0.24932   0.27074   0.86563   0.00000  Uiso   1.00
H740   H     0.17820   0.28734   0.85714   0.00000  Uiso   1.00
C741   C     0.51502   0.26660   0.75129   0.00000  Uiso   1.00
C742   C     0.47104   0.14419   0.98565   0.00000  Uiso   1.00
C743   C     0.49122   0.14396   0.93214   0.00000  Uiso   1.00
C744   C     0.51763   0.16393   0.51597   0.00000  Uiso   1.00
C745   C     0.58092   0.17970   0.99163   0.00000  Uiso   1.00
C746   C     0.59824   0.17204   0.93964   0.00000  Uiso   1.00
C747   C     0.55467   0.14477   0.91287   0.00000  Uiso   1.00
C748   C     0.50475   0.16869   0.56905   0.00000  Uiso   1.00
C749   C     0.61461   0.19385   0.57293   0.00000  Uiso   1.00
C750   C     0.44763   0.13911   0.89967   0.00000  Uiso   1.00
C751   C     0.52333   0.32250   0.75190   0.00000  Uiso   1.00
C752   C     0.46661   0.15654   0.84600   0.00000  Uiso   1.00
C753   C     0.47594   0.01074   0.74921   0.00000  Uiso   1.00
C754   C     0.48485   0.06670   0.74887   0.00000  Uiso   1.00
C755   C     0.53346   0.17223   0.65318   0.00000  Uiso   1.00
C756   C     0.62789   0.19632   0.51989   0.00000  Uiso   1.00
C757   C     0.55216   0.17858   0.59766   0.00000  Uiso   1.00
C758   C     0.38574   0.11704   0.91902   0.00000  Uiso   1.00
C759   C     0.36597   0.10621   0.97048   0.00000  Uiso   1.00
C760   C     0.40709   0.12077   0.50467   0.00000  Uiso   1.00
Cu761  Cu    0.44043   0.16105   0.74435   0.00000  Uiso   1.00
Cu762  Cu    0.55957   0.17228   0.75564   0.00000  Uiso   1.00
H763   H     0.43011   0.32051   0.74682   0.00000  Uiso   1.00
H764   H     0.33713   0.20597   0.78929   0.00000  Uiso   1.00
H765   H     0.66280   0.12725   0.71084   0.00000  Uiso   1.00
H766   H     0.64657   0.18134   0.92122   0.00000  Uiso   1.00
H767   H     0.34237   0.20539   0.50011   0.00000  Uiso   1.00
H768   H     0.45818   0.16487   0.58953   0.00000  Uiso   1.00
H769   H     0.35254   0.10880   0.89410   0.00000  Uiso   1.00
H770   H     0.65050   0.08966   0.98439   0.00000  Uiso   1.00
H771   H     0.56923   0.01279   0.75371   0.00000  Uiso   1.00
N772   N     0.64908   0.18074   0.76416   0.00000  Uiso   1.00
N773   N     0.35092   0.15259   0.73584   0.00000  Uiso   1.00
O774   O     0.46131   0.23807   0.74633   0.00000  Uiso   1.00
O775   O     0.56191   0.24755   0.75586   0.00000  Uiso   1.00
O776   O     0.42515   0.15960   0.81839   0.00000  Uiso   1.00
O777   O     0.52575   0.16908   0.82793   0.00000  Uiso   1.00
O778   O     0.43809   0.08578   0.74413   0.00000  Uiso   1.00
O779   O     0.53869   0.09526   0.75367   0.00000  Uiso   1.00
O780   O     0.47425   0.16425   0.67207   0.00000  Uiso   1.00
O781   O     0.57485   0.17373   0.68160   0.00000  Uiso   1.00
O782   O     0.66225   0.19552   0.59910   0.00000  Uiso   1.00
C783   C     0.36160   0.24759   0.60529   0.00000  Uiso   1.00
H784   H     0.38374   0.24751   0.63879   0.00000  Uiso   1.00
H785   H     0.66360   0.27531   0.61526   0.00000  Uiso   1.00
C786   C     0.41201   0.26649   0.55828   0.00000  Uiso   1.00
H787   H     0.42752   0.23245   0.53751   0.00000  Uiso   1.00
H788   H     0.39289   0.28737   0.53230   0.00000  Uiso   1.00
C789   C     0.46884   0.30300   0.57273   0.00000  Uiso   1.00
H790   H     0.45608   0.00413   0.59475   0.00000  Uiso   1.00
H791   H     0.50362   0.31688   0.53794   0.00000  Uiso   1.00
H792   H     0.48953   0.28072   0.59616   0.00000  Uiso   1.00
O793   O     0.38342   0.11662   0.55620   0.00000  Uiso   1.00
C794   C     0.35300   0.06485   0.57128   0.00000  Uiso   1.00
H795   H     0.37949   0.05203   0.59719   0.00000  Uiso   1.00
H796   H     0.35038   0.03533   0.53967   0.00000  Uiso   1.00
C797   C     0.62106   0.06583   0.60076   0.00000  Uiso   1.00
H798   H     0.62374   0.09802   0.62950   0.00000  Uiso   1.00
H799   H     0.59176   0.07305   0.57421   0.00000  Uiso   1.00
C800   C     0.59080   0.01469   0.62847   0.00000  Uiso   1.00
H801   H     0.58955   0.31472   0.60098   0.00000  Uiso   1.00
H802   H     0.54265   0.01619   0.64736   0.00000  Uiso   1.00
H803   H     0.61706   0.00906   0.65791   0.00000  Uiso   1.00
O804   O     0.57442   0.11175   0.87349   0.00000  Uiso   1.00
C805   C     0.54094   0.05891   0.88272   0.00000  Uiso   1.00
H806   H     0.50505   0.04952   0.85856   0.00000  Uiso   1.00
H807   H     0.51709   0.05129   0.92319   0.00000  Uiso   1.00
C808   C     0.58504   0.02110   0.86942   0.00000  Uiso   1.00
H809   H     0.60932   0.02616   0.82914   0.00000  Uiso   1.00
H810   H     0.62046   0.02984   0.89387   0.00000  Uiso   1.00
C811   C     0.55016   0.29734   0.87846   0.00000  Uiso   1.00
H812   H     0.53068   0.29079   0.91961   0.00000  Uiso   1.00
H813   H     0.58265   0.27074   0.86563   0.00000  Uiso   1.00
H814   H     0.51153   0.28734   0.85714   0.00000  Uiso   1.00
C815   C     0.84835   0.26660   0.75129   0.00000  Uiso   1.00
C816   C     0.80438   0.14419   0.98565   0.00000  Uiso   1.00
C817   C     0.82455   0.14396   0.93214   0.00000  Uiso   1.00
C818   C     0.85096   0.16393   0.51597   0.00000  Uiso   1.00
C819   C     0.91426   0.17970   0.99163   0.00000  Uiso   1.00
C820   C     0.93158   0.17204   0.93964   0.00000  Uiso   1.00
C821   C     0.88800   0.14477   0.91287   0.00000  Uiso   1.00
C822   C     0.83808   0.16869   0.56905   0.00000  Uiso   1.00
C823   C     0.94794   0.19385   0.57293   0.00000  Uiso   1.00
C824   C     0.78096   0.13911   0.89967   0.00000  Uiso   1.00
C825   C     0.85666   0.32250   0.75190   0.00000  Uiso   1.00
C826   C     0.79994   0.15654   0.84600   0.00000  Uiso   1.00
C827   C     0.80928   0.01074   0.74921   0.00000  Uiso   1.00
C828   C     0.81819   0.06670   0.74887   0.00000  Uiso   1.00
C829   C     0.86679   0.17223   0.65318   0.00000  Uiso   1.00
C830   C     0.96122   0.19632   0.51989   0.00000  Uiso   1.00
C831   C     0.88549   0.17858   0.59766   0.00000  Uiso   1.00
C832   C     0.71907   0.11704   0.91902   0.00000  Uiso   1.00
C833   C     0.69930   0.10621   0.97048   0.00000  Uiso   1.00
C834   C     0.74043   0.12077   0.50467   0.00000  Uiso   1.00
Cu835  Cu    0.77377   0.16105   0.74435   0.00000  Uiso   1.00
Cu836  Cu    0.89290   0.17228   0.75564   0.00000  Uiso   1.00
H837   H     0.76345   0.32051   0.74682   0.00000  Uiso   1.00
H838   H     0.67047   0.20597   0.78929   0.00000  Uiso   1.00
H839   H     0.99614   0.12725   0.71084   0.00000  Uiso   1.00
H840   H     0.97990   0.18134   0.92122   0.00000  Uiso   1.00
H841   H     0.67571   0.20539   0.50011   0.00000  Uiso   1.00
H842   H     0.79152   0.16487   0.58953   0.00000  Uiso   1.00
H843   H     0.68588   0.10880   0.89410   0.00000  Uiso   1.00
H844   H     0.98383   0.08966   0.98439   0.00000  Uiso   1.00
H845   H     0.90257   0.01279   0.75371   0.00000  Uiso   1.00
N846   N     0.98241   0.18074   0.76416   0.00000  Uiso   1.00
N847   N     0.68426   0.15259   0.73584   0.00000  Uiso   1.00
O848   O     0.79464   0.23807   0.74633   0.00000  Uiso   1.00
O849   O     0.89524   0.24755   0.75586   0.00000  Uiso   1.00
O850   O     0.75848   0.15960   0.81839   0.00000  Uiso   1.00
O851   O     0.85908   0.16908   0.82793   0.00000  Uiso   1.00
O852   O     0.77142   0.08578   0.74413   0.00000  Uiso   1.00
O853   O     0.87203   0.09526   0.75367   0.00000  Uiso   1.00
O854   O     0.80758   0.16425   0.67207   0.00000  Uiso   1.00
O855   O     0.90819   0.17373   0.68160   0.00000  Uiso   1.00
O856   O     0.99558   0.19552   0.59910   0.00000  Uiso   1.00
C857   C     0.69493   0.24759   0.60529   0.00000  Uiso   1.00
H858   H     0.71707   0.24751   0.63879   0.00000  Uiso   1.00
H859   H     0.99694   0.27531   0.61526   0.00000  Uiso   1.00
C860   C     0.74534   0.26649   0.55828   0.00000  Uiso   1.00
H861   H     0.76086   0.23245   0.53751   0.00000  Uiso   1.00
H862   H     0.72623   0.28737   0.53230   0.00000  Uiso   1.00
C863   C     0.80217   0.30300   0.57273   0.00000  Uiso   1.00
H864   H     0.78941   0.00413   0.59475   0.00000  Uiso   1.00
H865   H     0.83695   0.31688   0.53794   0.00000  Uiso   1.00
H866   H     0.82286   0.28072   0.59616   0.00000  Uiso   1.00
O867   O     0.71676   0.11662   0.55620   0.00000  Uiso   1.00
C868   C     0.68633   0.06485   0.57128   0.00000  Uiso   1.00
H869   H     0.71282   0.05203   0.59719   0.00000  Uiso   1.00
H870   H     0.68371   0.03533   0.53967   0.00000  Uiso   1.00
C871   C     0.95439   0.06583   0.60076   0.00000  Uiso   1.00
H872   H     0.95707   0.09802   0.62950   0.00000  Uiso   1.00
H873   H     0.92509   0.07305   0.57421   0.00000  Uiso   1.00
C874   C     0.92413   0.01469   0.62847   0.00000  Uiso   1.00
H875   H     0.92289   0.31472   0.60098   0.00000  Uiso   1.00
H876   H     0.87598   0.01619   0.64736   0.00000  Uiso   1.00
H877   H     0.95039   0.00906   0.65791   0.00000  Uiso   1.00
O878   O     0.90776   0.11175   0.87349   0.00000  Uiso   1.00
C879   C     0.87427   0.05891   0.88272   0.00000  Uiso   1.00
H880   H     0.83838   0.04952   0.85856   0.00000  Uiso   1.00
H881   H     0.85043   0.05129   0.92319   0.00000  Uiso   1.00
C882   C     0.91838   0.02110   0.86942   0.00000  Uiso   1.00
H883   H     0.94265   0.02616   0.82914   0.00000  Uiso   1.00
H884   H     0.95379   0.02984   0.89387   0.00000  Uiso   1.00
C885   C     0.88349   0.29734   0.87846   0.00000  Uiso   1.00
H886   H     0.86401   0.29079   0.91961   0.00000  Uiso   1.00
H887   H     0.91598   0.27074   0.86563   0.00000  Uiso   1.00
H888   H     0.84486   0.28734   0.85714   0.00000  Uiso   1.00
C889   C     0.18169   0.59993   0.75129   0.00000  Uiso   1.00
C890   C     0.13771   0.47753   0.98565   0.00000  Uiso   1.00
C891   C     0.15788   0.47730   0.93214   0.00000  Uiso   1.00
C892   C     0.18429   0.49726   0.51597   0.00000  Uiso   1.00
C893   C     0.24759   0.51303   0.99163   0.00000  Uiso   1.00
C894   C     0.26491   0.50537   0.93964   0.00000  Uiso   1.00
C895   C     0.22134   0.47810   0.91287   0.00000  Uiso   1.00
C896   C     0.17141   0.50202   0.56905   0.00000  Uiso   1.00
C897   C     0.28128   0.52718   0.57293   0.00000  Uiso   1.00
C898   C     0.11430   0.47244   0.89967   0.00000  Uiso   1.00
C899   C     0.19000   0.65583   0.75190   0.00000  Uiso   1.00
C900   C     0.13327   0.48987   0.84600   0.00000  Uiso   1.00
C901   C     0.14261   0.34407   0.74921   0.00000  Uiso   1.00
C902   C     0.15152   0.40004   0.74887   0.00000  Uiso   1.00
C903   C     0.20012   0.50557   0.65318   0.00000  Uiso   1.00
C904   C     0.29456   0.52966   0.51989   0.00000  Uiso   1.00
C905   C     0.21882   0.51191   0.59766   0.00000  Uiso   1.00
C906   C     0.05240   0.45037   0.91902   0.00000  Uiso   1.00
C907   C     0.03263   0.43954   0.97048   0.00000  Uiso   1.00
C908   C     0.07376   0.45410   0.50467   0.00000  Uiso   1.00
Cu909  Cu    0.10710   0.49439   0.74435   0.00000  Uiso   1.00
Cu910  Cu    0.22623   0.50561   0.75564   0.00000  Uiso   1.00
H911   H     0.09678   0.65384   0.74682   0.00000  Uiso   1.00
H912   H     0.00380   0.53931   0.78929   0.00000  Uiso   1.00
H913   H     0.32947   0.46058   0.71084   0.00000  Uiso   1.00
H914   H     0.31324   0.51468   0.92122   0.00000  Uiso   1.00
H915   H     0.00904   0.53872   0.50011   0.00000  Uiso   1.00
H916   H     0.12485   0.49820   0.58953   0.00000  Uiso   1.00
H917   H     0.01921   0.44213   0.89410   0.00000  Uiso   1.00
H918   H     0.31716   0.42299   0.98439   0.00000  Uiso   1.00
H919   H     0.23590   0.34612   0.75371   0.00000  Uiso   1.00
N920   N     0.31574   0.51407   0.76416   0.00000  Uiso   1.00
N921   N     0.01759   0.48593   0.73584   0.00000  Uiso   1.00
O922   O     0.12797   0.57141   0.74633   0.00000  Uiso   1.00
O923   O     0.22858   0.58089   0.75586   0.00000  Uiso   1.00
O924   O     0.09181   0.49293   0.81839   0.00000  Uiso   1.00
O925   O     0.19242   0.50241   0.82793   0.00000  Uiso   1.00
O926   O     0.10476   0.41911   0.74413   0.00000  Uiso   1.00
O927   O     0.20536   0.42859   0.75367   0.00000  Uiso   1.00
O928   O     0.14092   0.49759   0.67207   0.00000  Uiso   1.00
O929   O     0.24152   0.50707   0.68160   0.00000  Uiso   1.00
O930   O     0.32892   0.52886   0.59910   0.00000  Uiso   1.00
C931   C     0.02827   0.58093   0.60529   0.00000  Uiso   1.00
H932   H     0.05041   0.58084   0.63879   0.00000  Uiso   1.00
H933   H     0.33027   0.60864   0.61526   0.00000  Uiso   1.00
C934   C     0.07867   0.59983   0.55828   0.00000  Uiso   1.00
H935   H     0.09419   0.56578   0.53751   0.00000  Uiso   1.00
H936   H     0.05956   0.62070   0.53230   0.00000  Uiso   1.00
C937   C     0.13551   0.63633   0.57273   0.00000  Uiso   1.00
H938   H     0.12274   0.33746   0.59475   0.00000  Uiso   1.00
H939   H     0.17028   0.65021   0.53794   0.00000  Uiso   1.00
H940   H     0.15620   0.61405   0.59616   0.00000  Uiso   1.00
O941   O     0.05009   0.44996   0.55620   0.00000  Uiso   1.00
C942   C     0.01967   0.39818   0.57128   0.00000  Uiso   1.00
H943   H     0.04615   0.38536   0.59719   0.00000  Uiso   1.00
H944   H     0.01704   0.36866   0.53967   0.00000  Uiso   1.00
C945   C     0.28772   0.39917   0.60076   0.00000  Uiso   1.00
H946   H     0.29040   0.43135   0.62950   0.00000  Uiso   1.00
H947   H     0.25842   0.40638   0.57421   0.00000  Uiso   1.00
C948   C     0.25747   0.34803   0.62847   0.00000  Uiso   1.00
H949   H     0.25622   0.64806   0.60098   0.00000  Uiso   1.00
H950   H     0.20932   0.34952   0.64736   0.00000  Uiso   1.00
H951   H     0.28372   0.34239   0.65791   0.00000  Uiso   1.00
O952   O     0.24109   0.44509   0.87349   0.00000  Uiso   1.00
C953   C     0.20760   0.39224   0.88272   0.00000  Uiso   1.00
H954   H     0.17171   0.38285   0.85856   0.00000  Uiso   1.00
H955   H     0.18376   0.38463   0.92319   0.00000  Uiso   1.00
C956   C     0.25171   0.35443   0.86942   0.00000  Uiso   1.00
H957   H     0.27598   0.35949   0.82914   0.00000  Uiso   1.00
H958   H     0.28712   0.36318   0.89387   0.00000  Uiso   1.00
C959   C     0.21682   0.63067   0.87846   0.00000  Uiso   1.00
H960   H     0.19735   0.62413   0.91961   0.00000  Uiso   1.00
H961   H     0.24932   0.60407   0.86563   0.00000  Uiso   1.00
H962   H     0.17820   0.62067   0.85714   0.00000  Uiso   1.00
C963   C     0.51502   0.59993   0.75129   0.00000  Uiso   1.00
C964   C     0.47104   0.47753   0.98565   0.00000  Uiso   1.00
C965   C     0.49122   0.47730   0.93214   0.00000  Uiso   1.00
C966   C     0.51763   0.49726   0.51597   0.00000  Uiso   1.00
C967   C     0.58092   0.51303   0.99163   0.00000  Uiso   1.00
C968   C     0.59824   0.50537   0.93964   0.00000  Uiso   1.00
C969   C     0.55467   0.47810   0.91287   0.00000  Uiso   1.00
C970   C     0.50475   0.50202   0.56905   0.00000  Uiso   1.00
C971   C     0.61461   0.52718   0.57293   0.00000  Uiso   1.00
C972   C     0.44763   0.47244   0.89967   0.00000  Uiso   1.00
C973   C     0.52333   0.65583   0.75190   0.00000  Uiso   1.00
C974   C     0.46661   0.48987   0.84600   0.00000  Uiso   1.00
C975   C     0.47594   0.34407   0.74921   0.00000  Uiso   1.00
C976   C     0.48485   0.40004   0.74887   0.00000  Uiso   1.00
C977   C     0.53346   0.50557   0.65318   0.00000  Uiso   1.00
C978   C     0.62789   0.52966   0.51989   0.00000  Uiso   1.00
C979   C     0.55216   0.51191   0.59766   0.00000  Uiso   1.00
C980   C     0.38574   0.45037   0.91902   0.00000  Uiso   1.00
C981   C     0.36597   0.43954   0.97048   0.00000  Uiso   1.00
C982   C     0.40709   0.45410   0.50467   0.00000  Uiso   1.00
Cu983  Cu    0.44043   0.49439   0.74435   0.00000  Uiso   1.00
Cu984  Cu    0.55957   0.50561   0.75564   0.00000  Uiso   1.00
H985   H     0.43011   0.65384   0.74682   0.00000  Uiso   1.00
H986   H     0.33713   0.53931   0.78929   0.00000  Uiso   1.00
H987   H     0.66280   0.46058   0.71084   0.00000  Uiso   1.00
H988   H     0.64657   0.51468   0.92122   0.00000  Uiso   1.00
H989   H     0.34237   0.53872   0.50011   0.00000  Uiso   1.00
H990   H     0.45818   0.49820   0.58953   0.00000  Uiso   1.00
H991   H     0.35254   0.44213   0.89410   0.00000  Uiso   1.00
H992   H     0.65050   0.42299   0.98439   0.00000  Uiso   1.00
H993   H     0.56923   0.34612   0.75371   0.00000  Uiso   1.00
N994   N     0.64908   0.51407   0.76416   0.00000  Uiso   1.00
N995   N     0.35092   0.48593   0.73584   0.00000  Uiso   1.00
O996   O     0.46131   0.57141   0.74633   0.00000  Uiso   1.00
O997   O     0.56191   0.58089   0.75586   0.00000  Uiso   1.00
O998   O     0.42515   0.49293   0.81839   0.00000  Uiso   1.00
O999   O     0.52575   0.50241   0.82793   0.00000  Uiso   1.00
O1000  O     0.43809   0.41911   0.74413   0.00000  Uiso   1.00
O1001  O     0.53869   0.42859   0.75367   0.00000  Uiso   1.00
O1002  O     0.47425   0.49759   0.67207   0.00000  Uiso   1.00
O1003  O     0.57485   0.50707   0.68160   0.00000  Uiso   1.00
O1004  O     0.66225   0.52886   0.59910   0.00000  Uiso   1.00
C1005  C     0.36160   0.58093   0.60529   0.00000  Uiso   1.00
H1006  H     0.38374   0.58084   0.63879   0.00000  Uiso   1.00
H1007  H     0.66360   0.60864   0.61526   0.00000  Uiso   1.00
C1008  C     0.41201   0.59983   0.55828   0.00000  Uiso   1.00
H1009  H     0.42752   0.56578   0.53751   0.00000  Uiso   1.00
H1010  H     0.39289   0.62070   0.53230   0.00000  Uiso   1.00
C1011  C     0.46884   0.63633   0.57273   0.00000  Uiso   1.00
H1012  H     0.45608   0.33746   0.59475   0.00000  Uiso   1.00
H1013  H     0.50362   0.65021   0.53794   0.00000  Uiso   1.00
H1014  H     0.48953   0.61405   0.59616   0.00000  Uiso   1.00
O1015  O     0.38342   0.44996   0.55620   0.00000  Uiso   1.00
C1016  C     0.35300   0.39818   0.57128   0.00000  Uiso   1.00
H1017  H     0.37949   0.38536   0.59719   0.00000  Uiso   1.00
H1018  H     0.35038   0.36866   0.53967   0.00000  Uiso   1.00
C1019  C     0.62106   0.39917   0.60076   0.00000  Uiso   1.00
H1020  H     0.62374   0.43135   0.62950   0.00000  Uiso   1.00
H1021  H     0.59176   0.40638   0.57421   0.00000  Uiso   1.00
C1022  C     0.59080   0.34803   0.62847   0.00000  Uiso   1.00
H1023  H     0.58955   0.64806   0.60098   0.00000  Uiso   1.00
H1024  H     0.54265   0.34952   0.64736   0.00000  Uiso   1.00
H1025  H     0.61706   0.34239   0.65791   0.00000  Uiso   1.00
O1026  O     0.57442   0.44509   0.87349   0.00000  Uiso   1.00
C1027  C     0.54094   0.39224   0.88272   0.00000  Uiso   1.00
H1028  H     0.50505   0.38285   0.85856   0.00000  Uiso   1.00
H1029  H     0.51709   0.38463   0.92319   0.00000  Uiso   1.00
C1030  C     0.58504   0.35443   0.86942   0.00000  Uiso   1.00
H1031  H     0.60932   0.35949   0.82914   0.00000  Uiso   1.00
H1032  H     0.62046   0.36318   0.89387   0.00000  Uiso   1.00
C1033  C     0.55016   0.63067   0.87846   0.00000  Uiso   1.00
H1034  H     0.53068   0.62413   0.91961   0.00000  Uiso   1.00
H1035  H     0.58265   0.60407   0.86563   0.00000  Uiso   1.00
H1036  H     0.51153   0.62067   0.85714   0.00000  Uiso   1.00
C1037  C     0.84835   0.59993   0.75129   0.00000  Uiso   1.00
C1038  C     0.80438   0.47753   0.98565   0.00000  Uiso   1.00
C1039  C     0.82455   0.47730   0.93214   0.00000  Uiso   1.00
C1040  C     0.85096   0.49726   0.51597   0.00000  Uiso   1.00
C1041  C     0.91426   0.51303   0.99163   0.00000  Uiso   1.00
C1042  C     0.93158   0.50537   0.93964   0.00000  Uiso   1.00
C1043  C     0.88800   0.47810   0.91287   0.00000  Uiso   1.00
C1044  C     0.83808   0.50202   0.56905   0.00000  Uiso   1.00
C1045  C     0.94794   0.52718   0.57293   0.00000  Uiso   1.00
C1046  C     0.78096   0.47244   0.89967   0.00000  Uiso   1.00
C1047  C     0.85666   0.65583   0.75190   0.00000  Uiso   1.00
C1048  C     0.79994   0.48987   0.84600   0.00000  Uiso   1.00
C1049  C     0.80928   0.34407   0.74921   0.00000  Uiso   1.00
C1050  C     0.81819   0.40004   0.74887   0.00000  Uiso   1.00
C1051  C     0.86679   0.50557   0.65318   0.00000  Uiso   1.00
C1052  C     0.96122   0.52966   0.51989   0.00000  Uiso   1.00
C1053  C     0.88549   0.51191   0.59766   0.00000  Uiso   1.00
C1054  C     0.71907   0.45037   0.91902   0.00000  Uiso   1.00
C1055  C     0.69930   0.43954   0.97048   0.00000  Uiso   1.00
C1056  C     0.74043   0.45410   0.50467   0.00000  Uiso   1.00
Cu1057 Cu    0.77377   0.49439   0.74435   0.00000  Uiso   1.00
Cu1058 Cu    0.89290   0.50561   0.75564   0.00000  Uiso   1.00
H1059  H     0.76345   0.65384   0.74682   0.00000  Uiso   1.00
H1060  H     0.67047   0.53931   0.78929   0.00000  Uiso   1.00
H1061  H     0.99614   0.46058   0.71084   0.00000  Uiso   1.00
H1062  H     0.97990   0.51468   0.92122   0.00000  Uiso   1.00
H1063  H     0.67571   0.53872   0.50011   0.00000  Uiso   1.00
H1064  H     0.79152   0.49820   0.58953   0.00000  Uiso   1.00
H1065  H     0.68588   0.44213   0.89410   0.00000  Uiso   1.00
H1066  H     0.98383   0.42299   0.98439   0.00000  Uiso   1.00
H1067  H     0.90257   0.34612   0.75371   0.00000  Uiso   1.00
N1068  N     0.98241   0.51407   0.76416   0.00000  Uiso   1.00
N1069  N     0.68426   0.48593   0.73584   0.00000  Uiso   1.00
O1070  O     0.79464   0.57141   0.74633   0.00000  Uiso   1.00
O1071  O     0.89524   0.58089   0.75586   0.00000  Uiso   1.00
O1072  O     0.75848   0.49293   0.81839   0.00000  Uiso   1.00
O1073  O     0.85908   0.50241   0.82793   0.00000  Uiso   1.00
O1074  O     0.77142   0.41911   0.74413   0.00000  Uiso   1.00
O1075  O     0.87203   0.42859   0.75367   0.00000  Uiso   1.00
O1076  O     0.80758   0.49759   0.67207   0.00000  Uiso   1.00
O1077  O     0.90819   0.50707   0.68160   0.00000  Uiso   1.00
O1078  O     0.99558   0.52886   0.59910   0.00000  Uiso   1.00
C1079  C     0.69493   0.58093   0.60529   0.00000  Uiso   1.00
H1080  H     0.71707   0.58084   0.63879   0.00000  Uiso   1.00
H1081  H     0.99694   0.60864   0.61526   0.00000  Uiso   1.00
C1082  C     0.74534   0.59983   0.55828   0.00000  Uiso   1.00
H1083  H     0.76086   0.56578   0.53751   0.00000  Uiso   1.00
H1084  H     0.72623   0.62070   0.53230   0.00000  Uiso   1.00
C1085  C     0.80217   0.63633   0.57273   0.00000  Uiso   1.00
H1086  H     0.78941   0.33746   0.59475   0.00000  Uiso   1.00
H1087  H     0.83695   0.65021   0.53794   0.00000  Uiso   1.00
H1088  H     0.82286   0.61405   0.59616   0.00000  Uiso   1.00
O1089  O     0.71676   0.44996   0.55620   0.00000  Uiso   1.00
C1090  C     0.68633   0.39818   0.57128   0.00000  Uiso   1.00
H1091  H     0.71282   0.38536   0.59719   0.00000  Uiso   1.00
H1092  H     0.68371   0.36866   0.53967   0.00000  Uiso   1.00
C1093  C     0.95439   0.39917   0.60076   0.00000  Uiso   1.00
H1094  H     0.95707   0.43135   0.62950   0.00000  Uiso   1.00
H1095  H     0.92509   0.40638   0.57421   0.00000  Uiso   1.00
C1096  C     0.92413   0.34803   0.62847   0.00000  Uiso   1.00
H1097  H     0.92289   0.64806   0.60098   0.00000  Uiso   1.00
H1098  H     0.87598   0.34952   0.64736   0.00000  Uiso   1.00
H1099  H     0.95039   0.34239   0.65791   0.00000  Uiso   1.00
O1100  O     0.90776   0.44509   0.87349   0.00000  Uiso   1.00
C1101  C     0.87427   0.39224   0.88272   0.00000  Uiso   1.00
H1102  H     0.83838   0.38285   0.85856   0.00000  Uiso   1.00
H1103  H     0.85043   0.38463   0.92319   0.00000  Uiso   1.00
C1104  C     0.91838   0.35443   0.86942   0.00000  Uiso   1.00
H1105  H     0.94265   0.35949   0.82914   0.00000  Uiso   1.00
H1106  H     0.95379   0.36318   0.89387   0.00000  Uiso   1.00
C1107  C     0.88349   0.63067   0.87846   0.00000  Uiso   1.00
H1108  H     0.86401   0.62413   0.91961   0.00000  Uiso   1.00
H1109  H     0.91598   0.60407   0.86563   0.00000  Uiso   1.00
H1110  H     0.84486   0.62067   0.85714   0.00000  Uiso   1.00
C1111  C     0.18169   0.93327   0.75129   0.00000  Uiso   1.00
C1112  C     0.13771   0.81086   0.98565   0.00000  Uiso   1.00
C1113  C     0.15788   0.81063   0.93214   0.00000  Uiso   1.00
C1114  C     0.18429   0.83059   0.51597   0.00000  Uiso   1.00
C1115  C     0.24759   0.84636   0.99163   0.00000  Uiso   1.00
C1116  C     0.26491   0.83871   0.93964   0.00000  Uiso   1.00
C1117  C     0.22134   0.81143   0.91287   0.00000  Uiso   1.00
C1118  C     0.17141   0.83536   0.56905   0.00000  Uiso   1.00
C1119  C     0.28128   0.86051   0.57293   0.00000  Uiso   1.00
C1120  C     0.11430   0.80577   0.89967   0.00000  Uiso   1.00
C1121  C     0.19000   0.98917   0.75190   0.00000  Uiso   1.00
C1122  C     0.13327   0.82320   0.84600   0.00000  Uiso   1.00
C1123  C     0.14261   0.67741   0.74921   0.00000  Uiso   1.00
C1124  C     0.15152   0.73337   0.74887   0.00000  Uiso   1.00
C1125  C     0.20012   0.83890   0.65318   0.00000  Uiso   1.00
C1126  C     0.29456   0.86299   0.51989   0.00000  Uiso   1.00
C1127  C     0.21882   0.84525   0.59766   0.00000  Uiso   1.00
C1128  C     0.05240   0.78370   0.91902   0.00000  Uiso   1.00
C1129  C     0.03263   0.77288   0.97048   0.00000  Uiso   1.00
C1130  C     0.07376   0.78743   0.50467   0.00000  Uiso   1.00
Cu1131 Cu    0.10710   0.82772   0.74435   0.00000  Uiso   1.00
Cu1132 Cu    0.22623   0.83895   0.75564   0.00000  Uiso   1.00
H1133  H     0.09678   0.98718   0.74682   0.00000  Uiso   1.00
H1134  H     0.00380   0.87264   0.78929   0.00000  Uiso   1.00
H1135  H     0.32947   0.79392   0.71084   0.00000  Uiso   1.00
H1136  H     0.31324   0.84801   0.92122   0.00000  Uiso   1.00
H1137  H     0.00904   0.87205   0.50011   0.00000  Uiso   1.00
H1138  H     0.12485   0.83154   0.58953   0.00000  Uiso   1.00
H1139  H     0.01921   0.77546   0.89410   0.00000  Uiso   1.00
H1140  H     0.31716   0.75633   0.98439   0.00000  Uiso   1.00
H1141  H     0.23590   0.67945   0.75371   0.00000  Uiso   1.00
N1142  N     0.31574   0.84741   0.76416   0.00000  Uiso   1.00
N1143  N     0.01759   0.81926   0.73584   0.00000  Uiso   1.00
O1144  O     0.12797   0.90474   0.74633   0.00000  Uiso   1.00
O1145  O     0.22858   0.91422   0.75586   0.00000  Uiso   1.00
O1146  O     0.09181   0.82627   0.81839   0.00000  Uiso   1.00
O1147  O     0.19242   0.83575   0.82793   0.00000  Uiso   1.00
O1148  O     0.10476   0.75245   0.74413   0.00000  Uiso   1.00
O1149  O     0.20536   0.76193   0.75367   0.00000  Uiso   1.00
O1150  O     0.14092   0.83092   0.67207   0.00000  Uiso   1.00
O1151  O     0.24152   0.84040   0.68160   0.00000  Uiso   1.00
O1152  O     0.32892   0.86219   0.59910   0.00000  Uiso   1.00
C1153  C     0.02827   0.91426   0.60529   0.00000  Uiso   1.00
H1154  H     0.05041   0.91418   0.63879   0.00000  Uiso   1.00
H1155  H     0.33027   0.94197   0.61526   0.00000  Uiso   1.00
C1156  C     0.07867   0.93316   0.55828   0.00000  Uiso   1.00
H1157  H     0.09419   0.89911   0.53751   0.00000  Uiso   1.00
H1158  H     0.05956   0.95403   0.53230   0.00000  Uiso   1.00
C1159  C     0.13551   0.96966   0.57273   0.00000  Uiso   1.00
H1160  H     0.12274   0.67079   0.59475   0.00000  Uiso   1.00
H1161  H     0.17028   0.98354   0.53794   0.00000  Uiso   1.00
H1162  H     0.15620   0.94739   0.59616   0.00000  Uiso   1.00
O1163  O     0.05009   0.78329   0.55620   0.00000  Uiso   1.00
C1164  C     0.01967   0.73152   0.57128   0.00000  Uiso   1.00
H1165  H     0.04615   0.71869   0.59719   0.00000  Uiso   1.00
H1166  H     0.01704   0.70200   0.53967   0.00000  Uiso   1.00
C1167  C     0.28772   0.73250   0.60076   0.00000  Uiso   1.00
H1168  H     0.29040   0.76469   0.62950   0.00000  Uiso   1.00
H1169  H     0.25842   0.73972   0.57421   0.00000  Uiso   1.00
C1170  C     0.25747   0.68136   0.62847   0.00000  Uiso   1.00
H1171  H     0.25622   0.98139   0.60098   0.00000  Uiso   1.00
H1172  H     0.20932   0.68286   0.64736   0.00000  Uiso   1.00
H1173  H     0.28372   0.67572   0.65791   0.00000  Uiso   1.00
O1174  O     0.24109   0.77842   0.87349   0.00000  Uiso   1.00
C1175  C     0.20760   0.72558   0.88272   0.00000  Uiso   1.00
H1176  H     0.17171   0.71618   0.85856   0.00000  Uiso   1.00
H1177  H     0.18376   0.71796   0.92319   0.00000  Uiso   1.00
C1178  C     0.25171   0.68776   0.86942   0.00000  Uiso   1.00
H1179  H     0.27598   0.69282   0.82914   0.00000  Uiso   1.00
H1180  H     0.28712   0.69651   0.89387   0.00000  Uiso   1.00
C1181  C     0.21682   0.96400   0.87846   0.00000  Uiso   1.00
H1182  H     0.19735   0.95746   0.91961   0.00000  Uiso   1.00
H1183  H     0.24932   0.93741   0.86563   0.00000  Uiso   1.00
H1184  H     0.17820   0.95401   0.85714   0.00000  Uiso   1.00
C1185  C     0.51502   0.93327   0.75129   0.00000  Uiso   1.00
C1186  C     0.47104   0.81086   0.98565   0.00000  Uiso   1.00
C1187  C     0.49122   0.81063   0.93214   0.00000  Uiso   1.00
C1188  C     0.51763   0.83059   0.51597   0.00000  Uiso   1.00
C1189  C     0.58092   0.84636   0.99163   0.00000  Uiso   1.00
C1190  C     0.59824   0.83871   0.93964   0.00000  Uiso   1.00
C1191  C     0.55467   0.81143   0.91287   0.00000  Uiso   1.00
C1192  C     0.50475   0.83536   0.56905   0.00000  Uiso   1.00
C1193  C     0.61461   0.86051   0.57293   0.00000  Uiso   1.00
C1194  C     0.44763   0.80577   0.89967   0.00000  Uiso   1.00
C1195  C     0.52333   0.98917   0.75190   0.00000  Uiso   1.00
C1196  C     0.46661   0.82320   0.84600   0.00000  Uiso   1.00
C1197  C     0.47594   0.67741   0.74921   0.00000  Uiso   1.00
C1198  C     0.48485   0.73337   0.74887   0.00000  Uiso   1.00
C1199  C     0.53346   0.83890   0.65318   0.00000  Uiso   1.00
C1200  C     0.62789   0.86299   0.51989   0.00000  Uiso   1.00
C1201  C     0.55216   0.84525   0.59766   0.00000  Uiso   1.00
C1202  C     0.38574   0.78370   0.91902   0.00000  Uiso   1.00
C1203  C     0.36597   0.77288   0.97048   0.00000  Uiso   1.00
C1204  C     0.40709   0.78743   0.50467   0.00000  Uiso   1.00
Cu1205 Cu    0.44043   0.82772   0.74435   0.00000  Uiso   1.00
Cu1206 Cu    0.55957   0.83895   0.75564   0.00000  Uiso   1.00
H1207  H     0.43011   0.98718   0.74682   0.00000  Uiso   1.00
H1208  H     0.33713   0.87264   0.78929   0.00000  Uiso   1.00
H1209  H     0.66280   0.79392   0.71084   0.00000  Uiso   1.00
H1210  H     0.64657   0.84801   0.92122   0.00000  Uiso   1.00
H1211  H     0.34237   0.87205   0.50011   0.00000  Uiso   1.00
H1212  H     0.45818   0.83154   0.58953   0.00000  Uiso   1.00
H1213  H     0.35254   0.77546   0.89410   0.00000  Uiso   1.00
H1214  H     0.65050   0.75633   0.98439   0.00000  Uiso   1.00
H1215  H     0.56923   0.67945   0.75371   0.00000  Uiso   1.00
N1216  N     0.64908   0.84741   0.76416   0.00000  Uiso   1.00
N1217  N     0.35092   0.81926   0.73584   0.00000  Uiso   1.00
O1218  O     0.46131   0.90474   0.74633   0.00000  Uiso   1.00
O1219  O     0.56191   0.91422   0.75586   0.00000  Uiso   1.00
O1220  O     0.42515   0.82627   0.81839   0.00000  Uiso   1.00
O1221  O     0.52575   0.83575   0.82793   0.00000  Uiso   1.00
O1222  O     0.43809   0.75245   0.74413   0.00000  Uiso   1.00
O1223  O     0.53869   0.76193   0.75367   0.00000  Uiso   1.00
O1224  O     0.47425   0.83092   0.67207   0.00000  Uiso   1.00
O1225  O     0.57485   0.84040   0.68160   0.00000  Uiso   1.00
O1226  O     0.66225   0.86219   0.59910   0.00000  Uiso   1.00
C1227  C     0.36160   0.91426   0.60529   0.00000  Uiso   1.00
H1228  H     0.38374   0.91418   0.63879   0.00000  Uiso   1.00
H1229  H     0.66360   0.94197   0.61526   0.00000  Uiso   1.00
C1230  C     0.41201   0.93316   0.55828   0.00000  Uiso   1.00
H1231  H     0.42752   0.89911   0.53751   0.00000  Uiso   1.00
H1232  H     0.39289   0.95403   0.53230   0.00000  Uiso   1.00
C1233  C     0.46884   0.96966   0.57273   0.00000  Uiso   1.00
H1234  H     0.45608   0.67079   0.59475   0.00000  Uiso   1.00
H1235  H     0.50362   0.98354   0.53794   0.00000  Uiso   1.00
H1236  H     0.48953   0.94739   0.59616   0.00000  Uiso   1.00
O1237  O     0.38342   0.78329   0.55620   0.00000  Uiso   1.00
C1238  C     0.35300   0.73152   0.57128   0.00000  Uiso   1.00
H1239  H     0.37949   0.71869   0.59719   0.00000  Uiso   1.00
H1240  H     0.35038   0.70200   0.53967   0.00000  Uiso   1.00
C1241  C     0.62106   0.73250   0.60076   0.00000  Uiso   1.00
H1242  H     0.62374   0.76469   0.62950   0.00000  Uiso   1.00
H1243  H     0.59176   0.73972   0.57421   0.00000  Uiso   1.00
C1244  C     0.59080   0.68136   0.62847   0.00000  Uiso   1.00
H1245  H     0.58955   0.98139   0.60098   0.00000  Uiso   1.00
H1246  H     0.54265   0.68286   0.64736   0.00000  Uiso   1.00
H1247  H     0.61706   0.67572   0.65791   0.00000  Uiso   1.00
O1248  O     0.57442   0.77842   0.87349   0.00000  Uiso   1.00
C1249  C     0.54094   0.72558   0.88272   0.00000  Uiso   1.00
H1250  H     0.50505   0.71618   0.85856   0.00000  Uiso   1.00
H1251  H     0.51709   0.71796   0.92319   0.00000  Uiso   1.00
C1252  C     0.58504   0.68776   0.86942   0.00000  Uiso   1.00
H1253  H     0.60932   0.69282   0.82914   0.00000  Uiso   1.00
H1254  H     0.62046   0.69651   0.89387   0.00000  Uiso   1.00
C1255  C     0.55016   0.96400   0.87846   0.00000  Uiso   1.00
H1256  H     0.53068   0.95746   0.91961   0.00000  Uiso   1.00
H1257  H     0.58265   0.93741   0.86563   0.00000  Uiso   1.00
H1258  H     0.51153   0.95401   0.85714   0.00000  Uiso   1.00
C1259  C     0.84835   0.93327   0.75129   0.00000  Uiso   1.00
C1260  C     0.80438   0.81086   0.98565   0.00000  Uiso   1.00
C1261  C     0.82455   0.81063   0.93214   0.00000  Uiso   1.00
C1262  C     0.85096   0.83059   0.51597   0.00000  Uiso   1.00
C1263  C     0.91426   0.84636   0.99163   0.00000  Uiso   1.00
C1264  C     0.93158   0.83871   0.93964   0.00000  Uiso   1.00
C1265  C     0.88800   0.81143   0.91287   0.00000  Uiso   1.00
C1266  C     0.83808   0.83536   0.56905   0.00000  Uiso   1.00
C1267  C     0.94794   0.86051   0.57293   0.00000  Uiso   1.00
C1268  C     0.78096   0.80577   0.89967   0.00000  Uiso   1.00
C1269  C     0.85666   0.98917   0.75190   0.00000  Uiso   1.00
C1270  C     0.79994   0.82320   0.84600   0.00000  Uiso   1.00
C1271  C     0.80928   0.67741   0.74921   0.00000  Uiso   1.00
C1272  C     0.81819   0.73337   0.74887   0.00000  Uiso   1.00
C1273  C     0.86679   0.83890   0.65318   0.00000  Uiso   1.00
C1274  C     0.96122   0.86299   0.51989   0.00000  Uiso   1.00
C1275  C     0.88549   0.84525   0.59766   0.00000  Uiso   1.00
C1276  C     0.71907   0.78370   0.91902   0.00000  Uiso   1.00
C1277  C     0.69930   0.77288   0.97048   0.00000  Uiso   1.00
C1278  C     0.74043   0.78743   0.50467   0.00000  Uiso   1.00
Cu1279 Cu    0.77377   0.82772   0.74435   0.00000  Uiso   1.00
Cu1280 Cu    0.89290   0.83895   0.75564   0.00000  Uiso   1.00
H1281  H     0.76345   0.98718   0.74682   0.00000  Uiso   1.00
H1282  H     0.67047   0.87264   0.78929   0.00000  Uiso   1.00
H1283  H     0.99614   0.79392   0.71084   0.00000  Uiso   1.00
H1284  H     0.97990   0.84801   0.92122   0.00000  Uiso   1.00
H1285  H     0.67571   0.87205   0.50011   0.00000  Uiso   1.00
H1286  H     0.79152   0.83154   0.58953   0.00000  Uiso   1.00
H1287  H     0.68588   0.77546   0.89410   0.00000  Uiso   1.00
H1288  H     0.98383   0.75633   0.98439   0.00000  Uiso   1.00
H1289  H     0.90257   0.67945   0.75371   0.00000  Uiso   1.00
N1290  N     0.98241   0.84741   0.76416   0.00000  Uiso   1.00
N1291  N     0.68426   0.81926   0.73584   0.00000  Uiso   1.00
O1292  O     0.79464   0.90474   0.74633   0.00000  Uiso   1.00
O1293  O     0.89524   0.91422   0.75586   0.00000  Uiso   1.00
O1294  O     0.75848   0.82627   0.81839   0.00000  Uiso   1.00
O1295  O     0.85908   0.83575   0.82793   0.00000  Uiso   1.00
O1296  O     0.77142   0.75245   0.74413   0.00000  Uiso   1.00
O1297  O     0.87203   0.76193   0.75367   0.00000  Uiso   1.00
O1298  O     0.80758   0.83092   0.67207   0.00000  Uiso   1.00
O1299  O     0.90819   0.84040   0.68160   0.00000  Uiso   1.00
O1300  O     0.99558   0.86219   0.59910   0.00000  Uiso   1.00
C1301  C     0.69493   0.91426   0.60529   0.00000  Uiso   1.00
H1302  H     0.71707   0.91418   0.63879   0.00000  Uiso   1.00
H1303  H     0.99694   0.94197   0.61526   0.00000  Uiso   1.00
C1304  C     0.74534   0.93316   0.55828   0.00000  Uiso   1.00
H1305  H     0.76086   0.89911   0.53751   0.00000  Uiso   1.00
H1306  H     0.72623   0.95403   0.53230   0.00000  Uiso   1.00
C1307  C     0.80217   0.96966   0.57273   0.00000  Uiso   1.00
H1308  H     0.78941   0.67079   0.59475   0.00000  Uiso   1.00
H1309  H     0.83695   0.98354   0.53794   0.00000  Uiso   1.00
H1310  H     0.82286   0.94739   0.59616   0.00000  Uiso   1.00
O1311  O     0.71676   0.78329   0.55620   0.00000  Uiso   1.00
C1312  C     0.68633   0.73152   0.57128   0.00000  Uiso   1.00
H1313  H     0.71282   0.71869   0.59719   0.00000  Uiso   1.00
H1314  H     0.68371   0.70200   0.53967   0.00000  Uiso   1.00
C1315  C     0.95439   0.73250   0.60076   0.00000  Uiso   1.00
H1316  H     0.95707   0.76469   0.62950   0.00000  Uiso   1.00
H1317  H     0.92509   0.73972   0.57421   0.00000  Uiso   1.00
C1318  C     0.92413   0.68136   0.62847   0.00000  Uiso   1.00
H1319  H     0.92289   0.98139   0.60098   0.00000  Uiso   1.00
H1320  H     0.87598   0.68286   0.64736   0.00000  Uiso   1.00
H1321  H     0.95039   0.67572   0.65791   0.00000  Uiso   1.00
O1322  O     0.90776   0.77842   0.87349   0.00000  Uiso   1.00
C1323  C     0.87427   0.72558   0.88272   0.00000  Uiso   1.00
H1324  H     0.83838   0.71618   0.85856   0.00000  Uiso   1.00
H1325  H     0.85043   0.71796   0.92319   0.00000  Uiso   1.00
C1326  C     0.91838   0.68776   0.86942   0.00000  Uiso   1.00
H1327  H     0.94265   0.69282   0.82914   0.00000  Uiso   1.00
H1328  H     0.95379   0.69651   0.89387   0.00000  Uiso   1.00
C1329  C     0.88349   0.96400   0.87846   0.00000  Uiso   1.00
H1330  H     0.86401   0.95746   0.91961   0.00000  Uiso   1.00
H1331  H     0.91598   0.93741   0.86563   0.00000  Uiso   1.00
H1332  H     0.84486   0.95401   0.85714   0.00000  Uiso   1.00
loop_
_geom_bond_atom_site_label_1
_geom_bond_atom_site_label_2
_geom_bond_distance
_geom_bond_site_symmetry_2
_ccdc_geom_bond_type
C1     C11     1.428   .     S
C1     O34     1.297   .     A
C1     O35     1.290   .     A
C2     C3      1.417   .     A
C2     C670    1.442   .     S
C2     C686    1.432   .     S
C3     C7      1.413   .     A
C3     C10     1.418   .     A
C4     C8      1.400   .     A
C4     C668    1.442   1_554 S
C4     C671    1.420   1_554 S
C5     C6      1.388   .     A
C5     C670    1.420   .     S
C5     C682    1.399   .     S
C6     C7      1.377   .     A
C6     H26     1.079   .     S
C7     O64     1.393   .     S
C8     H28     1.066   .     S
C8     C17     1.405   .     A
C9     O42     1.385   .     S
C9     C16     1.397   .     A
C9     C17     1.406   .     A
C10    C18     1.387   .     A
C10    C12     1.484   .     S
C11    C235    1.327   .     S
C11    H253    1.086   .     S
C12    O36     1.319   .     A
C12    O37     1.294   .     A
C13    C14     1.429   .     S
C13    C455    1.327   1_545 S
C13    H467    1.088   1_545 S
C14    O38     1.290   .     A
C14    O39     1.298   .     A
C15    C17     1.473   .     S
C15    O41     1.309   .     A
C15    O40     1.300   .     A
C16    C671    1.399   1_554 S
C16    H101    1.079   .     S
C18    C19     1.388   .     A
C18    H29     1.078   .     S
C19    C686    1.409   .     S
C19    H178    1.083   1_455 S
C20    O53     1.380   .     S
C20    C668    1.432   1_554 S
C20    C685    1.409   1_554 S
Cu21   O34     1.960   .     S
Cu21   O36     1.949   .     S
Cu21   O40     1.936   .     S
Cu21   N33     2.032   .     S
Cu21   Cu22    2.704   .     S
Cu21   O38     1.953   .     S
Cu22   O37     1.936   .     S
Cu22   O35     1.953   .     S
Cu22   N32     2.032   .     S
Cu22   O39     1.960   .     S
Cu22   O41     1.949   .     S
H23    C235    1.088   .     S
H24    N180    1.029   1_455 S
H25    N107    1.029   .     S
H27    C164    1.079   1_455 S
H30    C93     1.083   .     S
H31    C455    1.086   1_545 S
N32    H98     1.029   .     S
N32    N107    1.304   .     S
N33    N180    1.304   1_455 S
N33    H173    1.029   1_455 S
O42    C117    1.411   .     S
C43    H44     1.112   .     S
C43    C46     1.538   .     S
C43    O190    1.411   1_455 S
C43    H193    1.105   1_455 S
H45    C117    1.105   .     S
C46    C49     1.518   .     S
C46    H48     1.111   .     S
C46    H47     1.108   .     S
C49    H52     1.108   .     S
C49    H51     1.111   .     S
C49    H272    1.109   .     S
H50    C493    1.109   1_545 S
O53    C54     1.412   .     S
C54    H56     1.115   .     S
C54    H55     1.109   .     S
C54    C205    1.526   1_455 S
C57    H58     1.109   .     S
C57    H59     1.111   .     S
C57    C60     1.516   .     S
C57    C128    1.526   .     S
C60    H63     1.110   .     S
C60    H62     1.108   .     S
C60    H505    1.108   1_545 S
H61    C282    1.108   .     S
O64    C65     1.425   .     S
C65    C68     1.530   .     S
C65    H66     1.111   .     S
C65    H67     1.118   .     S
C68    H70     1.108   .     S
C68    H69     1.110   .     S
C68    C515    1.528   1_545 S
C71    H74     1.109   .     S
C71    H72     1.111   .     S
C71    H73     1.110   .     S
C71    C290    1.528   .     S
C75    C85     1.428   .     S
C75    O108    1.297   .     A
C75    O109    1.290   .     A
C76    C77     1.417   .     A
C76    C744    1.442   .     S
C76    C760    1.432   .     S
C77    C81     1.413   .     A
C77    C84     1.418   .     A
C78    C82     1.400   .     A
C78    C742    1.442   1_554 S
C78    C745    1.420   1_554 S
C79    C80     1.388   .     A
C79    C744    1.420   .     S
C79    C756    1.399   .     S
C80    C81     1.377   .     A
C80    H100    1.079   .     S
C81    O138    1.393   .     S
C82    H102    1.066   .     S
C82    C91     1.405   .     A
C83    O116    1.385   .     S
C83    C90     1.397   .     A
C83    C91     1.406   .     A
C84    C92     1.387   .     A
C84    C86     1.484   .     S
C85    C309    1.327   .     S
C85    H327    1.086   .     S
C86    O110    1.319   .     A
C86    O111    1.294   .     A
C87    C88     1.429   .     S
C87    C529    1.327   1_545 S
C87    H541    1.088   1_545 S
C88    O112    1.290   .     A
C88    O113    1.298   .     A
C89    C91     1.473   .     S
C89    O115    1.309   .     A
C89    O114    1.300   .     A
C90    C745    1.399   1_554 S
C90    H175    1.079   .     S
C92    C93     1.388   .     A
C92    H103    1.078   .     S
C93    C760    1.409   .     S
C94    O127    1.380   .     S
C94    C742    1.432   1_554 S
C94    C759    1.409   1_554 S
Cu95   O108    1.960   .     S
Cu95   O110    1.949   .     S
Cu95   O114    1.936   .     S
Cu95   N107    2.032   .     S
Cu95   Cu96    2.704   .     S
Cu95   O112    1.953   .     S
Cu96   O111    1.936   .     S
Cu96   O109    1.953   .     S
Cu96   N106    2.032   .     S
Cu96   O113    1.960   .     S
Cu96   O115    1.949   .     S
H97    C309    1.088   .     S
H99    N181    1.029   .     S
H104   C167    1.083   .     S
H105   C529    1.086   1_545 S
N106   H172    1.029   .     S
N106   N181    1.304   .     S
O116   C191    1.411   .     S
C117   H118    1.112   .     S
C117   C120    1.538   .     S
H119   C191    1.105   .     S
C120   C123    1.518   .     S
C120   H122    1.111   .     S
C120   H121    1.108   .     S
C123   H126    1.108   .     S
C123   H125    1.111   .     S
C123   H346    1.109   .     S
H124   C567    1.109   1_545 S
O127   C128    1.412   .     S
C128   H130    1.115   .     S
C128   H129    1.109   .     S
C131   H132    1.109   .     S
C131   H133    1.111   .     S
C131   C134    1.516   .     S
C131   C202    1.526   .     S
C134   H137    1.110   .     S
C134   H136    1.108   .     S
C134   H579    1.108   1_545 S
H135   C356    1.108   .     S
O138   C139    1.425   .     S
C139   C142    1.530   .     S
C139   H140    1.111   .     S
C139   H141    1.118   .     S
C142   H144    1.108   .     S
C142   H143    1.110   .     S
C142   C589    1.528   1_545 S
C145   H148    1.109   .     S
C145   H146    1.111   .     S
C145   H147    1.110   .     S
C145   C364    1.528   .     S
C149   C159    1.428   .     S
C149   O182    1.297   .     A
C149   O183    1.290   .     A
C150   C151    1.417   .     A
C150   C818    1.442   .     S
C150   C834    1.432   .     S
C151   C155    1.413   .     A
C151   C158    1.418   .     A
C152   C156    1.400   .     A
C152   C816    1.442   1_554 S
C152   C819    1.420   1_554 S
C153   C154    1.388   .     A
C153   C818    1.420   .     S
C153   C830    1.399   .     S
C154   C155    1.377   .     A
C154   H174    1.079   .     S
C155   O212    1.393   .     S
C156   H176    1.066   .     S
C156   C165    1.405   .     A
C157   O190    1.385   .     S
C157   C164    1.397   .     A
C157   C165    1.406   .     A
C158   C166    1.387   .     A
C158   C160    1.484   .     S
C159   C383    1.327   .     S
C159   H401    1.086   .     S
C160   O184    1.319   .     A
C160   O185    1.294   .     A
C161   C162    1.429   .     S
C161   C603    1.327   1_545 S
C161   H615    1.088   1_545 S
C162   O186    1.290   .     A
C162   O187    1.298   .     A
C163   C165    1.473   .     S
C163   O189    1.309   .     A
C163   O188    1.300   .     A
C164   C819    1.399   1_554 S
C164   H27     1.079   1_655 S
C166   C167    1.388   .     A
C166   H177    1.078   .     S
C167   C834    1.409   .     S
C168   O201    1.380   .     S
C168   C816    1.432   1_554 S
C168   C833    1.409   1_554 S
Cu169  O182    1.960   .     S
Cu169  O184    1.949   .     S
Cu169  O188    1.936   .     S
Cu169  N181    2.032   .     S
Cu169  Cu170   2.704   .     S
Cu169  O186    1.953   .     S
Cu170  O185    1.936   .     S
Cu170  O183    1.953   .     S
Cu170  N180    2.032   .     S
Cu170  O187    1.960   .     S
Cu170  O189    1.949   .     S
H171   C383    1.088   .     S
H173   N33     1.029   1_655 S
H178   C19     1.083   1_655 S
H179   C603    1.086   1_545 S
N180   H24     1.029   1_655 S
N180   N33     1.304   1_655 S
O190   C43     1.411   1_655 S
C191   H192    1.112   .     S
C191   C194    1.538   .     S
H193   C43     1.105   1_655 S
C194   C197    1.518   .     S
C194   H196    1.111   .     S
C194   H195    1.108   .     S
C197   H200    1.108   .     S
C197   H199    1.111   .     S
C197   H420    1.109   .     S
H198   C641    1.109   1_545 S
O201   C202    1.412   .     S
C202   H204    1.115   .     S
C202   H203    1.109   .     S
C205   H206    1.109   .     S
C205   H207    1.111   .     S
C205   C208    1.516   .     S
C205   C54     1.526   1_655 S
C208   H211    1.110   .     S
C208   H210    1.108   .     S
C208   H653    1.108   1_545 S
H209   C430    1.108   .     S
O212   C213    1.425   .     S
C213   C216    1.530   .     S
C213   H214    1.111   .     S
C213   H215    1.118   .     S
C216   H218    1.108   .     S
C216   H217    1.110   .     S
C216   C663    1.528   1_545 S
C219   H222    1.109   .     S
C219   H220    1.111   .     S
C219   H221    1.110   .     S
C219   C438    1.528   .     S
C223   C233    1.428   .     S
C223   O256    1.297   .     A
C223   O257    1.290   .     A
C224   C225    1.417   .     A
C224   C892    1.442   .     S
C224   C908    1.432   .     S
C225   C229    1.413   .     A
C225   C232    1.418   .     A
C226   C230    1.400   .     A
C226   C890    1.442   1_554 S
C226   C893    1.420   1_554 S
C227   C228    1.388   .     A
C227   C892    1.420   .     S
C227   C904    1.399   .     S
C228   C229    1.377   .     A
C228   H248    1.079   .     S
C229   O286    1.393   .     S
C230   H250    1.066   .     S
C230   C239    1.405   .     A
C231   O264    1.385   .     S
C231   C238    1.397   .     A
C231   C239    1.406   .     A
C232   C240    1.387   .     A
C232   C234    1.484   .     S
C233   C457    1.327   .     S
C233   H475    1.086   .     S
C234   O258    1.319   .     A
C234   O259    1.294   .     A
C235   C236    1.429   .     S
C236   O260    1.290   .     A
C236   O261    1.298   .     A
C237   C239    1.473   .     S
C237   O263    1.309   .     A
C237   O262    1.300   .     A
C238   C893    1.399   1_554 S
C238   H323    1.079   .     S
C240   C241    1.388   .     A
C240   H251    1.078   .     S
C241   C908    1.409   .     S
C241   H400    1.083   1_455 S
C242   O275    1.380   .     S
C242   C890    1.432   1_554 S
C242   C907    1.409   1_554 S
Cu243  O256    1.960   .     S
Cu243  O258    1.949   .     S
Cu243  O262    1.936   .     S
Cu243  N255    2.032   .     S
Cu243  Cu244   2.704   .     S
Cu243  O260    1.953   .     S
Cu244  O259    1.936   .     S
Cu244  O257    1.953   .     S
Cu244  N254    2.032   .     S
Cu244  O261    1.960   .     S
Cu244  O263    1.949   .     S
H245   C457    1.088   .     S
H246   N402    1.029   1_455 S
H247   N329    1.029   .     S
H249   C386    1.079   1_455 S
H252   C315    1.083   .     S
N254   H320    1.029   .     S
N254   N329    1.304   .     S
N255   N402    1.304   1_455 S
N255   H395    1.029   1_455 S
O264   C339    1.411   .     S
C265   H266    1.112   .     S
C265   C268    1.538   .     S
C265   O412    1.411   1_455 S
C265   H415    1.105   1_455 S
H267   C339    1.105   .     S
C268   C271    1.518   .     S
C268   H270    1.111   .     S
C268   H269    1.108   .     S
C271   H274    1.108   .     S
C271   H273    1.111   .     S
C271   H494    1.109   .     S
O275   C276    1.412   .     S
C276   H278    1.115   .     S
C276   H277    1.109   .     S
C276   C427    1.526   1_455 S
C279   H280    1.109   .     S
C279   H281    1.111   .     S
C279   C282    1.516   .     S
C279   C350    1.526   .     S
C282   H285    1.110   .     S
C282   H284    1.108   .     S
H283   C504    1.108   .     S
O286   C287    1.425   .     S
C287   C290    1.530   .     S
C287   H288    1.111   .     S
C287   H289    1.118   .     S
C290   H292    1.108   .     S
C290   H291    1.110   .     S
C293   H296    1.109   .     S
C293   H294    1.111   .     S
C293   H295    1.110   .     S
C293   C512    1.528   .     S
C297   C307    1.428   .     S
C297   O330    1.297   .     A
C297   O331    1.290   .     A
C298   C299    1.417   .     A
C298   C966    1.442   .     S
C298   C982    1.432   .     S
C299   C303    1.413   .     A
C299   C306    1.418   .     A
C300   C304    1.400   .     A
C300   C964    1.442   1_554 S
C300   C967    1.420   1_554 S
C301   C302    1.388   .     A
C301   C966    1.420   .     S
C301   C978    1.399   .     S
C302   C303    1.377   .     A
C302   H322    1.079   .     S
C303   O360    1.393   .     S
C304   H324    1.066   .     S
C304   C313    1.405   .     A
C305   O338    1.385   .     S
C305   C312    1.397   .     A
C305   C313    1.406   .     A
C306   C314    1.387   .     A
C306   C308    1.484   .     S
C307   C531    1.327   .     S
C307   H549    1.086   .     S
C308   O332    1.319   .     A
C308   O333    1.294   .     A
C309   C310    1.429   .     S
C310   O334    1.290   .     A
C310   O335    1.298   .     A
C311   C313    1.473   .     S
C311   O337    1.309   .     A
C311   O336    1.300   .     A
C312   C967    1.399   1_554 S
C312   H397    1.079   .     S
C314   C315    1.388   .     A
C314   H325    1.078   .     S
C315   C982    1.409   .     S
C316   O349    1.380   .     S
C316   C964    1.432   1_554 S
C316   C981    1.409   1_554 S
Cu317  O330    1.960   .     S
Cu317  O332    1.949   .     S
Cu317  O336    1.936   .     S
Cu317  N329    2.032   .     S
Cu317  Cu318   2.704   .     S
Cu317  O334    1.953   .     S
Cu318  O333    1.936   .     S
Cu318  O331    1.953   .     S
Cu318  N328    2.032   .     S
Cu318  O335    1.960   .     S
Cu318  O337    1.949   .     S
H319   C531    1.088   .     S
H321   N403    1.029   .     S
H326   C389    1.083   .     S
N328   H394    1.029   .     S
N328   N403    1.304   .     S
O338   C413    1.411   .     S
C339   H340    1.112   .     S
C339   C342    1.538   .     S
H341   C413    1.105   .     S
C342   C345    1.518   .     S
C342   H344    1.111   .     S
C342   H343    1.108   .     S
C345   H348    1.108   .     S
C345   H347    1.111   .     S
C345   H568    1.109   .     S
O349   C350    1.412   .     S
C350   H352    1.115   .     S
C350   H351    1.109   .     S
C353   H354    1.109   .     S
C353   H355    1.111   .     S
C353   C356    1.516   .     S
C353   C424    1.526   .     S
C356   H359    1.110   .     S
C356   H358    1.108   .     S
H357   C578    1.108   .     S
O360   C361    1.425   .     S
C361   C364    1.530   .     S
C361   H362    1.111   .     S
C361   H363    1.118   .     S
C364   H366    1.108   .     S
C364   H365    1.110   .     S
C367   H370    1.109   .     S
C367   H368    1.111   .     S
C367   H369    1.110   .     S
C367   C586    1.528   .     S
C371   C381    1.428   .     S
C371   O404    1.297   .     A
C371   O405    1.290   .     A
C372   C373    1.417   .     A
C372   C1040   1.442   .     S
C372   C1056   1.432   .     S
C373   C377    1.413   .     A
C373   C380    1.418   .     A
C374   C378    1.400   .     A
C374   C1038   1.442   1_554 S
C374   C1041   1.420   1_554 S
C375   C376    1.388   .     A
C375   C1040   1.420   .     S
C375   C1052   1.399   .     S
C376   C377    1.377   .     A
C376   H396    1.079   .     S
C377   O434    1.393   .     S
C378   H398    1.066   .     S
C378   C387    1.405   .     A
C379   O412    1.385   .     S
C379   C386    1.397   .     A
C379   C387    1.406   .     A
C380   C388    1.387   .     A
C380   C382    1.484   .     S
C381   C605    1.327   .     S
C381   H623    1.086   .     S
C382   O406    1.319   .     A
C382   O407    1.294   .     A
C383   C384    1.429   .     S
C384   O408    1.290   .     A
C384   O409    1.298   .     A
C385   C387    1.473   .     S
C385   O411    1.309   .     A
C385   O410    1.300   .     A
C386   C1041   1.399   1_554 S
C386   H249    1.079   1_655 S
C388   C389    1.388   .     A
C388   H399    1.078   .     S
C389   C1056   1.409   .     S
C390   O423    1.380   .     S
C390   C1038   1.432   1_554 S
C390   C1055   1.409   1_554 S
Cu391  O404    1.960   .     S
Cu391  O406    1.949   .     S
Cu391  O410    1.936   .     S
Cu391  N403    2.032   .     S
Cu391  Cu392   2.704   .     S
Cu391  O408    1.953   .     S
Cu392  O407    1.936   .     S
Cu392  O405    1.953   .     S
Cu392  N402    2.032   .     S
Cu392  O409    1.960   .     S
Cu392  O411    1.949   .     S
H393   C605    1.088   .     S
H395   N255    1.029   1_655 S
H400   C241    1.083   1_655 S
N402   H246    1.029   1_655 S
N402   N255    1.304   1_655 S
O412   C265    1.411   1_655 S
C413   H414    1.112   .     S
C413   C416    1.538   .     S
H415   C265    1.105   1_655 S
C416   C419    1.518   .     S
C416   H418    1.111   .     S
C416   H417    1.108   .     S
C419   H422    1.108   .     S
C419   H421    1.111   .     S
C419   H642    1.109   .     S
O423   C424    1.412   .     S
C424   H426    1.115   .     S
C424   H425    1.109   .     S
C427   H428    1.109   .     S
C427   H429    1.111   .     S
C427   C430    1.516   .     S
C427   C276    1.526   1_655 S
C430   H433    1.110   .     S
C430   H432    1.108   .     S
H431   C652    1.108   .     S
O434   C435    1.425   .     S
C435   C438    1.530   .     S
C435   H436    1.111   .     S
C435   H437    1.118   .     S
C438   H440    1.108   .     S
C438   H439    1.110   .     S
C441   H444    1.109   .     S
C441   H442    1.111   .     S
C441   H443    1.110   .     S
C441   C660    1.528   .     S
C445   C455    1.428   .     S
C445   O478    1.297   .     A
C445   O479    1.290   .     A
C446   C447    1.417   .     A
C446   C1114   1.442   .     S
C446   C1130   1.432   .     S
C447   C451    1.413   .     A
C447   C454    1.418   .     A
C448   C452    1.400   .     A
C448   C1112   1.442   1_554 S
C448   C1115   1.420   1_554 S
C449   C450    1.388   .     A
C449   C1114   1.420   .     S
C449   C1126   1.399   .     S
C450   C451    1.377   .     A
C450   H470    1.079   .     S
C451   O508    1.393   .     S
C452   H472    1.066   .     S
C452   C461    1.405   .     A
C453   O486    1.385   .     S
C453   C460    1.397   .     A
C453   C461    1.406   .     A
C454   C462    1.387   .     A
C454   C456    1.484   .     S
C455   C13     1.327   1_565 S
C455   H31     1.086   1_565 S
C456   O480    1.319   .     A
C456   O481    1.294   .     A
C457   C458    1.429   .     S
C458   O482    1.290   .     A
C458   O483    1.298   .     A
C459   C461    1.473   .     S
C459   O485    1.309   .     A
C459   O484    1.300   .     A
C460   C1115   1.399   1_554 S
C460   H545    1.079   .     S
C462   C463    1.388   .     A
C462   H473    1.078   .     S
C463   C1130   1.409   .     S
C463   H622    1.083   1_455 S
C464   O497    1.380   .     S
C464   C1112   1.432   1_554 S
C464   C1129   1.409   1_554 S
Cu465  O478    1.960   .     S
Cu465  O480    1.949   .     S
Cu465  O484    1.936   .     S
Cu465  N477    2.032   .     S
Cu465  Cu466   2.704   .     S
Cu465  O482    1.953   .     S
Cu466  O481    1.936   .     S
Cu466  O479    1.953   .     S
Cu466  N476    2.032   .     S
Cu466  O483    1.960   .     S
Cu466  O485    1.949   .     S
H467   C13     1.088   1_565 S
H468   N624    1.029   1_455 S
H469   N551    1.029   .     S
H471   C608    1.079   1_455 S
H474   C537    1.083   .     S
N476   H542    1.029   .     S
N476   N551    1.304   .     S
N477   N624    1.304   1_455 S
N477   H617    1.029   1_455 S
O486   C561    1.411   .     S
C487   H488    1.112   .     S
C487   C490    1.538   .     S
C487   O634    1.411   1_455 S
C487   H637    1.105   1_455 S
H489   C561    1.105   .     S
C490   C493    1.518   .     S
C490   H492    1.111   .     S
C490   H491    1.108   .     S
C493   H496    1.108   .     S
C493   H495    1.111   .     S
C493   H50     1.109   1_565 S
O497   C498    1.412   .     S
C498   H500    1.115   .     S
C498   H499    1.109   .     S
C498   C649    1.526   1_455 S
C501   H502    1.109   .     S
C501   H503    1.111   .     S
C501   C504    1.516   .     S
C501   C572    1.526   .     S
C504   H507    1.110   .     S
C504   H506    1.108   .     S
H505   C60     1.108   1_565 S
O508   C509    1.425   .     S
C509   C512    1.530   .     S
C509   H510    1.111   .     S
C509   H511    1.118   .     S
C512   H514    1.108   .     S
C512   H513    1.110   .     S
C515   H518    1.109   .     S
C515   H516    1.111   .     S
C515   H517    1.110   .     S
C515   C68     1.528   1_565 S
C519   C529    1.428   .     S
C519   O552    1.297   .     A
C519   O553    1.290   .     A
C520   C521    1.417   .     A
C520   C1188   1.442   .     S
C520   C1204   1.432   .     S
C521   C525    1.413   .     A
C521   C528    1.418   .     A
C522   C526    1.400   .     A
C522   C1186   1.442   1_554 S
C522   C1189   1.420   1_554 S
C523   C524    1.388   .     A
C523   C1188   1.420   .     S
C523   C1200   1.399   .     S
C524   C525    1.377   .     A
C524   H544    1.079   .     S
C525   O582    1.393   .     S
C526   H546    1.066   .     S
C526   C535    1.405   .     A
C527   O560    1.385   .     S
C527   C534    1.397   .     A
C527   C535    1.406   .     A
C528   C536    1.387   .     A
C528   C530    1.484   .     S
C529   C87     1.327   1_565 S
C529   H105    1.086   1_565 S
C530   O554    1.319   .     A
C530   O555    1.294   .     A
C531   C532    1.429   .     S
C532   O556    1.290   .     A
C532   O557    1.298   .     A
C533   C535    1.473   .     S
C533   O559    1.309   .     A
C533   O558    1.300   .     A
C534   C1189   1.399   1_554 S
C534   H619    1.079   .     S
C536   C537    1.388   .     A
C536   H547    1.078   .     S
C537   C1204   1.409   .     S
C538   O571    1.380   .     S
C538   C1186   1.432   1_554 S
C538   C1203   1.409   1_554 S
Cu539  O552    1.960   .     S
Cu539  O554    1.949   .     S
Cu539  O558    1.936   .     S
Cu539  N551    2.032   .     S
Cu539  Cu540   2.704   .     S
Cu539  O556    1.953   .     S
Cu540  O555    1.936   .     S
Cu540  O553    1.953   .     S
Cu540  N550    2.032   .     S
Cu540  O557    1.960   .     S
Cu540  O559    1.949   .     S
H541   C87     1.088   1_565 S
H543   N625    1.029   .     S
H548   C611    1.083   .     S
N550   H616    1.029   .     S
N550   N625    1.304   .     S
O560   C635    1.411   .     S
C561   H562    1.112   .     S
C561   C564    1.538   .     S
H563   C635    1.105   .     S
C564   C567    1.518   .     S
C564   H566    1.111   .     S
C564   H565    1.108   .     S
C567   H570    1.108   .     S
C567   H569    1.111   .     S
C567   H124    1.109   1_565 S
O571   C572    1.412   .     S
C572   H574    1.115   .     S
C572   H573    1.109   .     S
C575   H576    1.109   .     S
C575   H577    1.111   .     S
C575   C578    1.516   .     S
C575   C646    1.526   .     S
C578   H581    1.110   .     S
C578   H580    1.108   .     S
H579   C134    1.108   1_565 S
O582   C583    1.425   .     S
C583   C586    1.530   .     S
C583   H584    1.111   .     S
C583   H585    1.118   .     S
C586   H588    1.108   .     S
C586   H587    1.110   .     S
C589   H592    1.109   .     S
C589   H590    1.111   .     S
C589   H591    1.110   .     S
C589   C142    1.528   1_565 S
C593   C603    1.428   .     S
C593   O626    1.297   .     A
C593   O627    1.290   .     A
C594   C595    1.417   .     A
C594   C1262   1.442   .     S
C594   C1278   1.432   .     S
C595   C599    1.413   .     A
C595   C602    1.418   .     A
C596   C600    1.400   .     A
C596   C1260   1.442   1_554 S
C596   C1263   1.420   1_554 S
C597   C598    1.388   .     A
C597   C1262   1.420   .     S
C597   C1274   1.399   .     S
C598   C599    1.377   .     A
C598   H618    1.079   .     S
C599   O656    1.393   .     S
C600   H620    1.066   .     S
C600   C609    1.405   .     A
C601   O634    1.385   .     S
C601   C608    1.397   .     A
C601   C609    1.406   .     A
C602   C610    1.387   .     A
C602   C604    1.484   .     S
C603   C161    1.327   1_565 S
C603   H179    1.086   1_565 S
C604   O628    1.319   .     A
C604   O629    1.294   .     A
C605   C606    1.429   .     S
C606   O630    1.290   .     A
C606   O631    1.298   .     A
C607   C609    1.473   .     S
C607   O633    1.309   .     A
C607   O632    1.300   .     A
C608   C1263   1.399   1_554 S
C608   H471    1.079   1_655 S
C610   C611    1.388   .     A
C610   H621    1.078   .     S
C611   C1278   1.409   .     S
C612   O645    1.380   .     S
C612   C1260   1.432   1_554 S
C612   C1277   1.409   1_554 S
Cu613  O626    1.960   .     S
Cu613  O628    1.949   .     S
Cu613  O632    1.936   .     S
Cu613  N625    2.032   .     S
Cu613  Cu614   2.704   .     S
Cu613  O630    1.953   .     S
Cu614  O629    1.936   .     S
Cu614  O627    1.953   .     S
Cu614  N624    2.032   .     S
Cu614  O631    1.960   .     S
Cu614  O633    1.949   .     S
H615   C161    1.088   1_565 S
H617   N477    1.029   1_655 S
H622   C463    1.083   1_655 S
N624   H468    1.029   1_655 S
N624   N477    1.304   1_655 S
O634   C487    1.411   1_655 S
C635   H636    1.112   .     S
C635   C638    1.538   .     S
H637   C487    1.105   1_655 S
C638   C641    1.518   .     S
C638   H640    1.111   .     S
C638   H639    1.108   .     S
C641   H644    1.108   .     S
C641   H643    1.111   .     S
C641   H198    1.109   1_565 S
O645   C646    1.412   .     S
C646   H648    1.115   .     S
C646   H647    1.109   .     S
C649   H650    1.109   .     S
C649   H651    1.111   .     S
C649   C652    1.516   .     S
C649   C498    1.526   1_655 S
C652   H655    1.110   .     S
C652   H654    1.108   .     S
H653   C208    1.108   1_565 S
O656   C657    1.425   .     S
C657   C660    1.530   .     S
C657   H658    1.111   .     S
C657   H659    1.118   .     S
C660   H662    1.108   .     S
C660   H661    1.110   .     S
C663   H666    1.109   .     S
C663   H664    1.111   .     S
C663   H665    1.110   .     S
C663   C216    1.528   1_565 S
C667   C677    1.428   .     S
C667   O700    1.297   .     A
C667   O701    1.290   .     A
C668   C669    1.417   .     A
C668   C4      1.442   1_556 S
C668   C20     1.432   1_556 S
C669   C673    1.413   .     A
C669   C676    1.418   .     A
C670   C674    1.400   .     A
C671   C672    1.388   .     A
C671   C4      1.420   1_556 S
C671   C16     1.399   1_556 S
C672   C673    1.377   .     A
C672   H692    1.079   .     S
C673   O730    1.393   .     S
C674   H694    1.066   .     S
C674   C683    1.405   .     A
C675   O708    1.385   .     S
C675   C682    1.397   .     A
C675   C683    1.406   .     A
C676   C684    1.387   .     A
C676   C678    1.484   .     S
C677   C901    1.327   .     S
C677   H919    1.086   .     S
C678   O702    1.319   .     A
C678   O703    1.294   .     A
C679   C680    1.429   .     S
C679   C1121   1.327   1_545 S
C679   H1133   1.088   1_545 S
C680   O704    1.290   .     A
C680   O705    1.298   .     A
C681   C683    1.473   .     S
C681   O707    1.309   .     A
C681   O706    1.300   .     A
C682   H767    1.079   .     S
C684   C685    1.388   .     A
C684   H695    1.078   .     S
C685   C20     1.409   1_556 S
C685   H844    1.083   1_455 S
C686   O719    1.380   .     S
Cu687  O700    1.960   .     S
Cu687  O702    1.949   .     S
Cu687  O706    1.936   .     S
Cu687  N699    2.032   .     S
Cu687  Cu688   2.704   .     S
Cu687  O704    1.953   .     S
Cu688  O703    1.936   .     S
Cu688  O701    1.953   .     S
Cu688  N698    2.032   .     S
Cu688  O705    1.960   .     S
Cu688  O707    1.949   .     S
H689   C901    1.088   .     S
H690   N846    1.029   1_455 S
H691   N773    1.029   .     S
H693   C830    1.079   1_455 S
H696   C759    1.083   .     S
H697   C1121   1.086   1_545 S
N698   H764    1.029   .     S
N698   N773    1.304   .     S
N699   N846    1.304   1_455 S
N699   H839    1.029   1_455 S
O708   C783    1.411   .     S
C709   H710    1.112   .     S
C709   C712    1.538   .     S
C709   O856    1.411   1_455 S
C709   H859    1.105   1_455 S
H711   C783    1.105   .     S
C712   C715    1.518   .     S
C712   H714    1.111   .     S
C712   H713    1.108   .     S
C715   H718    1.108   .     S
C715   H717    1.111   .     S
C715   H938    1.109   .     S
H716   C1159   1.109   1_545 S
O719   C720    1.412   .     S
C720   H722    1.115   .     S
C720   H721    1.109   .     S
C720   C871    1.526   1_455 S
C723   H724    1.109   .     S
C723   H725    1.111   .     S
C723   C726    1.516   .     S
C723   C794    1.526   .     S
C726   H729    1.110   .     S
C726   H728    1.108   .     S
C726   H1171   1.108   1_545 S
H727   C948    1.108   .     S
O730   C731    1.425   .     S
C731   C734    1.530   .     S
C731   H732    1.111   .     S
C731   H733    1.118   .     S
C734   H736    1.108   .     S
C734   H735    1.110   .     S
C734   C1181   1.528   1_545 S
C737   H740    1.109   .     S
C737   H738    1.111   .     S
C737   H739    1.110   .     S
C737   C956    1.528   .     S
C741   C751    1.428   .     S
C741   O774    1.297   .     A
C741   O775    1.290   .     A
C742   C743    1.417   .     A
C742   C78     1.442   1_556 S
C742   C94     1.432   1_556 S
C743   C747    1.413   .     A
C743   C750    1.418   .     A
C744   C748    1.400   .     A
C745   C746    1.388   .     A
C745   C78     1.420   1_556 S
C745   C90     1.399   1_556 S
C746   C747    1.377   .     A
C746   H766    1.079   .     S
C747   O804    1.393   .     S
C748   H768    1.066   .     S
C748   C757    1.405   .     A
C749   O782    1.385   .     S
C749   C756    1.397   .     A
C749   C757    1.406   .     A
C750   C758    1.387   .     A
C750   C752    1.484   .     S
C751   C975    1.327   .     S
C751   H993    1.086   .     S
C752   O776    1.319   .     A
C752   O777    1.294   .     A
C753   C754    1.429   .     S
C753   C1195   1.327   1_545 S
C753   H1207   1.088   1_545 S
C754   O778    1.290   .     A
C754   O779    1.298   .     A
C755   C757    1.473   .     S
C755   O781    1.309   .     A
C755   O780    1.300   .     A
C756   H841    1.079   .     S
C758   C759    1.388   .     A
C758   H769    1.078   .     S
C759   C94     1.409   1_556 S
C760   O793    1.380   .     S
Cu761  O774    1.960   .     S
Cu761  O776    1.949   .     S
Cu761  O780    1.936   .     S
Cu761  N773    2.032   .     S
Cu761  Cu762   2.704   .     S
Cu761  O778    1.953   .     S
Cu762  O777    1.936   .     S
Cu762  O775    1.953   .     S
Cu762  N772    2.032   .     S
Cu762  O779    1.960   .     S
Cu762  O781    1.949   .     S
H763   C975    1.088   .     S
H765   N847    1.029   .     S
H770   C833    1.083   .     S
H771   C1195   1.086   1_545 S
N772   H838    1.029   .     S
N772   N847    1.304   .     S
O782   C857    1.411   .     S
C783   H784    1.112   .     S
C783   C786    1.538   .     S
H785   C857    1.105   .     S
C786   C789    1.518   .     S
C786   H788    1.111   .     S
C786   H787    1.108   .     S
C789   H792    1.108   .     S
C789   H791    1.111   .     S
C789   H1012   1.109   .     S
H790   C1233   1.109   1_545 S
O793   C794    1.412   .     S
C794   H796    1.115   .     S
C794   H795    1.109   .     S
C797   H798    1.109   .     S
C797   H799    1.111   .     S
C797   C800    1.516   .     S
C797   C868    1.526   .     S
C800   H803    1.110   .     S
C800   H802    1.108   .     S
C800   H1245   1.108   1_545 S
H801   C1022   1.108   .     S
O804   C805    1.425   .     S
C805   C808    1.530   .     S
C805   H806    1.111   .     S
C805   H807    1.118   .     S
C808   H810    1.108   .     S
C808   H809    1.110   .     S
C808   C1255   1.528   1_545 S
C811   H814    1.109   .     S
C811   H812    1.111   .     S
C811   H813    1.110   .     S
C811   C1030   1.528   .     S
C815   C825    1.428   .     S
C815   O848    1.297   .     A
C815   O849    1.290   .     A
C816   C817    1.417   .     A
C816   C152    1.442   1_556 S
C816   C168    1.432   1_556 S
C817   C821    1.413   .     A
C817   C824    1.418   .     A
C818   C822    1.400   .     A
C819   C820    1.388   .     A
C819   C152    1.420   1_556 S
C819   C164    1.399   1_556 S
C820   C821    1.377   .     A
C820   H840    1.079   .     S
C821   O878    1.393   .     S
C822   H842    1.066   .     S
C822   C831    1.405   .     A
C823   O856    1.385   .     S
C823   C830    1.397   .     A
C823   C831    1.406   .     A
C824   C832    1.387   .     A
C824   C826    1.484   .     S
C825   C1049   1.327   .     S
C825   H1067   1.086   .     S
C826   O850    1.319   .     A
C826   O851    1.294   .     A
C827   C828    1.429   .     S
C827   C1269   1.327   1_545 S
C827   H1281   1.088   1_545 S
C828   O852    1.290   .     A
C828   O853    1.298   .     A
C829   C831    1.473   .     S
C829   O855    1.309   .     A
C829   O854    1.300   .     A
C830   H693    1.079   1_655 S
C832   C833    1.388   .     A
C832   H843    1.078   .     S
C833   C168    1.409   1_556 S
C834   O867    1.380   .     S
Cu835  O848    1.960   .     S
Cu835  O850    1.949   .     S
Cu835  O854    1.936   .     S
Cu835  N847    2.032   .     S
Cu835  Cu836   2.704   .     S
Cu835  O852    1.953   .     S
Cu836  O851    1.936   .     S
Cu836  O849    1.953   .     S
Cu836  N846    2.032   .     S
Cu836  O853    1.960   .     S
Cu836  O855    1.949   .     S
H837   C1049   1.088   .     S
H839   N699    1.029   1_655 S
H844   C685    1.083   1_655 S
H845   C1269   1.086   1_545 S
N846   H690    1.029   1_655 S
N846   N699    1.304   1_655 S
O856   C709    1.411   1_655 S
C857   H858    1.112   .     S
C857   C860    1.538   .     S
H859   C709    1.105   1_655 S
C860   C863    1.518   .     S
C860   H862    1.111   .     S
C860   H861    1.108   .     S
C863   H866    1.108   .     S
C863   H865    1.111   .     S
C863   H1086   1.109   .     S
H864   C1307   1.109   1_545 S
O867   C868    1.412   .     S
C868   H870    1.115   .     S
C868   H869    1.109   .     S
C871   H872    1.109   .     S
C871   H873    1.111   .     S
C871   C874    1.516   .     S
C871   C720    1.526   1_655 S
C874   H877    1.110   .     S
C874   H876    1.108   .     S
C874   H1319   1.108   1_545 S
H875   C1096   1.108   .     S
O878   C879    1.425   .     S
C879   C882    1.530   .     S
C879   H880    1.111   .     S
C879   H881    1.118   .     S
C882   H884    1.108   .     S
C882   H883    1.110   .     S
C882   C1329   1.528   1_545 S
C885   H888    1.109   .     S
C885   H886    1.111   .     S
C885   H887    1.110   .     S
C885   C1104   1.528   .     S
C889   C899    1.428   .     S
C889   O922    1.297   .     A
C889   O923    1.290   .     A
C890   C891    1.417   .     A
C890   C226    1.442   1_556 S
C890   C242    1.432   1_556 S
C891   C895    1.413   .     A
C891   C898    1.418   .     A
C892   C896    1.400   .     A
C893   C894    1.388   .     A
C893   C226    1.420   1_556 S
C893   C238    1.399   1_556 S
C894   C895    1.377   .     A
C894   H914    1.079   .     S
C895   O952    1.393   .     S
C896   H916    1.066   .     S
C896   C905    1.405   .     A
C897   O930    1.385   .     S
C897   C904    1.397   .     A
C897   C905    1.406   .     A
C898   C906    1.387   .     A
C898   C900    1.484   .     S
C899   C1123   1.327   .     S
C899   H1141   1.086   .     S
C900   O924    1.319   .     A
C900   O925    1.294   .     A
C901   C902    1.429   .     S
C902   O926    1.290   .     A
C902   O927    1.298   .     A
C903   C905    1.473   .     S
C903   O929    1.309   .     A
C903   O928    1.300   .     A
C904   H989    1.079   .     S
C906   C907    1.388   .     A
C906   H917    1.078   .     S
C907   C242    1.409   1_556 S
C907   H1066   1.083   1_455 S
C908   O941    1.380   .     S
Cu909  O922    1.960   .     S
Cu909  O924    1.949   .     S
Cu909  O928    1.936   .     S
Cu909  N921    2.032   .     S
Cu909  Cu910   2.704   .     S
Cu909  O926    1.953   .     S
Cu910  O925    1.936   .     S
Cu910  O923    1.953   .     S
Cu910  N920    2.032   .     S
Cu910  O927    1.960   .     S
Cu910  O929    1.949   .     S
H911   C1123   1.088   .     S
H912   N1068   1.029   1_455 S
H913   N995    1.029   .     S
H915   C1052   1.079   1_455 S
H918   C981    1.083   .     S
N920   H986    1.029   .     S
N920   N995    1.304   .     S
N921   N1068   1.304   1_455 S
N921   H1061   1.029   1_455 S
O930   C1005   1.411   .     S
C931   H932    1.112   .     S
C931   C934    1.538   .     S
C931   O1078   1.411   1_455 S
C931   H1081   1.105   1_455 S
H933   C1005   1.105   .     S
C934   C937    1.518   .     S
C934   H936    1.111   .     S
C934   H935    1.108   .     S
C937   H940    1.108   .     S
C937   H939    1.111   .     S
C937   H1160   1.109   .     S
O941   C942    1.412   .     S
C942   H944    1.115   .     S
C942   H943    1.109   .     S
C942   C1093   1.526   1_455 S
C945   H946    1.109   .     S
C945   H947    1.111   .     S
C945   C948    1.516   .     S
C945   C1016   1.526   .     S
C948   H951    1.110   .     S
C948   H950    1.108   .     S
H949   C1170   1.108   .     S
O952   C953    1.425   .     S
C953   C956    1.530   .     S
C953   H954    1.111   .     S
C953   H955    1.118   .     S
C956   H958    1.108   .     S
C956   H957    1.110   .     S
C959   H962    1.109   .     S
C959   H960    1.111   .     S
C959   H961    1.110   .     S
C959   C1178   1.528   .     S
C963   C973    1.428   .     S
C963   O996    1.297   .     A
C963   O997    1.290   .     A
C964   C965    1.417   .     A
C964   C300    1.442   1_556 S
C964   C316    1.432   1_556 S
C965   C969    1.413   .     A
C965   C972    1.418   .     A
C966   C970    1.400   .     A
C967   C968    1.388   .     A
C967   C300    1.420   1_556 S
C967   C312    1.399   1_556 S
C968   C969    1.377   .     A
C968   H988    1.079   .     S
C969   O1026   1.393   .     S
C970   H990    1.066   .     S
C970   C979    1.405   .     A
C971   O1004   1.385   .     S
C971   C978    1.397   .     A
C971   C979    1.406   .     A
C972   C980    1.387   .     A
C972   C974    1.484   .     S
C973   C1197   1.327   .     S
C973   H1215   1.086   .     S
C974   O998    1.319   .     A
C974   O999    1.294   .     A
C975   C976    1.429   .     S
C976   O1000   1.290   .     A
C976   O1001   1.298   .     A
C977   C979    1.473   .     S
C977   O1003   1.309   .     A
C977   O1002   1.300   .     A
C978   H1063   1.079   .     S
C980   C981    1.388   .     A
C980   H991    1.078   .     S
C981   C316    1.409   1_556 S
C982   O1015   1.380   .     S
Cu983  O996    1.960   .     S
Cu983  O998    1.949   .     S
Cu983  O1002   1.936   .     S
Cu983  N995    2.032   .     S
Cu983  Cu984   2.704   .     S
Cu983  O1000   1.953   .     S
Cu984  O999    1.936   .     S
Cu984  O997    1.953   .     S
Cu984  N994    2.032   .     S
Cu984  O1001   1.960   .     S
Cu984  O1003   1.949   .     S
H985   C1197   1.088   .     S
H987   N1069   1.029   .     S
H992   C1055   1.083   .     S
N994   H1060   1.029   .     S
N994   N1069   1.304   .     S
O1004  C1079   1.411   .     S
C1005  H1006   1.112   .     S
C1005  C1008   1.538   .     S
H1007  C1079   1.105   .     S
C1008  C1011   1.518   .     S
C1008  H1010   1.111   .     S
C1008  H1009   1.108   .     S
C1011  H1014   1.108   .     S
C1011  H1013   1.111   .     S
C1011  H1234   1.109   .     S
O1015  C1016   1.412   .     S
C1016  H1018   1.115   .     S
C1016  H1017   1.109   .     S
C1019  H1020   1.109   .     S
C1019  H1021   1.111   .     S
C1019  C1022   1.516   .     S
C1019  C1090   1.526   .     S
C1022  H1025   1.110   .     S
C1022  H1024   1.108   .     S
H1023  C1244   1.108   .     S
O1026  C1027   1.425   .     S
C1027  C1030   1.530   .     S
C1027  H1028   1.111   .     S
C1027  H1029   1.118   .     S
C1030  H1032   1.108   .     S
C1030  H1031   1.110   .     S
C1033  H1036   1.109   .     S
C1033  H1034   1.111   .     S
C1033  H1035   1.110   .     S
C1033  C1252   1.528   .     S
C1037  C1047   1.428   .     S
C1037  O1070   1.297   .     A
C1037  O1071   1.290   .     A
C1038  C1039   1.417   .     A
C1038  C374    1.442   1_556 S
C1038  C390    1.432   1_556 S
C1039  C1043   1.413   .     A
C1039  C1046   1.418   .     A
C1040  C1044   1.400   .     A
C1041  C1042   1.388   .     A
C1041  C374    1.420   1_556 S
C1041  C386    1.399   1_556 S
C1042  C1043   1.377   .     A
C1042  H1062   1.079   .     S
C1043  O1100   1.393   .     S
C1044  H1064   1.066   .     S
C1044  C1053   1.405   .     A
C1045  O1078   1.385   .     S
C1045  C1052   1.397   .     A
C1045  C1053   1.406   .     A
C1046  C1054   1.387   .     A
C1046  C1048   1.484   .     S
C1047  C1271   1.327   .     S
C1047  H1289   1.086   .     S
C1048  O1072   1.319   .     A
C1048  O1073   1.294   .     A
C1049  C1050   1.429   .     S
C1050  O1074   1.290   .     A
C1050  O1075   1.298   .     A
C1051  C1053   1.473   .     S
C1051  O1077   1.309   .     A
C1051  O1076   1.300   .     A
C1052  H915    1.079   1_655 S
C1054  C1055   1.388   .     A
C1054  H1065   1.078   .     S
C1055  C390    1.409   1_556 S
C1056  O1089   1.380   .     S
Cu1057 O1070   1.960   .     S
Cu1057 O1072   1.949   .     S
Cu1057 O1076   1.936   .     S
Cu1057 N1069   2.032   .     S
Cu1057 Cu1058  2.704   .     S
Cu1057 O1074   1.953   .     S
Cu1058 O1073   1.936   .     S
Cu1058 O1071   1.953   .     S
Cu1058 N1068   2.032   .     S
Cu1058 O1075   1.960   .     S
Cu1058 O1077   1.949   .     S
H1059  C1271   1.088   .     S
H1061  N921    1.029   1_655 S
H1066  C907    1.083   1_655 S
N1068  H912    1.029   1_655 S
N1068  N921    1.304   1_655 S
O1078  C931    1.411   1_655 S
C1079  H1080   1.112   .     S
C1079  C1082   1.538   .     S
H1081  C931    1.105   1_655 S
C1082  C1085   1.518   .     S
C1082  H1084   1.111   .     S
C1082  H1083   1.108   .     S
C1085  H1088   1.108   .     S
C1085  H1087   1.111   .     S
C1085  H1308   1.109   .     S
O1089  C1090   1.412   .     S
C1090  H1092   1.115   .     S
C1090  H1091   1.109   .     S
C1093  H1094   1.109   .     S
C1093  H1095   1.111   .     S
C1093  C1096   1.516   .     S
C1093  C942    1.526   1_655 S
C1096  H1099   1.110   .     S
C1096  H1098   1.108   .     S
H1097  C1318   1.108   .     S
O1100  C1101   1.425   .     S
C1101  C1104   1.530   .     S
C1101  H1102   1.111   .     S
C1101  H1103   1.118   .     S
C1104  H1106   1.108   .     S
C1104  H1105   1.110   .     S
C1107  H1110   1.109   .     S
C1107  H1108   1.111   .     S
C1107  H1109   1.110   .     S
C1107  C1326   1.528   .     S
C1111  C1121   1.428   .     S
C1111  O1144   1.297   .     A
C1111  O1145   1.290   .     A
C1112  C1113   1.417   .     A
C1112  C448    1.442   1_556 S
C1112  C464    1.432   1_556 S
C1113  C1117   1.413   .     A
C1113  C1120   1.418   .     A
C1114  C1118   1.400   .     A
C1115  C1116   1.388   .     A
C1115  C448    1.420   1_556 S
C1115  C460    1.399   1_556 S
C1116  C1117   1.377   .     A
C1116  H1136   1.079   .     S
C1117  O1174   1.393   .     S
C1118  H1138   1.066   .     S
C1118  C1127   1.405   .     A
C1119  O1152   1.385   .     S
C1119  C1126   1.397   .     A
C1119  C1127   1.406   .     A
C1120  C1128   1.387   .     A
C1120  C1122   1.484   .     S
C1121  C679    1.327   1_565 S
C1121  H697    1.086   1_565 S
C1122  O1146   1.319   .     A
C1122  O1147   1.294   .     A
C1123  C1124   1.429   .     S
C1124  O1148   1.290   .     A
C1124  O1149   1.298   .     A
C1125  C1127   1.473   .     S
C1125  O1151   1.309   .     A
C1125  O1150   1.300   .     A
C1126  H1211   1.079   .     S
C1128  C1129   1.388   .     A
C1128  H1139   1.078   .     S
C1129  C464    1.409   1_556 S
C1129  H1288   1.083   1_455 S
C1130  O1163   1.380   .     S
Cu1131 O1144   1.960   .     S
Cu1131 O1146   1.949   .     S
Cu1131 O1150   1.936   .     S
Cu1131 N1143   2.032   .     S
Cu1131 Cu1132  2.704   .     S
Cu1131 O1148   1.953   .     S
Cu1132 O1147   1.936   .     S
Cu1132 O1145   1.953   .     S
Cu1132 N1142   2.032   .     S
Cu1132 O1149   1.960   .     S
Cu1132 O1151   1.949   .     S
H1133  C679    1.088   1_565 S
H1134  N1290   1.029   1_455 S
H1135  N1217   1.029   .     S
H1137  C1274   1.079   1_455 S
H1140  C1203   1.083   .     S
N1142  H1208   1.029   .     S
N1142  N1217   1.304   .     S
N1143  N1290   1.304   1_455 S
N1143  H1283   1.029   1_455 S
O1152  C1227   1.411   .     S
C1153  H1154   1.112   .     S
C1153  C1156   1.538   .     S
C1153  O1300   1.411   1_455 S
C1153  H1303   1.105   1_455 S
H1155  C1227   1.105   .     S
C1156  C1159   1.518   .     S
C1156  H1158   1.111   .     S
C1156  H1157   1.108   .     S
C1159  H1162   1.108   .     S
C1159  H1161   1.111   .     S
C1159  H716    1.109   1_565 S
O1163  C1164   1.412   .     S
C1164  H1166   1.115   .     S
C1164  H1165   1.109   .     S
C1164  C1315   1.526   1_455 S
C1167  H1168   1.109   .     S
C1167  H1169   1.111   .     S
C1167  C1170   1.516   .     S
C1167  C1238   1.526   .     S
C1170  H1173   1.110   .     S
C1170  H1172   1.108   .     S
H1171  C726    1.108   1_565 S
O1174  C1175   1.425   .     S
C1175  C1178   1.530   .     S
C1175  H1176   1.111   .     S
C1175  H1177   1.118   .     S
C1178  H1180   1.108   .     S
C1178  H1179   1.110   .     S
C1181  H1184   1.109   .     S
C1181  H1182   1.111   .     S
C1181  H1183   1.110   .     S
C1181  C734    1.528   1_565 S
C1185  C1195   1.428   .     S
C1185  O1218   1.297   .     A
C1185  O1219   1.290   .     A
C1186  C1187   1.417   .     A
C1186  C522    1.442   1_556 S
C1186  C538    1.432   1_556 S
C1187  C1191   1.413   .     A
C1187  C1194   1.418   .     A
C1188  C1192   1.400   .     A
C1189  C1190   1.388   .     A
C1189  C522    1.420   1_556 S
C1189  C534    1.399   1_556 S
C1190  C1191   1.377   .     A
C1190  H1210   1.079   .     S
C1191  O1248   1.393   .     S
C1192  H1212   1.066   .     S
C1192  C1201   1.405   .     A
C1193  O1226   1.385   .     S
C1193  C1200   1.397   .     A
C1193  C1201   1.406   .     A
C1194  C1202   1.387   .     A
C1194  C1196   1.484   .     S
C1195  C753    1.327   1_565 S
C1195  H771    1.086   1_565 S
C1196  O1220   1.319   .     A
C1196  O1221   1.294   .     A
C1197  C1198   1.429   .     S
C1198  O1222   1.290   .     A
C1198  O1223   1.298   .     A
C1199  C1201   1.473   .     S
C1199  O1225   1.309   .     A
C1199  O1224   1.300   .     A
C1200  H1285   1.079   .     S
C1202  C1203   1.388   .     A
C1202  H1213   1.078   .     S
C1203  C538    1.409   1_556 S
C1204  O1237   1.380   .     S
Cu1205 O1218   1.960   .     S
Cu1205 O1220   1.949   .     S
Cu1205 O1224   1.936   .     S
Cu1205 N1217   2.032   .     S
Cu1205 Cu1206  2.704   .     S
Cu1205 O1222   1.953   .     S
Cu1206 O1221   1.936   .     S
Cu1206 O1219   1.953   .     S
Cu1206 N1216   2.032   .     S
Cu1206 O1223   1.960   .     S
Cu1206 O1225   1.949   .     S
H1207  C753    1.088   1_565 S
H1209  N1291   1.029   .     S
H1214  C1277   1.083   .     S
N1216  H1282   1.029   .     S
N1216  N1291   1.304   .     S
O1226  C1301   1.411   .     S
C1227  H1228   1.112   .     S
C1227  C1230   1.538   .     S
H1229  C1301   1.105   .     S
C1230  C1233   1.518   .     S
C1230  H1232   1.111   .     S
C1230  H1231   1.108   .     S
C1233  H1236   1.108   .     S
C1233  H1235   1.111   .     S
C1233  H790    1.109   1_565 S
O1237  C1238   1.412   .     S
C1238  H1240   1.115   .     S
C1238  H1239   1.109   .     S
C1241  H1242   1.109   .     S
C1241  H1243   1.111   .     S
C1241  C1244   1.516   .     S
C1241  C1312   1.526   .     S
C1244  H1247   1.110   .     S
C1244  H1246   1.108   .     S
H1245  C800    1.108   1_565 S
O1248  C1249   1.425   .     S
C1249  C1252   1.530   .     S
C1249  H1250   1.111   .     S
C1249  H1251   1.118   .     S
C1252  H1254   1.108   .     S
C1252  H1253   1.110   .     S
C1255  H1258   1.109   .     S
C1255  H1256   1.111   .     S
C1255  H1257   1.110   .     S
C1255  C808    1.528   1_565 S
C1259  C1269   1.428   .     S
C1259  O1292   1.297   .     A
C1259  O1293   1.290   .     A
C1260  C1261   1.417   .     A
C1260  C596    1.442   1_556 S
C1260  C612    1.432   1_556 S
C1261  C1265   1.413   .     A
C1261  C1268   1.418   .     A
C1262  C1266   1.400   .     A
C1263  C1264   1.388   .     A
C1263  C596    1.420   1_556 S
C1263  C608    1.399   1_556 S
C1264  C1265   1.377   .     A
C1264  H1284   1.079   .     S
C1265  O1322   1.393   .     S
C1266  H1286   1.066   .     S
C1266  C1275   1.405   .     A
C1267  O1300   1.385   .     S
C1267  C1274   1.397   .     A
C1267  C1275   1.406   .     A
C1268  C1276   1.387   .     A
C1268  C1270   1.484   .     S
C1269  C827    1.327   1_565 S
C1269  H845    1.086   1_565 S
C1270  O1294   1.319   .     A
C1270  O1295   1.294   .     A
C1271  C1272   1.429   .     S
C1272  O1296   1.290   .     A
C1272  O1297   1.298   .     A
C1273  C1275   1.473   .     S
C1273  O1299   1.309   .     A
C1273  O1298   1.300   .     A
C1274  H1137   1.079   1_655 S
C1276  C1277   1.388   .     A
C1276  H1287   1.078   .     S
C1277  C612    1.409   1_556 S
C1278  O1311   1.380   .     S
Cu1279 O1292   1.960   .     S
Cu1279 O1294   1.949   .     S
Cu1279 O1298   1.936   .     S
Cu1279 N1291   2.032   .     S
Cu1279 Cu1280  2.704   .     S
Cu1279 O1296   1.953   .     S
Cu1280 O1295   1.936   .     S
Cu1280 O1293   1.953   .     S
Cu1280 N1290   2.032   .     S
Cu1280 O1297   1.960   .     S
Cu1280 O1299   1.949   .     S
H1281  C827    1.088   1_565 S
H1283  N1143   1.029   1_655 S
H1288  C1129   1.083   1_655 S
N1290  H1134   1.029   1_655 S
N1290  N1143   1.304   1_655 S
O1300  C1153   1.411   1_655 S
C1301  H1302   1.112   .     S
C1301  C1304   1.538   .     S
H1303  C1153   1.105   1_655 S
C1304  C1307   1.518   .     S
C1304  H1306   1.111   .     S
C1304  H1305   1.108   .     S
C1307  H1310   1.108   .     S
C1307  H1309   1.111   .     S
C1307  H864    1.109   1_565 S
O1311  C1312   1.412   .     S
C1312  H1314   1.115   .     S
C1312  H1313   1.109   .     S
C1315  H1316   1.109   .     S
C1315  H1317   1.111   .     S
C1315  C1318   1.516   .     S
C1315  C1164   1.526   1_655 S
C1318  H1321   1.110   .     S
C1318  H1320   1.108   .     S
H1319  C874    1.108   1_565 S
O1322  C1323   1.425   .     S
C1323  C1326   1.530   .     S
C1323  H1324   1.111   .     S
C1323  H1325   1.118   .     S
C1326  H1328   1.108   .     S
C1326  H1327   1.110   .     S
C1329  H1332   1.109   .     S
C1329  H1330   1.111   .     S
C1329  H1331   1.110   .     S
C1329  C882    1.528   1_565 S
