data_str_m3_o10_o17_pcu_sym.13
_audit_creation_date              2020-01-03
_audit_creation_method            'Materials Studio'
_symmetry_space_group_name_H-M    'P1'
_symmetry_Int_Tables_number       1
_symmetry_cell_setting            triclinic
loop_
_symmetry_equiv_pos_as_xyz
  x,y,z
_cell_length_a                    23.7127
_cell_length_b                    25.8141
_cell_length_c                    29.9024
_cell_angle_alpha                 92.9124
_cell_angle_beta                  85.9613
_cell_angle_gamma                 93.6452
loop_
_atom_site_label
_atom_site_type_symbol
_atom_site_fract_x
_atom_site_fract_y
_atom_site_fract_z
_atom_site_U_iso_or_equiv
_atom_site_adp_type
_atom_site_occupancy
C1     C     0.18162   0.26459   0.24772   0.00000  Uiso   1.00
C2     C     0.19314   0.21351   0.40779   0.00000  Uiso   1.00
C3     C     0.16520   0.16211   0.11572   0.00000  Uiso   1.00
C4     C     0.16851   0.17064   0.38398   0.00000  Uiso   1.00
C5     C     0.20073   0.19787   0.09323   0.00000  Uiso   1.00
C6     C     0.14208   0.12871   0.40525   0.00000  Uiso   1.00
C7     C     0.19884   0.20213   0.04747   0.00000  Uiso   1.00
C8     C     0.13691   0.12777   0.45161   0.00000  Uiso   1.00
C9     C     0.16429   0.16574   0.02323   0.00000  Uiso   1.00
C10    C     0.16398   0.16896   0.47668   0.00000  Uiso   1.00
C11    C     0.13504   0.12319   0.04515   0.00000  Uiso   1.00
C12    C     0.15167   0.06872   0.25218   0.00000  Uiso   1.00
C13    C     0.19411   0.21149   0.45478   0.00000  Uiso   1.00
C14    C     0.23134   0.24216   0.02588   0.00000  Uiso   1.00
C15    C     0.11083   0.08348   0.47251   0.00000  Uiso   1.00
C16    C     0.14011   0.05135   0.13469   0.00000  Uiso   1.00
C17    C     0.11171   0.33110   0.14316   0.00000  Uiso   1.00
C18    C     0.18268   0.28539   0.36766   0.00000  Uiso   1.00
C19    C     0.21364   0.00202   0.35201   0.00000  Uiso   1.00
C20    C     0.24897   0.31046   0.07699   0.00000  Uiso   1.00
C21    C     0.04824   0.04254   0.42347   0.00000  Uiso   1.00
C22    C     0.21867   0.00251   0.47355   0.00000  Uiso   1.00
C23    C     0.22582   0.24930   0.48041   0.00000  Uiso   1.00
C24    C     0.25316   0.05427   0.47361   0.00000  Uiso   1.00
C25    C     0.05778   0.00198   0.03211   0.00000  Uiso   1.00
C26    C     0.07253   0.28126   0.01363   0.00000  Uiso   1.00
C27    C     0.31414   0.08286   0.19137   0.00000  Uiso   1.00
C28    C     0.01842   0.25103   0.30803   0.00000  Uiso   1.00
C29    C     0.11191   0.08034   0.01959   0.00000  Uiso   1.00
C30    C     0.18919   0.31906   0.24587   0.00000  Uiso   1.00
C31    C     0.14385   0.01413   0.25221   0.00000  Uiso   1.00
C32    C     0.16765   0.16852   0.33619   0.00000  Uiso   1.00
C33    C     0.16584   0.16518   0.16370   0.00000  Uiso   1.00
C34    C     0.13416   0.12243   0.09245   0.00000  Uiso   1.00
H35    H     0.22822   0.22377   0.11266   0.00000  Uiso   1.00
H36    H     0.14757   0.29493   0.39279   0.00000  Uiso   1.00
H37    H     0.16331   0.26612   0.33824   0.00000  Uiso   1.00
H38    H     0.24514   0.32650   0.32392   0.00000  Uiso   1.00
H39    H     0.18293   0.02852   0.34086   0.00000  Uiso   1.00
H40    H     0.23660   0.02193   0.37932   0.00000  Uiso   1.00
H41    H     0.26770   0.30992   0.10993   0.00000  Uiso   1.00
H42    H     0.20218   0.30516   0.08272   0.00000  Uiso   1.00
H43    H     0.26032   0.01600   0.06380   0.00000  Uiso   1.00
H44    H     0.05800   0.03317   0.38724   0.00000  Uiso   1.00
H45    H     0.03012   0.08144   0.42722   0.00000  Uiso   1.00
H46    H     0.12682   0.09634   0.38433   0.00000  Uiso   1.00
H47    H     0.01611   0.01210   0.43459   0.00000  Uiso   1.00
H48    H     0.19581   0.33329   0.00699   0.00000  Uiso   1.00
H49    H     0.18675   0.00365   0.44904   0.00000  Uiso   1.00
H50    H     0.22705   0.08528   0.48850   0.00000  Uiso   1.00
H51    H     0.28922   0.05387   0.49463   0.00000  Uiso   1.00
H52    H     0.26758   0.06489   0.43919   0.00000  Uiso   1.00
H53    H     0.02958   0.01889   0.01009   0.00000  Uiso   1.00
H54    H     0.03343   0.33153   0.06489   0.00000  Uiso   1.00
H55    H     0.09530   0.26163   0.03851   0.00000  Uiso   1.00
H56    H     0.03365   0.25722   0.00616   0.00000  Uiso   1.00
H57    H     0.23213   0.00235   0.24037   0.00000  Uiso   1.00
H58    H     0.09993   0.28386   0.48214   0.00000  Uiso   1.00
H59    H     0.27209   0.08913   0.17965   0.00000  Uiso   1.00
H60    H     0.31091   0.05723   0.22031   0.00000  Uiso   1.00
H61    H     0.00427   0.06254   0.16311   0.00000  Uiso   1.00
H62    H     0.02306   0.27552   0.27833   0.00000  Uiso   1.00
H63    H     0.05982   0.24520   0.32121   0.00000  Uiso   1.00
H64    H     0.32679   0.27239   0.33488   0.00000  Uiso   1.00
H65    H     0.10088   0.33086   0.25750   0.00000  Uiso   1.00
H66    H     0.15167   0.06843   0.16735   0.00000  Uiso   1.00
H67    H     0.18002   0.04711   0.11360   0.00000  Uiso   1.00
H68    H     0.10104   0.31033   0.11141   0.00000  Uiso   1.00
H69    H     0.14126   0.30734   0.15927   0.00000  Uiso   1.00
H70    H     0.07282   0.00104   0.16573   0.00000  Uiso   1.00
N71    N     0.31678   0.15265   0.23783   0.00000  Uiso   1.00
N72    N     0.01656   0.18068   0.26217   0.00000  Uiso   1.00
O73    O     0.12975   0.24619   0.25298   0.00000  Uiso   1.00
O74    O     0.22188   0.25378   0.38499   0.00000  Uiso   1.00
O75    O     0.27288   0.27196   0.04762   0.00000  Uiso   1.00
O76    O     0.09749   0.03853   0.44679   0.00000  Uiso   1.00
O77    O     0.25266   0.29331   0.46179   0.00000  Uiso   1.00
O78    O     0.10812   0.03235   0.03922   0.00000  Uiso   1.00
O79    O     0.01097   0.12982   0.20193   0.00000  Uiso   1.00
O80    O     0.32225   0.20358   0.29799   0.00000  Uiso   1.00
O81    O     0.20358   0.08714   0.24701   0.00000  Uiso   1.00
O82    O     0.22613   0.23721   0.24518   0.00000  Uiso   1.00
O83    O     0.10720   0.09613   0.25481   0.00000  Uiso   1.00
O84    O     0.11847   0.17117   0.31997   0.00000  Uiso   1.00
O85    O     0.21486   0.16216   0.18002   0.00000  Uiso   1.00
O86    O     0.21485   0.16219   0.31217   0.00000  Uiso   1.00
O87    O     0.11848   0.17115   0.18782   0.00000  Uiso   1.00
O88    O     0.10288   0.08333   0.11533   0.00000  Uiso   1.00
Zn89   Zn    0.10231   0.17266   0.25521   0.00000  Uiso   1.00
Zn90   Zn    0.23102   0.16067   0.24479   0.00000  Uiso   1.00
C91    C     0.51496   0.26459   0.24772   0.00000  Uiso   1.00
C92    C     0.52648   0.21351   0.40779   0.00000  Uiso   1.00
C93    C     0.49854   0.16211   0.11572   0.00000  Uiso   1.00
C94    C     0.50184   0.17064   0.38398   0.00000  Uiso   1.00
C95    C     0.53407   0.19787   0.09323   0.00000  Uiso   1.00
C96    C     0.47542   0.12871   0.40525   0.00000  Uiso   1.00
C97    C     0.53217   0.20213   0.04747   0.00000  Uiso   1.00
C98    C     0.47024   0.12777   0.45161   0.00000  Uiso   1.00
C99    C     0.49763   0.16574   0.02323   0.00000  Uiso   1.00
C100   C     0.49731   0.16896   0.47668   0.00000  Uiso   1.00
C101   C     0.46837   0.12319   0.04515   0.00000  Uiso   1.00
C102   C     0.48501   0.06872   0.25218   0.00000  Uiso   1.00
C103   C     0.52744   0.21149   0.45478   0.00000  Uiso   1.00
C104   C     0.56467   0.24216   0.02588   0.00000  Uiso   1.00
C105   C     0.44416   0.08348   0.47251   0.00000  Uiso   1.00
C106   C     0.47345   0.05135   0.13469   0.00000  Uiso   1.00
C107   C     0.44505   0.33110   0.14316   0.00000  Uiso   1.00
C108   C     0.51601   0.28539   0.36766   0.00000  Uiso   1.00
C109   C     0.54697   0.00202   0.35201   0.00000  Uiso   1.00
C110   C     0.58230   0.31046   0.07699   0.00000  Uiso   1.00
C111   C     0.38157   0.04254   0.42347   0.00000  Uiso   1.00
C112   C     0.55201   0.00251   0.47355   0.00000  Uiso   1.00
C113   C     0.55915   0.24930   0.48041   0.00000  Uiso   1.00
C114   C     0.58650   0.05427   0.47361   0.00000  Uiso   1.00
C115   C     0.39111   0.00198   0.03211   0.00000  Uiso   1.00
C116   C     0.40587   0.28126   0.01363   0.00000  Uiso   1.00
C117   C     0.64747   0.08286   0.19137   0.00000  Uiso   1.00
C118   C     0.35176   0.25103   0.30803   0.00000  Uiso   1.00
C119   C     0.44524   0.08034   0.01959   0.00000  Uiso   1.00
C120   C     0.52252   0.31906   0.24587   0.00000  Uiso   1.00
C121   C     0.47719   0.01413   0.25221   0.00000  Uiso   1.00
C122   C     0.50098   0.16852   0.33619   0.00000  Uiso   1.00
C123   C     0.49917   0.16518   0.16370   0.00000  Uiso   1.00
C124   C     0.46749   0.12243   0.09245   0.00000  Uiso   1.00
H125   H     0.56155   0.22377   0.11266   0.00000  Uiso   1.00
H126   H     0.48090   0.29493   0.39279   0.00000  Uiso   1.00
H127   H     0.49664   0.26612   0.33824   0.00000  Uiso   1.00
H128   H     0.57847   0.32650   0.32392   0.00000  Uiso   1.00
H129   H     0.51627   0.02852   0.34086   0.00000  Uiso   1.00
H130   H     0.56993   0.02193   0.37932   0.00000  Uiso   1.00
H131   H     0.60103   0.30992   0.10993   0.00000  Uiso   1.00
H132   H     0.53551   0.30516   0.08272   0.00000  Uiso   1.00
H133   H     0.59365   0.01600   0.06380   0.00000  Uiso   1.00
H134   H     0.39133   0.03317   0.38724   0.00000  Uiso   1.00
H135   H     0.36345   0.08144   0.42722   0.00000  Uiso   1.00
H136   H     0.46015   0.09634   0.38433   0.00000  Uiso   1.00
H137   H     0.34944   0.01210   0.43459   0.00000  Uiso   1.00
H138   H     0.52914   0.33329   0.00699   0.00000  Uiso   1.00
H139   H     0.52008   0.00365   0.44904   0.00000  Uiso   1.00
H140   H     0.56038   0.08528   0.48850   0.00000  Uiso   1.00
H141   H     0.62256   0.05387   0.49463   0.00000  Uiso   1.00
H142   H     0.60091   0.06489   0.43919   0.00000  Uiso   1.00
H143   H     0.36291   0.01889   0.01009   0.00000  Uiso   1.00
H144   H     0.36676   0.33153   0.06489   0.00000  Uiso   1.00
H145   H     0.42864   0.26163   0.03851   0.00000  Uiso   1.00
H146   H     0.36699   0.25722   0.00616   0.00000  Uiso   1.00
H147   H     0.56547   0.00235   0.24037   0.00000  Uiso   1.00
H148   H     0.43326   0.28386   0.48214   0.00000  Uiso   1.00
H149   H     0.60543   0.08913   0.17965   0.00000  Uiso   1.00
H150   H     0.64424   0.05723   0.22031   0.00000  Uiso   1.00
H151   H     0.33761   0.06254   0.16311   0.00000  Uiso   1.00
H152   H     0.35640   0.27552   0.27833   0.00000  Uiso   1.00
H153   H     0.39316   0.24520   0.32121   0.00000  Uiso   1.00
H154   H     0.66013   0.27239   0.33488   0.00000  Uiso   1.00
H155   H     0.43421   0.33086   0.25750   0.00000  Uiso   1.00
H156   H     0.48500   0.06843   0.16735   0.00000  Uiso   1.00
H157   H     0.51336   0.04711   0.11360   0.00000  Uiso   1.00
H158   H     0.43437   0.31033   0.11141   0.00000  Uiso   1.00
H159   H     0.47459   0.30734   0.15927   0.00000  Uiso   1.00
H160   H     0.40616   0.00104   0.16573   0.00000  Uiso   1.00
N161   N     0.65011   0.15265   0.23783   0.00000  Uiso   1.00
N162   N     0.34989   0.18068   0.26217   0.00000  Uiso   1.00
O163   O     0.46308   0.24619   0.25298   0.00000  Uiso   1.00
O164   O     0.55521   0.25378   0.38499   0.00000  Uiso   1.00
O165   O     0.60621   0.27196   0.04762   0.00000  Uiso   1.00
O166   O     0.43082   0.03853   0.44679   0.00000  Uiso   1.00
O167   O     0.58599   0.29331   0.46179   0.00000  Uiso   1.00
O168   O     0.44146   0.03235   0.03922   0.00000  Uiso   1.00
O169   O     0.34430   0.12982   0.20193   0.00000  Uiso   1.00
O170   O     0.65559   0.20358   0.29799   0.00000  Uiso   1.00
O171   O     0.53692   0.08714   0.24701   0.00000  Uiso   1.00
O172   O     0.55946   0.23721   0.24518   0.00000  Uiso   1.00
O173   O     0.44054   0.09613   0.25481   0.00000  Uiso   1.00
O174   O     0.45181   0.17117   0.31997   0.00000  Uiso   1.00
O175   O     0.54819   0.16216   0.18002   0.00000  Uiso   1.00
O176   O     0.54819   0.16219   0.31217   0.00000  Uiso   1.00
O177   O     0.45181   0.17115   0.18782   0.00000  Uiso   1.00
O178   O     0.43622   0.08333   0.11533   0.00000  Uiso   1.00
Zn179  Zn    0.43565   0.17266   0.25521   0.00000  Uiso   1.00
Zn180  Zn    0.56435   0.16067   0.24479   0.00000  Uiso   1.00
C181   C     0.84829   0.26459   0.24772   0.00000  Uiso   1.00
C182   C     0.85981   0.21351   0.40779   0.00000  Uiso   1.00
C183   C     0.83187   0.16211   0.11572   0.00000  Uiso   1.00
C184   C     0.83517   0.17064   0.38398   0.00000  Uiso   1.00
C185   C     0.86740   0.19787   0.09323   0.00000  Uiso   1.00
C186   C     0.80875   0.12871   0.40525   0.00000  Uiso   1.00
C187   C     0.86550   0.20213   0.04747   0.00000  Uiso   1.00
C188   C     0.80358   0.12777   0.45161   0.00000  Uiso   1.00
C189   C     0.83096   0.16574   0.02323   0.00000  Uiso   1.00
C190   C     0.83065   0.16896   0.47668   0.00000  Uiso   1.00
C191   C     0.80171   0.12319   0.04515   0.00000  Uiso   1.00
C192   C     0.81834   0.06872   0.25218   0.00000  Uiso   1.00
C193   C     0.86078   0.21149   0.45478   0.00000  Uiso   1.00
C194   C     0.89801   0.24216   0.02588   0.00000  Uiso   1.00
C195   C     0.77750   0.08348   0.47251   0.00000  Uiso   1.00
C196   C     0.80678   0.05135   0.13469   0.00000  Uiso   1.00
C197   C     0.77838   0.33110   0.14316   0.00000  Uiso   1.00
C198   C     0.84935   0.28539   0.36766   0.00000  Uiso   1.00
C199   C     0.88030   0.00202   0.35201   0.00000  Uiso   1.00
C200   C     0.91564   0.31046   0.07699   0.00000  Uiso   1.00
C201   C     0.71490   0.04254   0.42347   0.00000  Uiso   1.00
C202   C     0.88534   0.00251   0.47355   0.00000  Uiso   1.00
C203   C     0.89249   0.24930   0.48041   0.00000  Uiso   1.00
C204   C     0.91983   0.05427   0.47361   0.00000  Uiso   1.00
C205   C     0.72444   0.00198   0.03211   0.00000  Uiso   1.00
C206   C     0.73920   0.28126   0.01363   0.00000  Uiso   1.00
C207   C     0.98081   0.08286   0.19137   0.00000  Uiso   1.00
C208   C     0.68509   0.25103   0.30803   0.00000  Uiso   1.00
C209   C     0.77857   0.08034   0.01959   0.00000  Uiso   1.00
C210   C     0.85586   0.31906   0.24587   0.00000  Uiso   1.00
C211   C     0.81052   0.01413   0.25221   0.00000  Uiso   1.00
C212   C     0.83431   0.16852   0.33619   0.00000  Uiso   1.00
C213   C     0.83250   0.16518   0.16370   0.00000  Uiso   1.00
C214   C     0.80082   0.12243   0.09245   0.00000  Uiso   1.00
H215   H     0.89488   0.22377   0.11266   0.00000  Uiso   1.00
H216   H     0.81424   0.29493   0.39279   0.00000  Uiso   1.00
H217   H     0.82997   0.26612   0.33824   0.00000  Uiso   1.00
H218   H     0.91180   0.32650   0.32392   0.00000  Uiso   1.00
H219   H     0.84960   0.02852   0.34086   0.00000  Uiso   1.00
H220   H     0.90326   0.02193   0.37932   0.00000  Uiso   1.00
H221   H     0.93437   0.30992   0.10993   0.00000  Uiso   1.00
H222   H     0.86885   0.30516   0.08272   0.00000  Uiso   1.00
H223   H     0.92699   0.01600   0.06380   0.00000  Uiso   1.00
H224   H     0.72467   0.03317   0.38724   0.00000  Uiso   1.00
H225   H     0.69678   0.08144   0.42722   0.00000  Uiso   1.00
H226   H     0.79349   0.09634   0.38433   0.00000  Uiso   1.00
H227   H     0.68278   0.01210   0.43459   0.00000  Uiso   1.00
H228   H     0.86247   0.33329   0.00699   0.00000  Uiso   1.00
H229   H     0.85341   0.00365   0.44904   0.00000  Uiso   1.00
H230   H     0.89371   0.08528   0.48850   0.00000  Uiso   1.00
H231   H     0.95589   0.05387   0.49463   0.00000  Uiso   1.00
H232   H     0.93425   0.06489   0.43919   0.00000  Uiso   1.00
H233   H     0.69624   0.01889   0.01009   0.00000  Uiso   1.00
H234   H     0.70009   0.33153   0.06489   0.00000  Uiso   1.00
H235   H     0.76197   0.26163   0.03851   0.00000  Uiso   1.00
H236   H     0.70032   0.25722   0.00616   0.00000  Uiso   1.00
H237   H     0.89880   0.00235   0.24037   0.00000  Uiso   1.00
H238   H     0.76659   0.28386   0.48214   0.00000  Uiso   1.00
H239   H     0.93876   0.08913   0.17965   0.00000  Uiso   1.00
H240   H     0.97758   0.05723   0.22031   0.00000  Uiso   1.00
H241   H     0.67094   0.06254   0.16311   0.00000  Uiso   1.00
H242   H     0.68973   0.27552   0.27833   0.00000  Uiso   1.00
H243   H     0.72649   0.24520   0.32121   0.00000  Uiso   1.00
H244   H     0.99346   0.27239   0.33488   0.00000  Uiso   1.00
H245   H     0.76754   0.33086   0.25750   0.00000  Uiso   1.00
H246   H     0.81834   0.06843   0.16735   0.00000  Uiso   1.00
H247   H     0.84669   0.04711   0.11360   0.00000  Uiso   1.00
H248   H     0.76771   0.31033   0.11141   0.00000  Uiso   1.00
H249   H     0.80793   0.30734   0.15927   0.00000  Uiso   1.00
H250   H     0.73949   0.00104   0.16573   0.00000  Uiso   1.00
N251   N     0.98344   0.15265   0.23783   0.00000  Uiso   1.00
N252   N     0.68322   0.18068   0.26217   0.00000  Uiso   1.00
O253   O     0.79642   0.24619   0.25298   0.00000  Uiso   1.00
O254   O     0.88854   0.25378   0.38499   0.00000  Uiso   1.00
O255   O     0.93955   0.27196   0.04762   0.00000  Uiso   1.00
O256   O     0.76416   0.03853   0.44679   0.00000  Uiso   1.00
O257   O     0.91932   0.29331   0.46179   0.00000  Uiso   1.00
O258   O     0.77479   0.03235   0.03922   0.00000  Uiso   1.00
O259   O     0.67763   0.12982   0.20193   0.00000  Uiso   1.00
O260   O     0.98892   0.20358   0.29799   0.00000  Uiso   1.00
O261   O     0.87025   0.08714   0.24701   0.00000  Uiso   1.00
O262   O     0.89280   0.23721   0.24518   0.00000  Uiso   1.00
O263   O     0.77387   0.09613   0.25481   0.00000  Uiso   1.00
O264   O     0.78514   0.17117   0.31997   0.00000  Uiso   1.00
O265   O     0.88153   0.16216   0.18002   0.00000  Uiso   1.00
O266   O     0.88152   0.16219   0.31217   0.00000  Uiso   1.00
O267   O     0.78515   0.17115   0.18782   0.00000  Uiso   1.00
O268   O     0.76955   0.08333   0.11533   0.00000  Uiso   1.00
Zn269  Zn    0.76898   0.17266   0.25521   0.00000  Uiso   1.00
Zn270  Zn    0.89769   0.16067   0.24479   0.00000  Uiso   1.00
C271   C     0.18162   0.59792   0.24772   0.00000  Uiso   1.00
C272   C     0.19314   0.54685   0.40779   0.00000  Uiso   1.00
C273   C     0.16520   0.49544   0.11572   0.00000  Uiso   1.00
C274   C     0.16851   0.50398   0.38398   0.00000  Uiso   1.00
C275   C     0.20073   0.53121   0.09323   0.00000  Uiso   1.00
C276   C     0.14208   0.46204   0.40525   0.00000  Uiso   1.00
C277   C     0.19884   0.53546   0.04747   0.00000  Uiso   1.00
C278   C     0.13691   0.46111   0.45161   0.00000  Uiso   1.00
C279   C     0.16429   0.49907   0.02323   0.00000  Uiso   1.00
C280   C     0.16398   0.50229   0.47668   0.00000  Uiso   1.00
C281   C     0.13504   0.45652   0.04515   0.00000  Uiso   1.00
C282   C     0.15167   0.40205   0.25218   0.00000  Uiso   1.00
C283   C     0.19411   0.54482   0.45478   0.00000  Uiso   1.00
C284   C     0.23134   0.57549   0.02588   0.00000  Uiso   1.00
C285   C     0.11083   0.41682   0.47251   0.00000  Uiso   1.00
C286   C     0.14011   0.38469   0.13469   0.00000  Uiso   1.00
C287   C     0.11171   0.66443   0.14316   0.00000  Uiso   1.00
C288   C     0.18268   0.61872   0.36766   0.00000  Uiso   1.00
C289   C     0.21364   0.33535   0.35201   0.00000  Uiso   1.00
C290   C     0.24897   0.64379   0.07699   0.00000  Uiso   1.00
C291   C     0.04824   0.37587   0.42347   0.00000  Uiso   1.00
C292   C     0.21867   0.33585   0.47355   0.00000  Uiso   1.00
C293   C     0.22582   0.58263   0.48041   0.00000  Uiso   1.00
C294   C     0.25316   0.38761   0.47361   0.00000  Uiso   1.00
C295   C     0.05778   0.33531   0.03211   0.00000  Uiso   1.00
C296   C     0.07253   0.61459   0.01363   0.00000  Uiso   1.00
C297   C     0.31414   0.41619   0.19137   0.00000  Uiso   1.00
C298   C     0.01842   0.58436   0.30803   0.00000  Uiso   1.00
C299   C     0.11191   0.41367   0.01959   0.00000  Uiso   1.00
C300   C     0.18919   0.65240   0.24587   0.00000  Uiso   1.00
C301   C     0.14385   0.34746   0.25221   0.00000  Uiso   1.00
C302   C     0.16765   0.50185   0.33619   0.00000  Uiso   1.00
C303   C     0.16584   0.49851   0.16370   0.00000  Uiso   1.00
C304   C     0.13416   0.45577   0.09245   0.00000  Uiso   1.00
H305   H     0.22822   0.55711   0.11266   0.00000  Uiso   1.00
H306   H     0.14757   0.62826   0.39279   0.00000  Uiso   1.00
H307   H     0.16331   0.59945   0.33824   0.00000  Uiso   1.00
H308   H     0.24514   0.65984   0.32392   0.00000  Uiso   1.00
H309   H     0.18293   0.36186   0.34086   0.00000  Uiso   1.00
H310   H     0.23660   0.35527   0.37932   0.00000  Uiso   1.00
H311   H     0.26770   0.64325   0.10993   0.00000  Uiso   1.00
H312   H     0.20218   0.63849   0.08272   0.00000  Uiso   1.00
H313   H     0.26032   0.34934   0.06380   0.00000  Uiso   1.00
H314   H     0.05800   0.36651   0.38724   0.00000  Uiso   1.00
H315   H     0.03012   0.41477   0.42722   0.00000  Uiso   1.00
H316   H     0.12682   0.42967   0.38433   0.00000  Uiso   1.00
H317   H     0.01611   0.34543   0.43459   0.00000  Uiso   1.00
H318   H     0.19581   0.66662   0.00699   0.00000  Uiso   1.00
H319   H     0.18675   0.33698   0.44904   0.00000  Uiso   1.00
H320   H     0.22705   0.41861   0.48850   0.00000  Uiso   1.00
H321   H     0.28922   0.38721   0.49463   0.00000  Uiso   1.00
H322   H     0.26758   0.39823   0.43919   0.00000  Uiso   1.00
H323   H     0.02958   0.35223   0.01009   0.00000  Uiso   1.00
H324   H     0.03343   0.66487   0.06489   0.00000  Uiso   1.00
H325   H     0.09530   0.59496   0.03851   0.00000  Uiso   1.00
H326   H     0.03365   0.59056   0.00616   0.00000  Uiso   1.00
H327   H     0.23213   0.33568   0.24037   0.00000  Uiso   1.00
H328   H     0.09993   0.61720   0.48214   0.00000  Uiso   1.00
H329   H     0.27209   0.42246   0.17965   0.00000  Uiso   1.00
H330   H     0.31091   0.39057   0.22031   0.00000  Uiso   1.00
H331   H     0.00427   0.39588   0.16311   0.00000  Uiso   1.00
H332   H     0.02306   0.60886   0.27833   0.00000  Uiso   1.00
H333   H     0.05982   0.57853   0.32121   0.00000  Uiso   1.00
H334   H     0.32679   0.60573   0.33488   0.00000  Uiso   1.00
H335   H     0.10088   0.66419   0.25750   0.00000  Uiso   1.00
H336   H     0.15167   0.40176   0.16735   0.00000  Uiso   1.00
H337   H     0.18002   0.38044   0.11360   0.00000  Uiso   1.00
H338   H     0.10104   0.64366   0.11141   0.00000  Uiso   1.00
H339   H     0.14126   0.64067   0.15927   0.00000  Uiso   1.00
H340   H     0.07282   0.33437   0.16573   0.00000  Uiso   1.00
N341   N     0.31678   0.48598   0.23783   0.00000  Uiso   1.00
N342   N     0.01656   0.51402   0.26217   0.00000  Uiso   1.00
O343   O     0.12975   0.57952   0.25298   0.00000  Uiso   1.00
O344   O     0.22188   0.58711   0.38499   0.00000  Uiso   1.00
O345   O     0.27288   0.60529   0.04762   0.00000  Uiso   1.00
O346   O     0.09749   0.37186   0.44679   0.00000  Uiso   1.00
O347   O     0.25266   0.62665   0.46179   0.00000  Uiso   1.00
O348   O     0.10812   0.36569   0.03922   0.00000  Uiso   1.00
O349   O     0.01097   0.46316   0.20193   0.00000  Uiso   1.00
O350   O     0.32225   0.53692   0.29799   0.00000  Uiso   1.00
O351   O     0.20358   0.42048   0.24701   0.00000  Uiso   1.00
O352   O     0.22613   0.57054   0.24518   0.00000  Uiso   1.00
O353   O     0.10720   0.42946   0.25481   0.00000  Uiso   1.00
O354   O     0.11847   0.50450   0.31997   0.00000  Uiso   1.00
O355   O     0.21486   0.49550   0.18002   0.00000  Uiso   1.00
O356   O     0.21485   0.49552   0.31217   0.00000  Uiso   1.00
O357   O     0.11848   0.50448   0.18782   0.00000  Uiso   1.00
O358   O     0.10288   0.41666   0.11533   0.00000  Uiso   1.00
Zn359  Zn    0.10231   0.50600   0.25521   0.00000  Uiso   1.00
Zn360  Zn    0.23102   0.49400   0.24479   0.00000  Uiso   1.00
C361   C     0.51496   0.59792   0.24772   0.00000  Uiso   1.00
C362   C     0.52648   0.54685   0.40779   0.00000  Uiso   1.00
C363   C     0.49854   0.49544   0.11572   0.00000  Uiso   1.00
C364   C     0.50184   0.50398   0.38398   0.00000  Uiso   1.00
C365   C     0.53407   0.53121   0.09323   0.00000  Uiso   1.00
C366   C     0.47542   0.46204   0.40525   0.00000  Uiso   1.00
C367   C     0.53217   0.53546   0.04747   0.00000  Uiso   1.00
C368   C     0.47024   0.46111   0.45161   0.00000  Uiso   1.00
C369   C     0.49763   0.49907   0.02323   0.00000  Uiso   1.00
C370   C     0.49731   0.50229   0.47668   0.00000  Uiso   1.00
C371   C     0.46837   0.45652   0.04515   0.00000  Uiso   1.00
C372   C     0.48501   0.40205   0.25218   0.00000  Uiso   1.00
C373   C     0.52744   0.54482   0.45478   0.00000  Uiso   1.00
C374   C     0.56467   0.57549   0.02588   0.00000  Uiso   1.00
C375   C     0.44416   0.41682   0.47251   0.00000  Uiso   1.00
C376   C     0.47345   0.38469   0.13469   0.00000  Uiso   1.00
C377   C     0.44505   0.66443   0.14316   0.00000  Uiso   1.00
C378   C     0.51601   0.61872   0.36766   0.00000  Uiso   1.00
C379   C     0.54697   0.33535   0.35201   0.00000  Uiso   1.00
C380   C     0.58230   0.64379   0.07699   0.00000  Uiso   1.00
C381   C     0.38157   0.37587   0.42347   0.00000  Uiso   1.00
C382   C     0.55201   0.33585   0.47355   0.00000  Uiso   1.00
C383   C     0.55915   0.58263   0.48041   0.00000  Uiso   1.00
C384   C     0.58650   0.38761   0.47361   0.00000  Uiso   1.00
C385   C     0.39111   0.33531   0.03211   0.00000  Uiso   1.00
C386   C     0.40587   0.61459   0.01363   0.00000  Uiso   1.00
C387   C     0.64747   0.41619   0.19137   0.00000  Uiso   1.00
C388   C     0.35176   0.58436   0.30803   0.00000  Uiso   1.00
C389   C     0.44524   0.41367   0.01959   0.00000  Uiso   1.00
C390   C     0.52252   0.65240   0.24587   0.00000  Uiso   1.00
C391   C     0.47719   0.34746   0.25221   0.00000  Uiso   1.00
C392   C     0.50098   0.50185   0.33619   0.00000  Uiso   1.00
C393   C     0.49917   0.49851   0.16370   0.00000  Uiso   1.00
C394   C     0.46749   0.45577   0.09245   0.00000  Uiso   1.00
H395   H     0.56155   0.55711   0.11266   0.00000  Uiso   1.00
H396   H     0.48090   0.62826   0.39279   0.00000  Uiso   1.00
H397   H     0.49664   0.59945   0.33824   0.00000  Uiso   1.00
H398   H     0.57847   0.65984   0.32392   0.00000  Uiso   1.00
H399   H     0.51627   0.36186   0.34086   0.00000  Uiso   1.00
H400   H     0.56993   0.35527   0.37932   0.00000  Uiso   1.00
H401   H     0.60103   0.64325   0.10993   0.00000  Uiso   1.00
H402   H     0.53551   0.63849   0.08272   0.00000  Uiso   1.00
H403   H     0.59365   0.34934   0.06380   0.00000  Uiso   1.00
H404   H     0.39133   0.36651   0.38724   0.00000  Uiso   1.00
H405   H     0.36345   0.41477   0.42722   0.00000  Uiso   1.00
H406   H     0.46015   0.42967   0.38433   0.00000  Uiso   1.00
H407   H     0.34944   0.34543   0.43459   0.00000  Uiso   1.00
H408   H     0.52914   0.66662   0.00699   0.00000  Uiso   1.00
H409   H     0.52008   0.33698   0.44904   0.00000  Uiso   1.00
H410   H     0.56038   0.41861   0.48850   0.00000  Uiso   1.00
H411   H     0.62256   0.38721   0.49463   0.00000  Uiso   1.00
H412   H     0.60091   0.39823   0.43919   0.00000  Uiso   1.00
H413   H     0.36291   0.35223   0.01009   0.00000  Uiso   1.00
H414   H     0.36676   0.66487   0.06489   0.00000  Uiso   1.00
H415   H     0.42864   0.59496   0.03851   0.00000  Uiso   1.00
H416   H     0.36699   0.59056   0.00616   0.00000  Uiso   1.00
H417   H     0.56547   0.33568   0.24037   0.00000  Uiso   1.00
H418   H     0.43326   0.61720   0.48214   0.00000  Uiso   1.00
H419   H     0.60543   0.42246   0.17965   0.00000  Uiso   1.00
H420   H     0.64424   0.39057   0.22031   0.00000  Uiso   1.00
H421   H     0.33761   0.39588   0.16311   0.00000  Uiso   1.00
H422   H     0.35640   0.60886   0.27833   0.00000  Uiso   1.00
H423   H     0.39316   0.57853   0.32121   0.00000  Uiso   1.00
H424   H     0.66013   0.60573   0.33488   0.00000  Uiso   1.00
H425   H     0.43421   0.66419   0.25750   0.00000  Uiso   1.00
H426   H     0.48500   0.40176   0.16735   0.00000  Uiso   1.00
H427   H     0.51336   0.38044   0.11360   0.00000  Uiso   1.00
H428   H     0.43437   0.64366   0.11141   0.00000  Uiso   1.00
H429   H     0.47459   0.64067   0.15927   0.00000  Uiso   1.00
H430   H     0.40616   0.33437   0.16573   0.00000  Uiso   1.00
N431   N     0.65011   0.48598   0.23783   0.00000  Uiso   1.00
N432   N     0.34989   0.51402   0.26217   0.00000  Uiso   1.00
O433   O     0.46308   0.57952   0.25298   0.00000  Uiso   1.00
O434   O     0.55521   0.58711   0.38499   0.00000  Uiso   1.00
O435   O     0.60621   0.60529   0.04762   0.00000  Uiso   1.00
O436   O     0.43082   0.37186   0.44679   0.00000  Uiso   1.00
O437   O     0.58599   0.62665   0.46179   0.00000  Uiso   1.00
O438   O     0.44146   0.36569   0.03922   0.00000  Uiso   1.00
O439   O     0.34430   0.46316   0.20193   0.00000  Uiso   1.00
O440   O     0.65559   0.53692   0.29799   0.00000  Uiso   1.00
O441   O     0.53692   0.42048   0.24701   0.00000  Uiso   1.00
O442   O     0.55946   0.57054   0.24518   0.00000  Uiso   1.00
O443   O     0.44054   0.42946   0.25481   0.00000  Uiso   1.00
O444   O     0.45181   0.50450   0.31997   0.00000  Uiso   1.00
O445   O     0.54819   0.49550   0.18002   0.00000  Uiso   1.00
O446   O     0.54819   0.49552   0.31217   0.00000  Uiso   1.00
O447   O     0.45181   0.50448   0.18782   0.00000  Uiso   1.00
O448   O     0.43622   0.41666   0.11533   0.00000  Uiso   1.00
Zn449  Zn    0.43565   0.50600   0.25521   0.00000  Uiso   1.00
Zn450  Zn    0.56435   0.49400   0.24479   0.00000  Uiso   1.00
C451   C     0.84829   0.59792   0.24772   0.00000  Uiso   1.00
C452   C     0.85981   0.54685   0.40779   0.00000  Uiso   1.00
C453   C     0.83187   0.49544   0.11572   0.00000  Uiso   1.00
C454   C     0.83517   0.50398   0.38398   0.00000  Uiso   1.00
C455   C     0.86740   0.53121   0.09323   0.00000  Uiso   1.00
C456   C     0.80875   0.46204   0.40525   0.00000  Uiso   1.00
C457   C     0.86550   0.53546   0.04747   0.00000  Uiso   1.00
C458   C     0.80358   0.46111   0.45161   0.00000  Uiso   1.00
C459   C     0.83096   0.49907   0.02323   0.00000  Uiso   1.00
C460   C     0.83065   0.50229   0.47668   0.00000  Uiso   1.00
C461   C     0.80171   0.45652   0.04515   0.00000  Uiso   1.00
C462   C     0.81834   0.40205   0.25218   0.00000  Uiso   1.00
C463   C     0.86078   0.54482   0.45478   0.00000  Uiso   1.00
C464   C     0.89801   0.57549   0.02588   0.00000  Uiso   1.00
C465   C     0.77750   0.41682   0.47251   0.00000  Uiso   1.00
C466   C     0.80678   0.38469   0.13469   0.00000  Uiso   1.00
C467   C     0.77838   0.66443   0.14316   0.00000  Uiso   1.00
C468   C     0.84935   0.61872   0.36766   0.00000  Uiso   1.00
C469   C     0.88030   0.33535   0.35201   0.00000  Uiso   1.00
C470   C     0.91564   0.64379   0.07699   0.00000  Uiso   1.00
C471   C     0.71490   0.37587   0.42347   0.00000  Uiso   1.00
C472   C     0.88534   0.33585   0.47355   0.00000  Uiso   1.00
C473   C     0.89249   0.58263   0.48041   0.00000  Uiso   1.00
C474   C     0.91983   0.38761   0.47361   0.00000  Uiso   1.00
C475   C     0.72444   0.33531   0.03211   0.00000  Uiso   1.00
C476   C     0.73920   0.61459   0.01363   0.00000  Uiso   1.00
C477   C     0.98081   0.41619   0.19137   0.00000  Uiso   1.00
C478   C     0.68509   0.58436   0.30803   0.00000  Uiso   1.00
C479   C     0.77857   0.41367   0.01959   0.00000  Uiso   1.00
C480   C     0.85586   0.65240   0.24587   0.00000  Uiso   1.00
C481   C     0.81052   0.34746   0.25221   0.00000  Uiso   1.00
C482   C     0.83431   0.50185   0.33619   0.00000  Uiso   1.00
C483   C     0.83250   0.49851   0.16370   0.00000  Uiso   1.00
C484   C     0.80082   0.45577   0.09245   0.00000  Uiso   1.00
H485   H     0.89488   0.55711   0.11266   0.00000  Uiso   1.00
H486   H     0.81424   0.62826   0.39279   0.00000  Uiso   1.00
H487   H     0.82997   0.59945   0.33824   0.00000  Uiso   1.00
H488   H     0.91180   0.65984   0.32392   0.00000  Uiso   1.00
H489   H     0.84960   0.36186   0.34086   0.00000  Uiso   1.00
H490   H     0.90326   0.35527   0.37932   0.00000  Uiso   1.00
H491   H     0.93437   0.64325   0.10993   0.00000  Uiso   1.00
H492   H     0.86885   0.63849   0.08272   0.00000  Uiso   1.00
H493   H     0.92699   0.34934   0.06380   0.00000  Uiso   1.00
H494   H     0.72467   0.36651   0.38724   0.00000  Uiso   1.00
H495   H     0.69678   0.41477   0.42722   0.00000  Uiso   1.00
H496   H     0.79349   0.42967   0.38433   0.00000  Uiso   1.00
H497   H     0.68278   0.34543   0.43459   0.00000  Uiso   1.00
H498   H     0.86247   0.66662   0.00699   0.00000  Uiso   1.00
H499   H     0.85341   0.33698   0.44904   0.00000  Uiso   1.00
H500   H     0.89371   0.41861   0.48850   0.00000  Uiso   1.00
H501   H     0.95589   0.38721   0.49463   0.00000  Uiso   1.00
H502   H     0.93425   0.39823   0.43919   0.00000  Uiso   1.00
H503   H     0.69624   0.35223   0.01009   0.00000  Uiso   1.00
H504   H     0.70009   0.66487   0.06489   0.00000  Uiso   1.00
H505   H     0.76197   0.59496   0.03851   0.00000  Uiso   1.00
H506   H     0.70032   0.59056   0.00616   0.00000  Uiso   1.00
H507   H     0.89880   0.33568   0.24037   0.00000  Uiso   1.00
H508   H     0.76659   0.61720   0.48214   0.00000  Uiso   1.00
H509   H     0.93876   0.42246   0.17965   0.00000  Uiso   1.00
H510   H     0.97758   0.39057   0.22031   0.00000  Uiso   1.00
H511   H     0.67094   0.39588   0.16311   0.00000  Uiso   1.00
H512   H     0.68973   0.60886   0.27833   0.00000  Uiso   1.00
H513   H     0.72649   0.57853   0.32121   0.00000  Uiso   1.00
H514   H     0.99346   0.60573   0.33488   0.00000  Uiso   1.00
H515   H     0.76754   0.66419   0.25750   0.00000  Uiso   1.00
H516   H     0.81834   0.40176   0.16735   0.00000  Uiso   1.00
H517   H     0.84669   0.38044   0.11360   0.00000  Uiso   1.00
H518   H     0.76771   0.64366   0.11141   0.00000  Uiso   1.00
H519   H     0.80793   0.64067   0.15927   0.00000  Uiso   1.00
H520   H     0.73949   0.33437   0.16573   0.00000  Uiso   1.00
N521   N     0.98344   0.48598   0.23783   0.00000  Uiso   1.00
N522   N     0.68322   0.51402   0.26217   0.00000  Uiso   1.00
O523   O     0.79642   0.57952   0.25298   0.00000  Uiso   1.00
O524   O     0.88854   0.58711   0.38499   0.00000  Uiso   1.00
O525   O     0.93955   0.60529   0.04762   0.00000  Uiso   1.00
O526   O     0.76416   0.37186   0.44679   0.00000  Uiso   1.00
O527   O     0.91932   0.62665   0.46179   0.00000  Uiso   1.00
O528   O     0.77479   0.36569   0.03922   0.00000  Uiso   1.00
O529   O     0.67763   0.46316   0.20193   0.00000  Uiso   1.00
O530   O     0.98892   0.53692   0.29799   0.00000  Uiso   1.00
O531   O     0.87025   0.42048   0.24701   0.00000  Uiso   1.00
O532   O     0.89280   0.57054   0.24518   0.00000  Uiso   1.00
O533   O     0.77387   0.42946   0.25481   0.00000  Uiso   1.00
O534   O     0.78514   0.50450   0.31997   0.00000  Uiso   1.00
O535   O     0.88153   0.49550   0.18002   0.00000  Uiso   1.00
O536   O     0.88152   0.49552   0.31217   0.00000  Uiso   1.00
O537   O     0.78515   0.50448   0.18782   0.00000  Uiso   1.00
O538   O     0.76955   0.41666   0.11533   0.00000  Uiso   1.00
Zn539  Zn    0.76898   0.50600   0.25521   0.00000  Uiso   1.00
Zn540  Zn    0.89769   0.49400   0.24479   0.00000  Uiso   1.00
C541   C     0.18162   0.93126   0.24772   0.00000  Uiso   1.00
C542   C     0.19314   0.88018   0.40779   0.00000  Uiso   1.00
C543   C     0.16520   0.82877   0.11572   0.00000  Uiso   1.00
C544   C     0.16851   0.83731   0.38398   0.00000  Uiso   1.00
C545   C     0.20073   0.86454   0.09323   0.00000  Uiso   1.00
C546   C     0.14208   0.79538   0.40525   0.00000  Uiso   1.00
C547   C     0.19884   0.86879   0.04747   0.00000  Uiso   1.00
C548   C     0.13691   0.79444   0.45161   0.00000  Uiso   1.00
C549   C     0.16429   0.83240   0.02323   0.00000  Uiso   1.00
C550   C     0.16398   0.83563   0.47668   0.00000  Uiso   1.00
C551   C     0.13504   0.78986   0.04515   0.00000  Uiso   1.00
C552   C     0.15167   0.73538   0.25218   0.00000  Uiso   1.00
C553   C     0.19411   0.87816   0.45478   0.00000  Uiso   1.00
C554   C     0.23134   0.90882   0.02588   0.00000  Uiso   1.00
C555   C     0.11083   0.75015   0.47251   0.00000  Uiso   1.00
C556   C     0.14011   0.71802   0.13469   0.00000  Uiso   1.00
C557   C     0.11171   0.99776   0.14316   0.00000  Uiso   1.00
C558   C     0.18268   0.95206   0.36766   0.00000  Uiso   1.00
C559   C     0.21364   0.66869   0.35201   0.00000  Uiso   1.00
C560   C     0.24897   0.97713   0.07699   0.00000  Uiso   1.00
C561   C     0.04824   0.70920   0.42347   0.00000  Uiso   1.00
C562   C     0.21867   0.66918   0.47355   0.00000  Uiso   1.00
C563   C     0.22582   0.91596   0.48041   0.00000  Uiso   1.00
C564   C     0.25316   0.72094   0.47361   0.00000  Uiso   1.00
C565   C     0.05778   0.66865   0.03211   0.00000  Uiso   1.00
C566   C     0.07253   0.94793   0.01363   0.00000  Uiso   1.00
C567   C     0.31414   0.74953   0.19137   0.00000  Uiso   1.00
C568   C     0.01842   0.91769   0.30803   0.00000  Uiso   1.00
C569   C     0.11191   0.74700   0.01959   0.00000  Uiso   1.00
C570   C     0.18919   0.98573   0.24587   0.00000  Uiso   1.00
C571   C     0.14385   0.68079   0.25221   0.00000  Uiso   1.00
C572   C     0.16765   0.83518   0.33619   0.00000  Uiso   1.00
C573   C     0.16584   0.83184   0.16370   0.00000  Uiso   1.00
C574   C     0.13416   0.78910   0.09245   0.00000  Uiso   1.00
H575   H     0.22822   0.89044   0.11266   0.00000  Uiso   1.00
H576   H     0.14757   0.96160   0.39279   0.00000  Uiso   1.00
H577   H     0.16331   0.93278   0.33824   0.00000  Uiso   1.00
H578   H     0.24514   0.99317   0.32392   0.00000  Uiso   1.00
H579   H     0.18293   0.69519   0.34086   0.00000  Uiso   1.00
H580   H     0.23660   0.68860   0.37932   0.00000  Uiso   1.00
H581   H     0.26770   0.97659   0.10993   0.00000  Uiso   1.00
H582   H     0.20218   0.97182   0.08272   0.00000  Uiso   1.00
H583   H     0.26032   0.68267   0.06380   0.00000  Uiso   1.00
H584   H     0.05800   0.69984   0.38724   0.00000  Uiso   1.00
H585   H     0.03012   0.74810   0.42722   0.00000  Uiso   1.00
H586   H     0.12682   0.76301   0.38433   0.00000  Uiso   1.00
H587   H     0.01611   0.67877   0.43459   0.00000  Uiso   1.00
H588   H     0.19581   0.99995   0.00699   0.00000  Uiso   1.00
H589   H     0.18675   0.67031   0.44904   0.00000  Uiso   1.00
H590   H     0.22705   0.75194   0.48850   0.00000  Uiso   1.00
H591   H     0.28922   0.72054   0.49463   0.00000  Uiso   1.00
H592   H     0.26758   0.73156   0.43919   0.00000  Uiso   1.00
H593   H     0.02958   0.68556   0.01009   0.00000  Uiso   1.00
H594   H     0.03343   0.99820   0.06489   0.00000  Uiso   1.00
H595   H     0.09530   0.92829   0.03851   0.00000  Uiso   1.00
H596   H     0.03365   0.92389   0.00616   0.00000  Uiso   1.00
H597   H     0.23213   0.66902   0.24037   0.00000  Uiso   1.00
H598   H     0.09993   0.95053   0.48214   0.00000  Uiso   1.00
H599   H     0.27209   0.75579   0.17965   0.00000  Uiso   1.00
H600   H     0.31091   0.72390   0.22031   0.00000  Uiso   1.00
H601   H     0.00427   0.72921   0.16311   0.00000  Uiso   1.00
H602   H     0.02306   0.94219   0.27833   0.00000  Uiso   1.00
H603   H     0.05982   0.91186   0.32121   0.00000  Uiso   1.00
H604   H     0.32679   0.93906   0.33488   0.00000  Uiso   1.00
H605   H     0.10088   0.99752   0.25750   0.00000  Uiso   1.00
H606   H     0.15167   0.73510   0.16735   0.00000  Uiso   1.00
H607   H     0.18002   0.71378   0.11360   0.00000  Uiso   1.00
H608   H     0.10104   0.97700   0.11141   0.00000  Uiso   1.00
H609   H     0.14126   0.97400   0.15927   0.00000  Uiso   1.00
H610   H     0.07282   0.66771   0.16573   0.00000  Uiso   1.00
N611   N     0.31678   0.81932   0.23783   0.00000  Uiso   1.00
N612   N     0.01656   0.84735   0.26217   0.00000  Uiso   1.00
O613   O     0.12975   0.91286   0.25298   0.00000  Uiso   1.00
O614   O     0.22188   0.92045   0.38499   0.00000  Uiso   1.00
O615   O     0.27288   0.93862   0.04762   0.00000  Uiso   1.00
O616   O     0.09749   0.70520   0.44679   0.00000  Uiso   1.00
O617   O     0.25266   0.95998   0.46179   0.00000  Uiso   1.00
O618   O     0.10812   0.69902   0.03922   0.00000  Uiso   1.00
O619   O     0.01097   0.79649   0.20193   0.00000  Uiso   1.00
O620   O     0.32225   0.87025   0.29799   0.00000  Uiso   1.00
O621   O     0.20358   0.75381   0.24701   0.00000  Uiso   1.00
O622   O     0.22613   0.90387   0.24518   0.00000  Uiso   1.00
O623   O     0.10720   0.76279   0.25481   0.00000  Uiso   1.00
O624   O     0.11847   0.83784   0.31997   0.00000  Uiso   1.00
O625   O     0.21486   0.82883   0.18002   0.00000  Uiso   1.00
O626   O     0.21485   0.82885   0.31217   0.00000  Uiso   1.00
O627   O     0.11848   0.83781   0.18782   0.00000  Uiso   1.00
O628   O     0.10288   0.75000   0.11533   0.00000  Uiso   1.00
Zn629  Zn    0.10231   0.83933   0.25521   0.00000  Uiso   1.00
Zn630  Zn    0.23102   0.82734   0.24479   0.00000  Uiso   1.00
C631   C     0.51496   0.93126   0.24772   0.00000  Uiso   1.00
C632   C     0.52648   0.88018   0.40779   0.00000  Uiso   1.00
C633   C     0.49854   0.82877   0.11572   0.00000  Uiso   1.00
C634   C     0.50184   0.83731   0.38398   0.00000  Uiso   1.00
C635   C     0.53407   0.86454   0.09323   0.00000  Uiso   1.00
C636   C     0.47542   0.79538   0.40525   0.00000  Uiso   1.00
C637   C     0.53217   0.86879   0.04747   0.00000  Uiso   1.00
C638   C     0.47024   0.79444   0.45161   0.00000  Uiso   1.00
C639   C     0.49763   0.83240   0.02323   0.00000  Uiso   1.00
C640   C     0.49731   0.83563   0.47668   0.00000  Uiso   1.00
C641   C     0.46837   0.78986   0.04515   0.00000  Uiso   1.00
C642   C     0.48501   0.73538   0.25218   0.00000  Uiso   1.00
C643   C     0.52744   0.87816   0.45478   0.00000  Uiso   1.00
C644   C     0.56467   0.90882   0.02588   0.00000  Uiso   1.00
C645   C     0.44416   0.75015   0.47251   0.00000  Uiso   1.00
C646   C     0.47345   0.71802   0.13469   0.00000  Uiso   1.00
C647   C     0.44505   0.99776   0.14316   0.00000  Uiso   1.00
C648   C     0.51601   0.95206   0.36766   0.00000  Uiso   1.00
C649   C     0.54697   0.66869   0.35201   0.00000  Uiso   1.00
C650   C     0.58230   0.97713   0.07699   0.00000  Uiso   1.00
C651   C     0.38157   0.70920   0.42347   0.00000  Uiso   1.00
C652   C     0.55201   0.66918   0.47355   0.00000  Uiso   1.00
C653   C     0.55915   0.91596   0.48041   0.00000  Uiso   1.00
C654   C     0.58650   0.72094   0.47361   0.00000  Uiso   1.00
C655   C     0.39111   0.66865   0.03211   0.00000  Uiso   1.00
C656   C     0.40587   0.94793   0.01363   0.00000  Uiso   1.00
C657   C     0.64747   0.74953   0.19137   0.00000  Uiso   1.00
C658   C     0.35176   0.91769   0.30803   0.00000  Uiso   1.00
C659   C     0.44524   0.74700   0.01959   0.00000  Uiso   1.00
C660   C     0.52252   0.98573   0.24587   0.00000  Uiso   1.00
C661   C     0.47719   0.68079   0.25221   0.00000  Uiso   1.00
C662   C     0.50098   0.83518   0.33619   0.00000  Uiso   1.00
C663   C     0.49917   0.83184   0.16370   0.00000  Uiso   1.00
C664   C     0.46749   0.78910   0.09245   0.00000  Uiso   1.00
H665   H     0.56155   0.89044   0.11266   0.00000  Uiso   1.00
H666   H     0.48090   0.96160   0.39279   0.00000  Uiso   1.00
H667   H     0.49664   0.93278   0.33824   0.00000  Uiso   1.00
H668   H     0.57847   0.99317   0.32392   0.00000  Uiso   1.00
H669   H     0.51627   0.69519   0.34086   0.00000  Uiso   1.00
H670   H     0.56993   0.68860   0.37932   0.00000  Uiso   1.00
H671   H     0.60103   0.97659   0.10993   0.00000  Uiso   1.00
H672   H     0.53551   0.97182   0.08272   0.00000  Uiso   1.00
H673   H     0.59365   0.68267   0.06380   0.00000  Uiso   1.00
H674   H     0.39133   0.69984   0.38724   0.00000  Uiso   1.00
H675   H     0.36345   0.74810   0.42722   0.00000  Uiso   1.00
H676   H     0.46015   0.76301   0.38433   0.00000  Uiso   1.00
H677   H     0.34944   0.67877   0.43459   0.00000  Uiso   1.00
H678   H     0.52914   0.99995   0.00699   0.00000  Uiso   1.00
H679   H     0.52008   0.67031   0.44904   0.00000  Uiso   1.00
H680   H     0.56038   0.75194   0.48850   0.00000  Uiso   1.00
H681   H     0.62256   0.72054   0.49463   0.00000  Uiso   1.00
H682   H     0.60091   0.73156   0.43919   0.00000  Uiso   1.00
H683   H     0.36291   0.68556   0.01009   0.00000  Uiso   1.00
H684   H     0.36676   0.99820   0.06489   0.00000  Uiso   1.00
H685   H     0.42864   0.92829   0.03851   0.00000  Uiso   1.00
H686   H     0.36699   0.92389   0.00616   0.00000  Uiso   1.00
H687   H     0.56547   0.66902   0.24037   0.00000  Uiso   1.00
H688   H     0.43326   0.95053   0.48214   0.00000  Uiso   1.00
H689   H     0.60543   0.75579   0.17965   0.00000  Uiso   1.00
H690   H     0.64424   0.72390   0.22031   0.00000  Uiso   1.00
H691   H     0.33761   0.72921   0.16311   0.00000  Uiso   1.00
H692   H     0.35640   0.94219   0.27833   0.00000  Uiso   1.00
H693   H     0.39316   0.91186   0.32121   0.00000  Uiso   1.00
H694   H     0.66013   0.93906   0.33488   0.00000  Uiso   1.00
H695   H     0.43421   0.99752   0.25750   0.00000  Uiso   1.00
H696   H     0.48500   0.73510   0.16735   0.00000  Uiso   1.00
H697   H     0.51336   0.71378   0.11360   0.00000  Uiso   1.00
H698   H     0.43437   0.97700   0.11141   0.00000  Uiso   1.00
H699   H     0.47459   0.97400   0.15927   0.00000  Uiso   1.00
H700   H     0.40616   0.66771   0.16573   0.00000  Uiso   1.00
N701   N     0.65011   0.81932   0.23783   0.00000  Uiso   1.00
N702   N     0.34989   0.84735   0.26217   0.00000  Uiso   1.00
O703   O     0.46308   0.91286   0.25298   0.00000  Uiso   1.00
O704   O     0.55521   0.92045   0.38499   0.00000  Uiso   1.00
O705   O     0.60621   0.93862   0.04762   0.00000  Uiso   1.00
O706   O     0.43082   0.70520   0.44679   0.00000  Uiso   1.00
O707   O     0.58599   0.95998   0.46179   0.00000  Uiso   1.00
O708   O     0.44146   0.69902   0.03922   0.00000  Uiso   1.00
O709   O     0.34430   0.79649   0.20193   0.00000  Uiso   1.00
O710   O     0.65559   0.87025   0.29799   0.00000  Uiso   1.00
O711   O     0.53692   0.75381   0.24701   0.00000  Uiso   1.00
O712   O     0.55946   0.90387   0.24518   0.00000  Uiso   1.00
O713   O     0.44054   0.76279   0.25481   0.00000  Uiso   1.00
O714   O     0.45181   0.83784   0.31997   0.00000  Uiso   1.00
O715   O     0.54819   0.82883   0.18002   0.00000  Uiso   1.00
O716   O     0.54819   0.82885   0.31217   0.00000  Uiso   1.00
O717   O     0.45181   0.83781   0.18782   0.00000  Uiso   1.00
O718   O     0.43622   0.75000   0.11533   0.00000  Uiso   1.00
Zn719  Zn    0.43565   0.83933   0.25521   0.00000  Uiso   1.00
Zn720  Zn    0.56435   0.82734   0.24479   0.00000  Uiso   1.00
C721   C     0.84829   0.93126   0.24772   0.00000  Uiso   1.00
C722   C     0.85981   0.88018   0.40779   0.00000  Uiso   1.00
C723   C     0.83187   0.82877   0.11572   0.00000  Uiso   1.00
C724   C     0.83517   0.83731   0.38398   0.00000  Uiso   1.00
C725   C     0.86740   0.86454   0.09323   0.00000  Uiso   1.00
C726   C     0.80875   0.79538   0.40525   0.00000  Uiso   1.00
C727   C     0.86550   0.86879   0.04747   0.00000  Uiso   1.00
C728   C     0.80358   0.79444   0.45161   0.00000  Uiso   1.00
C729   C     0.83096   0.83240   0.02323   0.00000  Uiso   1.00
C730   C     0.83065   0.83563   0.47668   0.00000  Uiso   1.00
C731   C     0.80171   0.78986   0.04515   0.00000  Uiso   1.00
C732   C     0.81834   0.73538   0.25218   0.00000  Uiso   1.00
C733   C     0.86078   0.87816   0.45478   0.00000  Uiso   1.00
C734   C     0.89801   0.90882   0.02588   0.00000  Uiso   1.00
C735   C     0.77750   0.75015   0.47251   0.00000  Uiso   1.00
C736   C     0.80678   0.71802   0.13469   0.00000  Uiso   1.00
C737   C     0.77838   0.99776   0.14316   0.00000  Uiso   1.00
C738   C     0.84935   0.95206   0.36766   0.00000  Uiso   1.00
C739   C     0.88030   0.66869   0.35201   0.00000  Uiso   1.00
C740   C     0.91564   0.97713   0.07699   0.00000  Uiso   1.00
C741   C     0.71490   0.70920   0.42347   0.00000  Uiso   1.00
C742   C     0.88534   0.66918   0.47355   0.00000  Uiso   1.00
C743   C     0.89249   0.91596   0.48041   0.00000  Uiso   1.00
C744   C     0.91983   0.72094   0.47361   0.00000  Uiso   1.00
C745   C     0.72444   0.66865   0.03211   0.00000  Uiso   1.00
C746   C     0.73920   0.94793   0.01363   0.00000  Uiso   1.00
C747   C     0.98081   0.74953   0.19137   0.00000  Uiso   1.00
C748   C     0.68509   0.91769   0.30803   0.00000  Uiso   1.00
C749   C     0.77857   0.74700   0.01959   0.00000  Uiso   1.00
C750   C     0.85586   0.98573   0.24587   0.00000  Uiso   1.00
C751   C     0.81052   0.68079   0.25221   0.00000  Uiso   1.00
C752   C     0.83431   0.83518   0.33619   0.00000  Uiso   1.00
C753   C     0.83250   0.83184   0.16370   0.00000  Uiso   1.00
C754   C     0.80082   0.78910   0.09245   0.00000  Uiso   1.00
H755   H     0.89488   0.89044   0.11266   0.00000  Uiso   1.00
H756   H     0.81424   0.96160   0.39279   0.00000  Uiso   1.00
H757   H     0.82997   0.93278   0.33824   0.00000  Uiso   1.00
H758   H     0.91180   0.99317   0.32392   0.00000  Uiso   1.00
H759   H     0.84960   0.69519   0.34086   0.00000  Uiso   1.00
H760   H     0.90326   0.68860   0.37932   0.00000  Uiso   1.00
H761   H     0.93437   0.97659   0.10993   0.00000  Uiso   1.00
H762   H     0.86885   0.97182   0.08272   0.00000  Uiso   1.00
H763   H     0.92699   0.68267   0.06380   0.00000  Uiso   1.00
H764   H     0.72467   0.69984   0.38724   0.00000  Uiso   1.00
H765   H     0.69678   0.74810   0.42722   0.00000  Uiso   1.00
H766   H     0.79349   0.76301   0.38433   0.00000  Uiso   1.00
H767   H     0.68278   0.67877   0.43459   0.00000  Uiso   1.00
H768   H     0.86247   0.99995   0.00699   0.00000  Uiso   1.00
H769   H     0.85341   0.67031   0.44904   0.00000  Uiso   1.00
H770   H     0.89371   0.75194   0.48850   0.00000  Uiso   1.00
H771   H     0.95589   0.72054   0.49463   0.00000  Uiso   1.00
H772   H     0.93425   0.73156   0.43919   0.00000  Uiso   1.00
H773   H     0.69624   0.68556   0.01009   0.00000  Uiso   1.00
H774   H     0.70009   0.99820   0.06489   0.00000  Uiso   1.00
H775   H     0.76197   0.92829   0.03851   0.00000  Uiso   1.00
H776   H     0.70032   0.92389   0.00616   0.00000  Uiso   1.00
H777   H     0.89880   0.66902   0.24037   0.00000  Uiso   1.00
H778   H     0.76659   0.95053   0.48214   0.00000  Uiso   1.00
H779   H     0.93876   0.75579   0.17965   0.00000  Uiso   1.00
H780   H     0.97758   0.72390   0.22031   0.00000  Uiso   1.00
H781   H     0.67094   0.72921   0.16311   0.00000  Uiso   1.00
H782   H     0.68973   0.94219   0.27833   0.00000  Uiso   1.00
H783   H     0.72649   0.91186   0.32121   0.00000  Uiso   1.00
H784   H     0.99346   0.93906   0.33488   0.00000  Uiso   1.00
H785   H     0.76754   0.99752   0.25750   0.00000  Uiso   1.00
H786   H     0.81834   0.73510   0.16735   0.00000  Uiso   1.00
H787   H     0.84669   0.71378   0.11360   0.00000  Uiso   1.00
H788   H     0.76771   0.97700   0.11141   0.00000  Uiso   1.00
H789   H     0.80793   0.97400   0.15927   0.00000  Uiso   1.00
H790   H     0.73949   0.66771   0.16573   0.00000  Uiso   1.00
N791   N     0.98344   0.81932   0.23783   0.00000  Uiso   1.00
N792   N     0.68322   0.84735   0.26217   0.00000  Uiso   1.00
O793   O     0.79642   0.91286   0.25298   0.00000  Uiso   1.00
O794   O     0.88854   0.92045   0.38499   0.00000  Uiso   1.00
O795   O     0.93955   0.93862   0.04762   0.00000  Uiso   1.00
O796   O     0.76416   0.70520   0.44679   0.00000  Uiso   1.00
O797   O     0.91932   0.95998   0.46179   0.00000  Uiso   1.00
O798   O     0.77479   0.69902   0.03922   0.00000  Uiso   1.00
O799   O     0.67763   0.79649   0.20193   0.00000  Uiso   1.00
O800   O     0.98892   0.87025   0.29799   0.00000  Uiso   1.00
O801   O     0.87025   0.75381   0.24701   0.00000  Uiso   1.00
O802   O     0.89280   0.90387   0.24518   0.00000  Uiso   1.00
O803   O     0.77387   0.76279   0.25481   0.00000  Uiso   1.00
O804   O     0.78514   0.83784   0.31997   0.00000  Uiso   1.00
O805   O     0.88153   0.82883   0.18002   0.00000  Uiso   1.00
O806   O     0.88152   0.82885   0.31217   0.00000  Uiso   1.00
O807   O     0.78515   0.83781   0.18782   0.00000  Uiso   1.00
O808   O     0.76955   0.75000   0.11533   0.00000  Uiso   1.00
Zn809  Zn    0.76898   0.83933   0.25521   0.00000  Uiso   1.00
Zn810  Zn    0.89769   0.82734   0.24479   0.00000  Uiso   1.00
C811   C     0.18162   0.26459   0.74772   0.00000  Uiso   1.00
C812   C     0.19314   0.21351   0.90779   0.00000  Uiso   1.00
C813   C     0.16520   0.16211   0.61572   0.00000  Uiso   1.00
C814   C     0.16851   0.17064   0.88398   0.00000  Uiso   1.00
C815   C     0.20073   0.19787   0.59323   0.00000  Uiso   1.00
C816   C     0.14208   0.12871   0.90525   0.00000  Uiso   1.00
C817   C     0.19884   0.20213   0.54747   0.00000  Uiso   1.00
C818   C     0.13691   0.12777   0.95161   0.00000  Uiso   1.00
C819   C     0.16429   0.16574   0.52323   0.00000  Uiso   1.00
C820   C     0.16398   0.16896   0.97668   0.00000  Uiso   1.00
C821   C     0.13504   0.12319   0.54515   0.00000  Uiso   1.00
C822   C     0.15167   0.06872   0.75218   0.00000  Uiso   1.00
C823   C     0.19411   0.21149   0.95478   0.00000  Uiso   1.00
C824   C     0.23134   0.24216   0.52588   0.00000  Uiso   1.00
C825   C     0.11083   0.08348   0.97251   0.00000  Uiso   1.00
C826   C     0.14011   0.05135   0.63469   0.00000  Uiso   1.00
C827   C     0.11171   0.33110   0.64316   0.00000  Uiso   1.00
C828   C     0.18268   0.28539   0.86766   0.00000  Uiso   1.00
C829   C     0.21364   0.00202   0.85201   0.00000  Uiso   1.00
C830   C     0.24897   0.31046   0.57699   0.00000  Uiso   1.00
C831   C     0.04824   0.04254   0.92347   0.00000  Uiso   1.00
C832   C     0.21867   0.00251   0.97355   0.00000  Uiso   1.00
C833   C     0.22582   0.24930   0.98041   0.00000  Uiso   1.00
C834   C     0.25316   0.05427   0.97361   0.00000  Uiso   1.00
C835   C     0.05778   0.00198   0.53211   0.00000  Uiso   1.00
C836   C     0.07253   0.28126   0.51363   0.00000  Uiso   1.00
C837   C     0.31414   0.08286   0.69137   0.00000  Uiso   1.00
C838   C     0.01842   0.25103   0.80803   0.00000  Uiso   1.00
C839   C     0.11191   0.08034   0.51959   0.00000  Uiso   1.00
C840   C     0.18919   0.31906   0.74587   0.00000  Uiso   1.00
C841   C     0.14385   0.01413   0.75221   0.00000  Uiso   1.00
C842   C     0.16765   0.16852   0.83619   0.00000  Uiso   1.00
C843   C     0.16584   0.16518   0.66370   0.00000  Uiso   1.00
C844   C     0.13416   0.12243   0.59245   0.00000  Uiso   1.00
H845   H     0.22822   0.22377   0.61266   0.00000  Uiso   1.00
H846   H     0.14757   0.29493   0.89279   0.00000  Uiso   1.00
H847   H     0.16331   0.26612   0.83824   0.00000  Uiso   1.00
H848   H     0.24514   0.32650   0.82392   0.00000  Uiso   1.00
H849   H     0.18293   0.02852   0.84086   0.00000  Uiso   1.00
H850   H     0.23660   0.02193   0.87932   0.00000  Uiso   1.00
H851   H     0.26770   0.30992   0.60993   0.00000  Uiso   1.00
H852   H     0.20218   0.30516   0.58272   0.00000  Uiso   1.00
H853   H     0.26032   0.01600   0.56380   0.00000  Uiso   1.00
H854   H     0.05800   0.03317   0.88724   0.00000  Uiso   1.00
H855   H     0.03012   0.08144   0.92722   0.00000  Uiso   1.00
H856   H     0.12682   0.09634   0.88433   0.00000  Uiso   1.00
H857   H     0.01611   0.01210   0.93459   0.00000  Uiso   1.00
H858   H     0.19581   0.33329   0.50699   0.00000  Uiso   1.00
H859   H     0.18675   0.00365   0.94904   0.00000  Uiso   1.00
H860   H     0.22705   0.08528   0.98850   0.00000  Uiso   1.00
H861   H     0.28922   0.05387   0.99463   0.00000  Uiso   1.00
H862   H     0.26758   0.06489   0.93919   0.00000  Uiso   1.00
H863   H     0.02958   0.01889   0.51009   0.00000  Uiso   1.00
H864   H     0.03343   0.33153   0.56489   0.00000  Uiso   1.00
H865   H     0.09530   0.26163   0.53851   0.00000  Uiso   1.00
H866   H     0.03365   0.25722   0.50616   0.00000  Uiso   1.00
H867   H     0.23213   0.00235   0.74037   0.00000  Uiso   1.00
H868   H     0.09993   0.28386   0.98214   0.00000  Uiso   1.00
H869   H     0.27209   0.08913   0.67965   0.00000  Uiso   1.00
H870   H     0.31091   0.05723   0.72031   0.00000  Uiso   1.00
H871   H     0.00427   0.06254   0.66311   0.00000  Uiso   1.00
H872   H     0.02306   0.27552   0.77833   0.00000  Uiso   1.00
H873   H     0.05982   0.24520   0.82121   0.00000  Uiso   1.00
H874   H     0.32679   0.27239   0.83488   0.00000  Uiso   1.00
H875   H     0.10088   0.33086   0.75750   0.00000  Uiso   1.00
H876   H     0.15167   0.06843   0.66735   0.00000  Uiso   1.00
H877   H     0.18002   0.04711   0.61360   0.00000  Uiso   1.00
H878   H     0.10104   0.31033   0.61141   0.00000  Uiso   1.00
H879   H     0.14126   0.30734   0.65927   0.00000  Uiso   1.00
H880   H     0.07282   0.00104   0.66573   0.00000  Uiso   1.00
N881   N     0.31678   0.15265   0.73783   0.00000  Uiso   1.00
N882   N     0.01656   0.18068   0.76217   0.00000  Uiso   1.00
O883   O     0.12975   0.24619   0.75298   0.00000  Uiso   1.00
O884   O     0.22188   0.25378   0.88499   0.00000  Uiso   1.00
O885   O     0.27288   0.27196   0.54762   0.00000  Uiso   1.00
O886   O     0.09749   0.03853   0.94679   0.00000  Uiso   1.00
O887   O     0.25266   0.29331   0.96179   0.00000  Uiso   1.00
O888   O     0.10812   0.03235   0.53922   0.00000  Uiso   1.00
O889   O     0.01097   0.12982   0.70193   0.00000  Uiso   1.00
O890   O     0.32225   0.20358   0.79799   0.00000  Uiso   1.00
O891   O     0.20358   0.08714   0.74701   0.00000  Uiso   1.00
O892   O     0.22613   0.23721   0.74518   0.00000  Uiso   1.00
O893   O     0.10720   0.09613   0.75481   0.00000  Uiso   1.00
O894   O     0.11847   0.17117   0.81997   0.00000  Uiso   1.00
O895   O     0.21486   0.16216   0.68002   0.00000  Uiso   1.00
O896   O     0.21485   0.16219   0.81217   0.00000  Uiso   1.00
O897   O     0.11848   0.17115   0.68782   0.00000  Uiso   1.00
O898   O     0.10288   0.08333   0.61533   0.00000  Uiso   1.00
Zn899  Zn    0.10231   0.17266   0.75521   0.00000  Uiso   1.00
Zn900  Zn    0.23102   0.16067   0.74479   0.00000  Uiso   1.00
C901   C     0.51496   0.26459   0.74772   0.00000  Uiso   1.00
C902   C     0.52648   0.21351   0.90779   0.00000  Uiso   1.00
C903   C     0.49854   0.16211   0.61572   0.00000  Uiso   1.00
C904   C     0.50184   0.17064   0.88398   0.00000  Uiso   1.00
C905   C     0.53407   0.19787   0.59323   0.00000  Uiso   1.00
C906   C     0.47542   0.12871   0.90525   0.00000  Uiso   1.00
C907   C     0.53217   0.20213   0.54747   0.00000  Uiso   1.00
C908   C     0.47024   0.12777   0.95161   0.00000  Uiso   1.00
C909   C     0.49763   0.16574   0.52323   0.00000  Uiso   1.00
C910   C     0.49731   0.16896   0.97668   0.00000  Uiso   1.00
C911   C     0.46837   0.12319   0.54515   0.00000  Uiso   1.00
C912   C     0.48501   0.06872   0.75218   0.00000  Uiso   1.00
C913   C     0.52744   0.21149   0.95478   0.00000  Uiso   1.00
C914   C     0.56467   0.24216   0.52588   0.00000  Uiso   1.00
C915   C     0.44416   0.08348   0.97251   0.00000  Uiso   1.00
C916   C     0.47345   0.05135   0.63469   0.00000  Uiso   1.00
C917   C     0.44505   0.33110   0.64316   0.00000  Uiso   1.00
C918   C     0.51601   0.28539   0.86766   0.00000  Uiso   1.00
C919   C     0.54697   0.00202   0.85201   0.00000  Uiso   1.00
C920   C     0.58230   0.31046   0.57699   0.00000  Uiso   1.00
C921   C     0.38157   0.04254   0.92347   0.00000  Uiso   1.00
C922   C     0.55201   0.00251   0.97355   0.00000  Uiso   1.00
C923   C     0.55915   0.24930   0.98041   0.00000  Uiso   1.00
C924   C     0.58650   0.05427   0.97361   0.00000  Uiso   1.00
C925   C     0.39111   0.00198   0.53211   0.00000  Uiso   1.00
C926   C     0.40587   0.28126   0.51363   0.00000  Uiso   1.00
C927   C     0.64747   0.08286   0.69137   0.00000  Uiso   1.00
C928   C     0.35176   0.25103   0.80803   0.00000  Uiso   1.00
C929   C     0.44524   0.08034   0.51959   0.00000  Uiso   1.00
C930   C     0.52252   0.31906   0.74587   0.00000  Uiso   1.00
C931   C     0.47719   0.01413   0.75221   0.00000  Uiso   1.00
C932   C     0.50098   0.16852   0.83619   0.00000  Uiso   1.00
C933   C     0.49917   0.16518   0.66370   0.00000  Uiso   1.00
C934   C     0.46749   0.12243   0.59245   0.00000  Uiso   1.00
H935   H     0.56155   0.22377   0.61266   0.00000  Uiso   1.00
H936   H     0.48090   0.29493   0.89279   0.00000  Uiso   1.00
H937   H     0.49664   0.26612   0.83824   0.00000  Uiso   1.00
H938   H     0.57847   0.32650   0.82392   0.00000  Uiso   1.00
H939   H     0.51627   0.02852   0.84086   0.00000  Uiso   1.00
H940   H     0.56993   0.02193   0.87932   0.00000  Uiso   1.00
H941   H     0.60103   0.30992   0.60993   0.00000  Uiso   1.00
H942   H     0.53551   0.30516   0.58272   0.00000  Uiso   1.00
H943   H     0.59365   0.01600   0.56380   0.00000  Uiso   1.00
H944   H     0.39133   0.03317   0.88724   0.00000  Uiso   1.00
H945   H     0.36345   0.08144   0.92722   0.00000  Uiso   1.00
H946   H     0.46015   0.09634   0.88433   0.00000  Uiso   1.00
H947   H     0.34944   0.01210   0.93459   0.00000  Uiso   1.00
H948   H     0.52914   0.33329   0.50699   0.00000  Uiso   1.00
H949   H     0.52008   0.00365   0.94904   0.00000  Uiso   1.00
H950   H     0.56038   0.08528   0.98850   0.00000  Uiso   1.00
H951   H     0.62256   0.05387   0.99463   0.00000  Uiso   1.00
H952   H     0.60091   0.06489   0.93919   0.00000  Uiso   1.00
H953   H     0.36291   0.01889   0.51009   0.00000  Uiso   1.00
H954   H     0.36676   0.33153   0.56489   0.00000  Uiso   1.00
H955   H     0.42864   0.26163   0.53851   0.00000  Uiso   1.00
H956   H     0.36699   0.25722   0.50616   0.00000  Uiso   1.00
H957   H     0.56547   0.00235   0.74037   0.00000  Uiso   1.00
H958   H     0.43326   0.28386   0.98214   0.00000  Uiso   1.00
H959   H     0.60543   0.08913   0.67965   0.00000  Uiso   1.00
H960   H     0.64424   0.05723   0.72031   0.00000  Uiso   1.00
H961   H     0.33761   0.06254   0.66311   0.00000  Uiso   1.00
H962   H     0.35640   0.27552   0.77833   0.00000  Uiso   1.00
H963   H     0.39316   0.24520   0.82121   0.00000  Uiso   1.00
H964   H     0.66013   0.27239   0.83488   0.00000  Uiso   1.00
H965   H     0.43421   0.33086   0.75750   0.00000  Uiso   1.00
H966   H     0.48500   0.06843   0.66735   0.00000  Uiso   1.00
H967   H     0.51336   0.04711   0.61360   0.00000  Uiso   1.00
H968   H     0.43437   0.31033   0.61141   0.00000  Uiso   1.00
H969   H     0.47459   0.30734   0.65927   0.00000  Uiso   1.00
H970   H     0.40616   0.00104   0.66573   0.00000  Uiso   1.00
N971   N     0.65011   0.15265   0.73783   0.00000  Uiso   1.00
N972   N     0.34989   0.18068   0.76217   0.00000  Uiso   1.00
O973   O     0.46308   0.24619   0.75298   0.00000  Uiso   1.00
O974   O     0.55521   0.25378   0.88499   0.00000  Uiso   1.00
O975   O     0.60621   0.27196   0.54762   0.00000  Uiso   1.00
O976   O     0.43082   0.03853   0.94679   0.00000  Uiso   1.00
O977   O     0.58599   0.29331   0.96179   0.00000  Uiso   1.00
O978   O     0.44146   0.03235   0.53922   0.00000  Uiso   1.00
O979   O     0.34430   0.12982   0.70193   0.00000  Uiso   1.00
O980   O     0.65559   0.20358   0.79799   0.00000  Uiso   1.00
O981   O     0.53692   0.08714   0.74701   0.00000  Uiso   1.00
O982   O     0.55946   0.23721   0.74518   0.00000  Uiso   1.00
O983   O     0.44054   0.09613   0.75481   0.00000  Uiso   1.00
O984   O     0.45181   0.17117   0.81997   0.00000  Uiso   1.00
O985   O     0.54819   0.16216   0.68002   0.00000  Uiso   1.00
O986   O     0.54819   0.16219   0.81217   0.00000  Uiso   1.00
O987   O     0.45181   0.17115   0.68782   0.00000  Uiso   1.00
O988   O     0.43622   0.08333   0.61533   0.00000  Uiso   1.00
Zn989  Zn    0.43565   0.17266   0.75521   0.00000  Uiso   1.00
Zn990  Zn    0.56435   0.16067   0.74479   0.00000  Uiso   1.00
C991   C     0.84829   0.26459   0.74772   0.00000  Uiso   1.00
C992   C     0.85981   0.21351   0.90779   0.00000  Uiso   1.00
C993   C     0.83187   0.16211   0.61572   0.00000  Uiso   1.00
C994   C     0.83517   0.17064   0.88398   0.00000  Uiso   1.00
C995   C     0.86740   0.19787   0.59323   0.00000  Uiso   1.00
C996   C     0.80875   0.12871   0.90525   0.00000  Uiso   1.00
C997   C     0.86550   0.20213   0.54747   0.00000  Uiso   1.00
C998   C     0.80358   0.12777   0.95161   0.00000  Uiso   1.00
C999   C     0.83096   0.16574   0.52323   0.00000  Uiso   1.00
C1000  C     0.83065   0.16896   0.97668   0.00000  Uiso   1.00
C1001  C     0.80171   0.12319   0.54515   0.00000  Uiso   1.00
C1002  C     0.81834   0.06872   0.75218   0.00000  Uiso   1.00
C1003  C     0.86078   0.21149   0.95478   0.00000  Uiso   1.00
C1004  C     0.89801   0.24216   0.52588   0.00000  Uiso   1.00
C1005  C     0.77750   0.08348   0.97251   0.00000  Uiso   1.00
C1006  C     0.80678   0.05135   0.63469   0.00000  Uiso   1.00
C1007  C     0.77838   0.33110   0.64316   0.00000  Uiso   1.00
C1008  C     0.84935   0.28539   0.86766   0.00000  Uiso   1.00
C1009  C     0.88030   0.00202   0.85201   0.00000  Uiso   1.00
C1010  C     0.91564   0.31046   0.57699   0.00000  Uiso   1.00
C1011  C     0.71490   0.04254   0.92347   0.00000  Uiso   1.00
C1012  C     0.88534   0.00251   0.97355   0.00000  Uiso   1.00
C1013  C     0.89249   0.24930   0.98041   0.00000  Uiso   1.00
C1014  C     0.91983   0.05427   0.97361   0.00000  Uiso   1.00
C1015  C     0.72444   0.00198   0.53211   0.00000  Uiso   1.00
C1016  C     0.73920   0.28126   0.51363   0.00000  Uiso   1.00
C1017  C     0.98081   0.08286   0.69137   0.00000  Uiso   1.00
C1018  C     0.68509   0.25103   0.80803   0.00000  Uiso   1.00
C1019  C     0.77857   0.08034   0.51959   0.00000  Uiso   1.00
C1020  C     0.85586   0.31906   0.74587   0.00000  Uiso   1.00
C1021  C     0.81052   0.01413   0.75221   0.00000  Uiso   1.00
C1022  C     0.83431   0.16852   0.83619   0.00000  Uiso   1.00
C1023  C     0.83250   0.16518   0.66370   0.00000  Uiso   1.00
C1024  C     0.80082   0.12243   0.59245   0.00000  Uiso   1.00
H1025  H     0.89488   0.22377   0.61266   0.00000  Uiso   1.00
H1026  H     0.81424   0.29493   0.89279   0.00000  Uiso   1.00
H1027  H     0.82997   0.26612   0.83824   0.00000  Uiso   1.00
H1028  H     0.91180   0.32650   0.82392   0.00000  Uiso   1.00
H1029  H     0.84960   0.02852   0.84086   0.00000  Uiso   1.00
H1030  H     0.90326   0.02193   0.87932   0.00000  Uiso   1.00
H1031  H     0.93437   0.30992   0.60993   0.00000  Uiso   1.00
H1032  H     0.86885   0.30516   0.58272   0.00000  Uiso   1.00
H1033  H     0.92699   0.01600   0.56380   0.00000  Uiso   1.00
H1034  H     0.72467   0.03317   0.88724   0.00000  Uiso   1.00
H1035  H     0.69678   0.08144   0.92722   0.00000  Uiso   1.00
H1036  H     0.79349   0.09634   0.88433   0.00000  Uiso   1.00
H1037  H     0.68278   0.01210   0.93459   0.00000  Uiso   1.00
H1038  H     0.86247   0.33329   0.50699   0.00000  Uiso   1.00
H1039  H     0.85341   0.00365   0.94904   0.00000  Uiso   1.00
H1040  H     0.89371   0.08528   0.98850   0.00000  Uiso   1.00
H1041  H     0.95589   0.05387   0.99463   0.00000  Uiso   1.00
H1042  H     0.93425   0.06489   0.93919   0.00000  Uiso   1.00
H1043  H     0.69624   0.01889   0.51009   0.00000  Uiso   1.00
H1044  H     0.70009   0.33153   0.56489   0.00000  Uiso   1.00
H1045  H     0.76197   0.26163   0.53851   0.00000  Uiso   1.00
H1046  H     0.70032   0.25722   0.50616   0.00000  Uiso   1.00
H1047  H     0.89880   0.00235   0.74037   0.00000  Uiso   1.00
H1048  H     0.76659   0.28386   0.98214   0.00000  Uiso   1.00
H1049  H     0.93876   0.08913   0.67965   0.00000  Uiso   1.00
H1050  H     0.97758   0.05723   0.72031   0.00000  Uiso   1.00
H1051  H     0.67094   0.06254   0.66311   0.00000  Uiso   1.00
H1052  H     0.68973   0.27552   0.77833   0.00000  Uiso   1.00
H1053  H     0.72649   0.24520   0.82121   0.00000  Uiso   1.00
H1054  H     0.99346   0.27239   0.83488   0.00000  Uiso   1.00
H1055  H     0.76754   0.33086   0.75750   0.00000  Uiso   1.00
H1056  H     0.81834   0.06843   0.66735   0.00000  Uiso   1.00
H1057  H     0.84669   0.04711   0.61360   0.00000  Uiso   1.00
H1058  H     0.76771   0.31033   0.61141   0.00000  Uiso   1.00
H1059  H     0.80793   0.30734   0.65927   0.00000  Uiso   1.00
H1060  H     0.73949   0.00104   0.66573   0.00000  Uiso   1.00
N1061  N     0.98344   0.15265   0.73783   0.00000  Uiso   1.00
N1062  N     0.68322   0.18068   0.76217   0.00000  Uiso   1.00
O1063  O     0.79642   0.24619   0.75298   0.00000  Uiso   1.00
O1064  O     0.88854   0.25378   0.88499   0.00000  Uiso   1.00
O1065  O     0.93955   0.27196   0.54762   0.00000  Uiso   1.00
O1066  O     0.76416   0.03853   0.94679   0.00000  Uiso   1.00
O1067  O     0.91932   0.29331   0.96179   0.00000  Uiso   1.00
O1068  O     0.77479   0.03235   0.53922   0.00000  Uiso   1.00
O1069  O     0.67763   0.12982   0.70193   0.00000  Uiso   1.00
O1070  O     0.98892   0.20358   0.79799   0.00000  Uiso   1.00
O1071  O     0.87025   0.08714   0.74701   0.00000  Uiso   1.00
O1072  O     0.89280   0.23721   0.74518   0.00000  Uiso   1.00
O1073  O     0.77387   0.09613   0.75481   0.00000  Uiso   1.00
O1074  O     0.78514   0.17117   0.81997   0.00000  Uiso   1.00
O1075  O     0.88153   0.16216   0.68002   0.00000  Uiso   1.00
O1076  O     0.88152   0.16219   0.81217   0.00000  Uiso   1.00
O1077  O     0.78515   0.17115   0.68782   0.00000  Uiso   1.00
O1078  O     0.76955   0.08333   0.61533   0.00000  Uiso   1.00
Zn1079 Zn    0.76898   0.17266   0.75521   0.00000  Uiso   1.00
Zn1080 Zn    0.89769   0.16067   0.74479   0.00000  Uiso   1.00
C1081  C     0.18162   0.59792   0.74772   0.00000  Uiso   1.00
C1082  C     0.19314   0.54685   0.90779   0.00000  Uiso   1.00
C1083  C     0.16520   0.49544   0.61572   0.00000  Uiso   1.00
C1084  C     0.16851   0.50398   0.88398   0.00000  Uiso   1.00
C1085  C     0.20073   0.53121   0.59323   0.00000  Uiso   1.00
C1086  C     0.14208   0.46204   0.90525   0.00000  Uiso   1.00
C1087  C     0.19884   0.53546   0.54747   0.00000  Uiso   1.00
C1088  C     0.13691   0.46111   0.95161   0.00000  Uiso   1.00
C1089  C     0.16429   0.49907   0.52323   0.00000  Uiso   1.00
C1090  C     0.16398   0.50229   0.97668   0.00000  Uiso   1.00
C1091  C     0.13504   0.45652   0.54515   0.00000  Uiso   1.00
C1092  C     0.15167   0.40205   0.75218   0.00000  Uiso   1.00
C1093  C     0.19411   0.54482   0.95478   0.00000  Uiso   1.00
C1094  C     0.23134   0.57549   0.52588   0.00000  Uiso   1.00
C1095  C     0.11083   0.41682   0.97251   0.00000  Uiso   1.00
C1096  C     0.14011   0.38469   0.63469   0.00000  Uiso   1.00
C1097  C     0.11171   0.66443   0.64316   0.00000  Uiso   1.00
C1098  C     0.18268   0.61872   0.86766   0.00000  Uiso   1.00
C1099  C     0.21364   0.33535   0.85201   0.00000  Uiso   1.00
C1100  C     0.24897   0.64379   0.57699   0.00000  Uiso   1.00
C1101  C     0.04824   0.37587   0.92347   0.00000  Uiso   1.00
C1102  C     0.21867   0.33585   0.97355   0.00000  Uiso   1.00
C1103  C     0.22582   0.58263   0.98041   0.00000  Uiso   1.00
C1104  C     0.25316   0.38761   0.97361   0.00000  Uiso   1.00
C1105  C     0.05778   0.33531   0.53211   0.00000  Uiso   1.00
C1106  C     0.07253   0.61459   0.51363   0.00000  Uiso   1.00
C1107  C     0.31414   0.41619   0.69137   0.00000  Uiso   1.00
C1108  C     0.01842   0.58436   0.80803   0.00000  Uiso   1.00
C1109  C     0.11191   0.41367   0.51959   0.00000  Uiso   1.00
C1110  C     0.18919   0.65240   0.74587   0.00000  Uiso   1.00
C1111  C     0.14385   0.34746   0.75221   0.00000  Uiso   1.00
C1112  C     0.16765   0.50185   0.83619   0.00000  Uiso   1.00
C1113  C     0.16584   0.49851   0.66370   0.00000  Uiso   1.00
C1114  C     0.13416   0.45577   0.59245   0.00000  Uiso   1.00
H1115  H     0.22822   0.55711   0.61266   0.00000  Uiso   1.00
H1116  H     0.14757   0.62826   0.89279   0.00000  Uiso   1.00
H1117  H     0.16331   0.59945   0.83824   0.00000  Uiso   1.00
H1118  H     0.24514   0.65984   0.82392   0.00000  Uiso   1.00
H1119  H     0.18293   0.36186   0.84086   0.00000  Uiso   1.00
H1120  H     0.23660   0.35527   0.87932   0.00000  Uiso   1.00
H1121  H     0.26770   0.64325   0.60993   0.00000  Uiso   1.00
H1122  H     0.20218   0.63849   0.58272   0.00000  Uiso   1.00
H1123  H     0.26032   0.34934   0.56380   0.00000  Uiso   1.00
H1124  H     0.05800   0.36651   0.88724   0.00000  Uiso   1.00
H1125  H     0.03012   0.41477   0.92722   0.00000  Uiso   1.00
H1126  H     0.12682   0.42967   0.88433   0.00000  Uiso   1.00
H1127  H     0.01611   0.34543   0.93459   0.00000  Uiso   1.00
H1128  H     0.19581   0.66662   0.50699   0.00000  Uiso   1.00
H1129  H     0.18675   0.33698   0.94904   0.00000  Uiso   1.00
H1130  H     0.22705   0.41861   0.98850   0.00000  Uiso   1.00
H1131  H     0.28922   0.38721   0.99463   0.00000  Uiso   1.00
H1132  H     0.26758   0.39823   0.93919   0.00000  Uiso   1.00
H1133  H     0.02958   0.35223   0.51009   0.00000  Uiso   1.00
H1134  H     0.03343   0.66487   0.56489   0.00000  Uiso   1.00
H1135  H     0.09530   0.59496   0.53851   0.00000  Uiso   1.00
H1136  H     0.03365   0.59056   0.50616   0.00000  Uiso   1.00
H1137  H     0.23213   0.33568   0.74037   0.00000  Uiso   1.00
H1138  H     0.09993   0.61720   0.98214   0.00000  Uiso   1.00
H1139  H     0.27209   0.42246   0.67965   0.00000  Uiso   1.00
H1140  H     0.31091   0.39057   0.72031   0.00000  Uiso   1.00
H1141  H     0.00427   0.39588   0.66311   0.00000  Uiso   1.00
H1142  H     0.02306   0.60886   0.77833   0.00000  Uiso   1.00
H1143  H     0.05982   0.57853   0.82121   0.00000  Uiso   1.00
H1144  H     0.32679   0.60573   0.83488   0.00000  Uiso   1.00
H1145  H     0.10088   0.66419   0.75750   0.00000  Uiso   1.00
H1146  H     0.15167   0.40176   0.66735   0.00000  Uiso   1.00
H1147  H     0.18002   0.38044   0.61360   0.00000  Uiso   1.00
H1148  H     0.10104   0.64366   0.61141   0.00000  Uiso   1.00
H1149  H     0.14126   0.64067   0.65927   0.00000  Uiso   1.00
H1150  H     0.07282   0.33437   0.66573   0.00000  Uiso   1.00
N1151  N     0.31678   0.48598   0.73783   0.00000  Uiso   1.00
N1152  N     0.01656   0.51402   0.76217   0.00000  Uiso   1.00
O1153  O     0.12975   0.57952   0.75298   0.00000  Uiso   1.00
O1154  O     0.22188   0.58711   0.88499   0.00000  Uiso   1.00
O1155  O     0.27288   0.60529   0.54762   0.00000  Uiso   1.00
O1156  O     0.09749   0.37186   0.94679   0.00000  Uiso   1.00
O1157  O     0.25266   0.62665   0.96179   0.00000  Uiso   1.00
O1158  O     0.10812   0.36569   0.53922   0.00000  Uiso   1.00
O1159  O     0.01097   0.46316   0.70193   0.00000  Uiso   1.00
O1160  O     0.32225   0.53692   0.79799   0.00000  Uiso   1.00
O1161  O     0.20358   0.42048   0.74701   0.00000  Uiso   1.00
O1162  O     0.22613   0.57054   0.74518   0.00000  Uiso   1.00
O1163  O     0.10720   0.42946   0.75481   0.00000  Uiso   1.00
O1164  O     0.11847   0.50450   0.81997   0.00000  Uiso   1.00
O1165  O     0.21486   0.49550   0.68002   0.00000  Uiso   1.00
O1166  O     0.21485   0.49552   0.81217   0.00000  Uiso   1.00
O1167  O     0.11848   0.50448   0.68782   0.00000  Uiso   1.00
O1168  O     0.10288   0.41666   0.61533   0.00000  Uiso   1.00
Zn1169 Zn    0.10231   0.50600   0.75521   0.00000  Uiso   1.00
Zn1170 Zn    0.23102   0.49400   0.74479   0.00000  Uiso   1.00
C1171  C     0.51496   0.59792   0.74772   0.00000  Uiso   1.00
C1172  C     0.52648   0.54685   0.90779   0.00000  Uiso   1.00
C1173  C     0.49854   0.49544   0.61572   0.00000  Uiso   1.00
C1174  C     0.50184   0.50398   0.88398   0.00000  Uiso   1.00
C1175  C     0.53407   0.53121   0.59323   0.00000  Uiso   1.00
C1176  C     0.47542   0.46204   0.90525   0.00000  Uiso   1.00
C1177  C     0.53217   0.53546   0.54747   0.00000  Uiso   1.00
C1178  C     0.47024   0.46111   0.95161   0.00000  Uiso   1.00
C1179  C     0.49763   0.49907   0.52323   0.00000  Uiso   1.00
C1180  C     0.49731   0.50229   0.97668   0.00000  Uiso   1.00
C1181  C     0.46837   0.45652   0.54515   0.00000  Uiso   1.00
C1182  C     0.48501   0.40205   0.75218   0.00000  Uiso   1.00
C1183  C     0.52744   0.54482   0.95478   0.00000  Uiso   1.00
C1184  C     0.56467   0.57549   0.52588   0.00000  Uiso   1.00
C1185  C     0.44416   0.41682   0.97251   0.00000  Uiso   1.00
C1186  C     0.47345   0.38469   0.63469   0.00000  Uiso   1.00
C1187  C     0.44505   0.66443   0.64316   0.00000  Uiso   1.00
C1188  C     0.51601   0.61872   0.86766   0.00000  Uiso   1.00
C1189  C     0.54697   0.33535   0.85201   0.00000  Uiso   1.00
C1190  C     0.58230   0.64379   0.57699   0.00000  Uiso   1.00
C1191  C     0.38157   0.37587   0.92347   0.00000  Uiso   1.00
C1192  C     0.55201   0.33585   0.97355   0.00000  Uiso   1.00
C1193  C     0.55915   0.58263   0.98041   0.00000  Uiso   1.00
C1194  C     0.58650   0.38761   0.97361   0.00000  Uiso   1.00
C1195  C     0.39111   0.33531   0.53211   0.00000  Uiso   1.00
C1196  C     0.40587   0.61459   0.51363   0.00000  Uiso   1.00
C1197  C     0.64747   0.41619   0.69137   0.00000  Uiso   1.00
C1198  C     0.35176   0.58436   0.80803   0.00000  Uiso   1.00
C1199  C     0.44524   0.41367   0.51959   0.00000  Uiso   1.00
C1200  C     0.52252   0.65240   0.74587   0.00000  Uiso   1.00
C1201  C     0.47719   0.34746   0.75221   0.00000  Uiso   1.00
C1202  C     0.50098   0.50185   0.83619   0.00000  Uiso   1.00
C1203  C     0.49917   0.49851   0.66370   0.00000  Uiso   1.00
C1204  C     0.46749   0.45577   0.59245   0.00000  Uiso   1.00
H1205  H     0.56155   0.55711   0.61266   0.00000  Uiso   1.00
H1206  H     0.48090   0.62826   0.89279   0.00000  Uiso   1.00
H1207  H     0.49664   0.59945   0.83824   0.00000  Uiso   1.00
H1208  H     0.57847   0.65984   0.82392   0.00000  Uiso   1.00
H1209  H     0.51627   0.36186   0.84086   0.00000  Uiso   1.00
H1210  H     0.56993   0.35527   0.87932   0.00000  Uiso   1.00
H1211  H     0.60103   0.64325   0.60993   0.00000  Uiso   1.00
H1212  H     0.53551   0.63849   0.58272   0.00000  Uiso   1.00
H1213  H     0.59365   0.34934   0.56380   0.00000  Uiso   1.00
H1214  H     0.39133   0.36651   0.88724   0.00000  Uiso   1.00
H1215  H     0.36345   0.41477   0.92722   0.00000  Uiso   1.00
H1216  H     0.46015   0.42967   0.88433   0.00000  Uiso   1.00
H1217  H     0.34944   0.34543   0.93459   0.00000  Uiso   1.00
H1218  H     0.52914   0.66662   0.50699   0.00000  Uiso   1.00
H1219  H     0.52008   0.33698   0.94904   0.00000  Uiso   1.00
H1220  H     0.56038   0.41861   0.98850   0.00000  Uiso   1.00
H1221  H     0.62256   0.38721   0.99463   0.00000  Uiso   1.00
H1222  H     0.60091   0.39823   0.93919   0.00000  Uiso   1.00
H1223  H     0.36291   0.35223   0.51009   0.00000  Uiso   1.00
H1224  H     0.36676   0.66487   0.56489   0.00000  Uiso   1.00
H1225  H     0.42864   0.59496   0.53851   0.00000  Uiso   1.00
H1226  H     0.36699   0.59056   0.50616   0.00000  Uiso   1.00
H1227  H     0.56547   0.33568   0.74037   0.00000  Uiso   1.00
H1228  H     0.43326   0.61720   0.98214   0.00000  Uiso   1.00
H1229  H     0.60543   0.42246   0.67965   0.00000  Uiso   1.00
H1230  H     0.64424   0.39057   0.72031   0.00000  Uiso   1.00
H1231  H     0.33761   0.39588   0.66311   0.00000  Uiso   1.00
H1232  H     0.35640   0.60886   0.77833   0.00000  Uiso   1.00
H1233  H     0.39316   0.57853   0.82121   0.00000  Uiso   1.00
H1234  H     0.66013   0.60573   0.83488   0.00000  Uiso   1.00
H1235  H     0.43421   0.66419   0.75750   0.00000  Uiso   1.00
H1236  H     0.48500   0.40176   0.66735   0.00000  Uiso   1.00
H1237  H     0.51336   0.38044   0.61360   0.00000  Uiso   1.00
H1238  H     0.43437   0.64366   0.61141   0.00000  Uiso   1.00
H1239  H     0.47459   0.64067   0.65927   0.00000  Uiso   1.00
H1240  H     0.40616   0.33437   0.66573   0.00000  Uiso   1.00
N1241  N     0.65011   0.48598   0.73783   0.00000  Uiso   1.00
N1242  N     0.34989   0.51402   0.76217   0.00000  Uiso   1.00
O1243  O     0.46308   0.57952   0.75298   0.00000  Uiso   1.00
O1244  O     0.55521   0.58711   0.88499   0.00000  Uiso   1.00
O1245  O     0.60621   0.60529   0.54762   0.00000  Uiso   1.00
O1246  O     0.43082   0.37186   0.94679   0.00000  Uiso   1.00
O1247  O     0.58599   0.62665   0.96179   0.00000  Uiso   1.00
O1248  O     0.44146   0.36569   0.53922   0.00000  Uiso   1.00
O1249  O     0.34430   0.46316   0.70193   0.00000  Uiso   1.00
O1250  O     0.65559   0.53692   0.79799   0.00000  Uiso   1.00
O1251  O     0.53692   0.42048   0.74701   0.00000  Uiso   1.00
O1252  O     0.55946   0.57054   0.74518   0.00000  Uiso   1.00
O1253  O     0.44054   0.42946   0.75481   0.00000  Uiso   1.00
O1254  O     0.45181   0.50450   0.81997   0.00000  Uiso   1.00
O1255  O     0.54819   0.49550   0.68002   0.00000  Uiso   1.00
O1256  O     0.54819   0.49552   0.81217   0.00000  Uiso   1.00
O1257  O     0.45181   0.50448   0.68782   0.00000  Uiso   1.00
O1258  O     0.43622   0.41666   0.61533   0.00000  Uiso   1.00
Zn1259 Zn    0.43565   0.50600   0.75521   0.00000  Uiso   1.00
Zn1260 Zn    0.56435   0.49400   0.74479   0.00000  Uiso   1.00
C1261  C     0.84829   0.59792   0.74772   0.00000  Uiso   1.00
C1262  C     0.85981   0.54685   0.90779   0.00000  Uiso   1.00
C1263  C     0.83187   0.49544   0.61572   0.00000  Uiso   1.00
C1264  C     0.83517   0.50398   0.88398   0.00000  Uiso   1.00
C1265  C     0.86740   0.53121   0.59323   0.00000  Uiso   1.00
C1266  C     0.80875   0.46204   0.90525   0.00000  Uiso   1.00
C1267  C     0.86550   0.53546   0.54747   0.00000  Uiso   1.00
C1268  C     0.80358   0.46111   0.95161   0.00000  Uiso   1.00
C1269  C     0.83096   0.49907   0.52323   0.00000  Uiso   1.00
C1270  C     0.83065   0.50229   0.97668   0.00000  Uiso   1.00
C1271  C     0.80171   0.45652   0.54515   0.00000  Uiso   1.00
C1272  C     0.81834   0.40205   0.75218   0.00000  Uiso   1.00
C1273  C     0.86078   0.54482   0.95478   0.00000  Uiso   1.00
C1274  C     0.89801   0.57549   0.52588   0.00000  Uiso   1.00
C1275  C     0.77750   0.41682   0.97251   0.00000  Uiso   1.00
C1276  C     0.80678   0.38469   0.63469   0.00000  Uiso   1.00
C1277  C     0.77838   0.66443   0.64316   0.00000  Uiso   1.00
C1278  C     0.84935   0.61872   0.86766   0.00000  Uiso   1.00
C1279  C     0.88030   0.33535   0.85201   0.00000  Uiso   1.00
C1280  C     0.91564   0.64379   0.57699   0.00000  Uiso   1.00
C1281  C     0.71490   0.37587   0.92347   0.00000  Uiso   1.00
C1282  C     0.88534   0.33585   0.97355   0.00000  Uiso   1.00
C1283  C     0.89249   0.58263   0.98041   0.00000  Uiso   1.00
C1284  C     0.91983   0.38761   0.97361   0.00000  Uiso   1.00
C1285  C     0.72444   0.33531   0.53211   0.00000  Uiso   1.00
C1286  C     0.73920   0.61459   0.51363   0.00000  Uiso   1.00
C1287  C     0.98081   0.41619   0.69137   0.00000  Uiso   1.00
C1288  C     0.68509   0.58436   0.80803   0.00000  Uiso   1.00
C1289  C     0.77857   0.41367   0.51959   0.00000  Uiso   1.00
C1290  C     0.85586   0.65240   0.74587   0.00000  Uiso   1.00
C1291  C     0.81052   0.34746   0.75221   0.00000  Uiso   1.00
C1292  C     0.83431   0.50185   0.83619   0.00000  Uiso   1.00
C1293  C     0.83250   0.49851   0.66370   0.00000  Uiso   1.00
C1294  C     0.80082   0.45577   0.59245   0.00000  Uiso   1.00
H1295  H     0.89488   0.55711   0.61266   0.00000  Uiso   1.00
H1296  H     0.81424   0.62826   0.89279   0.00000  Uiso   1.00
H1297  H     0.82997   0.59945   0.83824   0.00000  Uiso   1.00
H1298  H     0.91180   0.65984   0.82392   0.00000  Uiso   1.00
H1299  H     0.84960   0.36186   0.84086   0.00000  Uiso   1.00
H1300  H     0.90326   0.35527   0.87932   0.00000  Uiso   1.00
H1301  H     0.93437   0.64325   0.60993   0.00000  Uiso   1.00
H1302  H     0.86885   0.63849   0.58272   0.00000  Uiso   1.00
H1303  H     0.92699   0.34934   0.56380   0.00000  Uiso   1.00
H1304  H     0.72467   0.36651   0.88724   0.00000  Uiso   1.00
H1305  H     0.69678   0.41477   0.92722   0.00000  Uiso   1.00
H1306  H     0.79349   0.42967   0.88433   0.00000  Uiso   1.00
H1307  H     0.68278   0.34543   0.93459   0.00000  Uiso   1.00
H1308  H     0.86247   0.66662   0.50699   0.00000  Uiso   1.00
H1309  H     0.85341   0.33698   0.94904   0.00000  Uiso   1.00
H1310  H     0.89371   0.41861   0.98850   0.00000  Uiso   1.00
H1311  H     0.95589   0.38721   0.99463   0.00000  Uiso   1.00
H1312  H     0.93425   0.39823   0.93919   0.00000  Uiso   1.00
H1313  H     0.69624   0.35223   0.51009   0.00000  Uiso   1.00
H1314  H     0.70009   0.66487   0.56489   0.00000  Uiso   1.00
H1315  H     0.76197   0.59496   0.53851   0.00000  Uiso   1.00
H1316  H     0.70032   0.59056   0.50616   0.00000  Uiso   1.00
H1317  H     0.89880   0.33568   0.74037   0.00000  Uiso   1.00
H1318  H     0.76659   0.61720   0.98214   0.00000  Uiso   1.00
H1319  H     0.93876   0.42246   0.67965   0.00000  Uiso   1.00
H1320  H     0.97758   0.39057   0.72031   0.00000  Uiso   1.00
H1321  H     0.67094   0.39588   0.66311   0.00000  Uiso   1.00
H1322  H     0.68973   0.60886   0.77833   0.00000  Uiso   1.00
H1323  H     0.72649   0.57853   0.82121   0.00000  Uiso   1.00
H1324  H     0.99346   0.60573   0.83488   0.00000  Uiso   1.00
H1325  H     0.76754   0.66419   0.75750   0.00000  Uiso   1.00
H1326  H     0.81834   0.40176   0.66735   0.00000  Uiso   1.00
H1327  H     0.84669   0.38044   0.61360   0.00000  Uiso   1.00
H1328  H     0.76771   0.64366   0.61141   0.00000  Uiso   1.00
H1329  H     0.80793   0.64067   0.65927   0.00000  Uiso   1.00
H1330  H     0.73949   0.33437   0.66573   0.00000  Uiso   1.00
N1331  N     0.98344   0.48598   0.73783   0.00000  Uiso   1.00
N1332  N     0.68322   0.51402   0.76217   0.00000  Uiso   1.00
O1333  O     0.79642   0.57952   0.75298   0.00000  Uiso   1.00
O1334  O     0.88854   0.58711   0.88499   0.00000  Uiso   1.00
O1335  O     0.93955   0.60529   0.54762   0.00000  Uiso   1.00
O1336  O     0.76416   0.37186   0.94679   0.00000  Uiso   1.00
O1337  O     0.91932   0.62665   0.96179   0.00000  Uiso   1.00
O1338  O     0.77479   0.36569   0.53922   0.00000  Uiso   1.00
O1339  O     0.67763   0.46316   0.70193   0.00000  Uiso   1.00
O1340  O     0.98892   0.53692   0.79799   0.00000  Uiso   1.00
O1341  O     0.87025   0.42048   0.74701   0.00000  Uiso   1.00
O1342  O     0.89280   0.57054   0.74518   0.00000  Uiso   1.00
O1343  O     0.77387   0.42946   0.75481   0.00000  Uiso   1.00
O1344  O     0.78514   0.50450   0.81997   0.00000  Uiso   1.00
O1345  O     0.88153   0.49550   0.68002   0.00000  Uiso   1.00
O1346  O     0.88152   0.49552   0.81217   0.00000  Uiso   1.00
O1347  O     0.78515   0.50448   0.68782   0.00000  Uiso   1.00
O1348  O     0.76955   0.41666   0.61533   0.00000  Uiso   1.00
Zn1349 Zn    0.76898   0.50600   0.75521   0.00000  Uiso   1.00
Zn1350 Zn    0.89769   0.49400   0.74479   0.00000  Uiso   1.00
C1351  C     0.18162   0.93126   0.74772   0.00000  Uiso   1.00
C1352  C     0.19314   0.88018   0.90779   0.00000  Uiso   1.00
C1353  C     0.16520   0.82877   0.61572   0.00000  Uiso   1.00
C1354  C     0.16851   0.83731   0.88398   0.00000  Uiso   1.00
C1355  C     0.20073   0.86454   0.59323   0.00000  Uiso   1.00
C1356  C     0.14208   0.79538   0.90525   0.00000  Uiso   1.00
C1357  C     0.19884   0.86879   0.54747   0.00000  Uiso   1.00
C1358  C     0.13691   0.79444   0.95161   0.00000  Uiso   1.00
C1359  C     0.16429   0.83240   0.52323   0.00000  Uiso   1.00
C1360  C     0.16398   0.83563   0.97668   0.00000  Uiso   1.00
C1361  C     0.13504   0.78986   0.54515   0.00000  Uiso   1.00
C1362  C     0.15167   0.73538   0.75218   0.00000  Uiso   1.00
C1363  C     0.19411   0.87816   0.95478   0.00000  Uiso   1.00
C1364  C     0.23134   0.90882   0.52588   0.00000  Uiso   1.00
C1365  C     0.11083   0.75015   0.97251   0.00000  Uiso   1.00
C1366  C     0.14011   0.71802   0.63469   0.00000  Uiso   1.00
C1367  C     0.11171   0.99776   0.64316   0.00000  Uiso   1.00
C1368  C     0.18268   0.95206   0.86766   0.00000  Uiso   1.00
C1369  C     0.21364   0.66869   0.85201   0.00000  Uiso   1.00
C1370  C     0.24897   0.97713   0.57699   0.00000  Uiso   1.00
C1371  C     0.04824   0.70920   0.92347   0.00000  Uiso   1.00
C1372  C     0.21867   0.66918   0.97355   0.00000  Uiso   1.00
C1373  C     0.22582   0.91596   0.98041   0.00000  Uiso   1.00
C1374  C     0.25316   0.72094   0.97361   0.00000  Uiso   1.00
C1375  C     0.05778   0.66865   0.53211   0.00000  Uiso   1.00
C1376  C     0.07253   0.94793   0.51363   0.00000  Uiso   1.00
C1377  C     0.31414   0.74953   0.69137   0.00000  Uiso   1.00
C1378  C     0.01842   0.91769   0.80803   0.00000  Uiso   1.00
C1379  C     0.11191   0.74700   0.51959   0.00000  Uiso   1.00
C1380  C     0.18919   0.98573   0.74587   0.00000  Uiso   1.00
C1381  C     0.14385   0.68079   0.75221   0.00000  Uiso   1.00
C1382  C     0.16765   0.83518   0.83619   0.00000  Uiso   1.00
C1383  C     0.16584   0.83184   0.66370   0.00000  Uiso   1.00
C1384  C     0.13416   0.78910   0.59245   0.00000  Uiso   1.00
H1385  H     0.22822   0.89044   0.61266   0.00000  Uiso   1.00
H1386  H     0.14757   0.96160   0.89279   0.00000  Uiso   1.00
H1387  H     0.16331   0.93278   0.83824   0.00000  Uiso   1.00
H1388  H     0.24514   0.99317   0.82392   0.00000  Uiso   1.00
H1389  H     0.18293   0.69519   0.84086   0.00000  Uiso   1.00
H1390  H     0.23660   0.68860   0.87932   0.00000  Uiso   1.00
H1391  H     0.26770   0.97659   0.60993   0.00000  Uiso   1.00
H1392  H     0.20218   0.97182   0.58272   0.00000  Uiso   1.00
H1393  H     0.26032   0.68267   0.56380   0.00000  Uiso   1.00
H1394  H     0.05800   0.69984   0.88724   0.00000  Uiso   1.00
H1395  H     0.03012   0.74810   0.92722   0.00000  Uiso   1.00
H1396  H     0.12682   0.76301   0.88433   0.00000  Uiso   1.00
H1397  H     0.01611   0.67877   0.93459   0.00000  Uiso   1.00
H1398  H     0.19581   0.99995   0.50699   0.00000  Uiso   1.00
H1399  H     0.18675   0.67031   0.94904   0.00000  Uiso   1.00
H1400  H     0.22705   0.75194   0.98850   0.00000  Uiso   1.00
H1401  H     0.28922   0.72054   0.99463   0.00000  Uiso   1.00
H1402  H     0.26758   0.73156   0.93919   0.00000  Uiso   1.00
H1403  H     0.02958   0.68556   0.51009   0.00000  Uiso   1.00
H1404  H     0.03343   0.99820   0.56489   0.00000  Uiso   1.00
H1405  H     0.09530   0.92829   0.53851   0.00000  Uiso   1.00
H1406  H     0.03365   0.92389   0.50616   0.00000  Uiso   1.00
H1407  H     0.23213   0.66902   0.74037   0.00000  Uiso   1.00
H1408  H     0.09993   0.95053   0.98214   0.00000  Uiso   1.00
H1409  H     0.27209   0.75579   0.67965   0.00000  Uiso   1.00
H1410  H     0.31091   0.72390   0.72031   0.00000  Uiso   1.00
H1411  H     0.00427   0.72921   0.66311   0.00000  Uiso   1.00
H1412  H     0.02306   0.94219   0.77833   0.00000  Uiso   1.00
H1413  H     0.05982   0.91186   0.82121   0.00000  Uiso   1.00
H1414  H     0.32679   0.93906   0.83488   0.00000  Uiso   1.00
H1415  H     0.10088   0.99752   0.75750   0.00000  Uiso   1.00
H1416  H     0.15167   0.73510   0.66735   0.00000  Uiso   1.00
H1417  H     0.18002   0.71378   0.61360   0.00000  Uiso   1.00
H1418  H     0.10104   0.97700   0.61141   0.00000  Uiso   1.00
H1419  H     0.14126   0.97400   0.65927   0.00000  Uiso   1.00
H1420  H     0.07282   0.66771   0.66573   0.00000  Uiso   1.00
N1421  N     0.31678   0.81932   0.73783   0.00000  Uiso   1.00
N1422  N     0.01656   0.84735   0.76217   0.00000  Uiso   1.00
O1423  O     0.12975   0.91286   0.75298   0.00000  Uiso   1.00
O1424  O     0.22188   0.92045   0.88499   0.00000  Uiso   1.00
O1425  O     0.27288   0.93862   0.54762   0.00000  Uiso   1.00
O1426  O     0.09749   0.70520   0.94679   0.00000  Uiso   1.00
O1427  O     0.25266   0.95998   0.96179   0.00000  Uiso   1.00
O1428  O     0.10812   0.69902   0.53922   0.00000  Uiso   1.00
O1429  O     0.01097   0.79649   0.70193   0.00000  Uiso   1.00
O1430  O     0.32225   0.87025   0.79799   0.00000  Uiso   1.00
O1431  O     0.20358   0.75381   0.74701   0.00000  Uiso   1.00
O1432  O     0.22613   0.90387   0.74518   0.00000  Uiso   1.00
O1433  O     0.10720   0.76279   0.75481   0.00000  Uiso   1.00
O1434  O     0.11847   0.83784   0.81997   0.00000  Uiso   1.00
O1435  O     0.21486   0.82883   0.68002   0.00000  Uiso   1.00
O1436  O     0.21485   0.82885   0.81217   0.00000  Uiso   1.00
O1437  O     0.11848   0.83781   0.68782   0.00000  Uiso   1.00
O1438  O     0.10288   0.75000   0.61533   0.00000  Uiso   1.00
Zn1439 Zn    0.10231   0.83933   0.75521   0.00000  Uiso   1.00
Zn1440 Zn    0.23102   0.82734   0.74479   0.00000  Uiso   1.00
C1441  C     0.51496   0.93126   0.74772   0.00000  Uiso   1.00
C1442  C     0.52648   0.88018   0.90779   0.00000  Uiso   1.00
C1443  C     0.49854   0.82877   0.61572   0.00000  Uiso   1.00
C1444  C     0.50184   0.83731   0.88398   0.00000  Uiso   1.00
C1445  C     0.53407   0.86454   0.59323   0.00000  Uiso   1.00
C1446  C     0.47542   0.79538   0.90525   0.00000  Uiso   1.00
C1447  C     0.53217   0.86879   0.54747   0.00000  Uiso   1.00
C1448  C     0.47024   0.79444   0.95161   0.00000  Uiso   1.00
C1449  C     0.49763   0.83240   0.52323   0.00000  Uiso   1.00
C1450  C     0.49731   0.83563   0.97668   0.00000  Uiso   1.00
C1451  C     0.46837   0.78986   0.54515   0.00000  Uiso   1.00
C1452  C     0.48501   0.73538   0.75218   0.00000  Uiso   1.00
C1453  C     0.52744   0.87816   0.95478   0.00000  Uiso   1.00
C1454  C     0.56467   0.90882   0.52588   0.00000  Uiso   1.00
C1455  C     0.44416   0.75015   0.97251   0.00000  Uiso   1.00
C1456  C     0.47345   0.71802   0.63469   0.00000  Uiso   1.00
C1457  C     0.44505   0.99776   0.64316   0.00000  Uiso   1.00
C1458  C     0.51601   0.95206   0.86766   0.00000  Uiso   1.00
C1459  C     0.54697   0.66869   0.85201   0.00000  Uiso   1.00
C1460  C     0.58230   0.97713   0.57699   0.00000  Uiso   1.00
C1461  C     0.38157   0.70920   0.92347   0.00000  Uiso   1.00
C1462  C     0.55201   0.66918   0.97355   0.00000  Uiso   1.00
C1463  C     0.55915   0.91596   0.98041   0.00000  Uiso   1.00
C1464  C     0.58650   0.72094   0.97361   0.00000  Uiso   1.00
C1465  C     0.39111   0.66865   0.53211   0.00000  Uiso   1.00
C1466  C     0.40587   0.94793   0.51363   0.00000  Uiso   1.00
C1467  C     0.64747   0.74953   0.69137   0.00000  Uiso   1.00
C1468  C     0.35176   0.91769   0.80803   0.00000  Uiso   1.00
C1469  C     0.44524   0.74700   0.51959   0.00000  Uiso   1.00
C1470  C     0.52252   0.98573   0.74587   0.00000  Uiso   1.00
C1471  C     0.47719   0.68079   0.75221   0.00000  Uiso   1.00
C1472  C     0.50098   0.83518   0.83619   0.00000  Uiso   1.00
C1473  C     0.49917   0.83184   0.66370   0.00000  Uiso   1.00
C1474  C     0.46749   0.78910   0.59245   0.00000  Uiso   1.00
H1475  H     0.56155   0.89044   0.61266   0.00000  Uiso   1.00
H1476  H     0.48090   0.96160   0.89279   0.00000  Uiso   1.00
H1477  H     0.49664   0.93278   0.83824   0.00000  Uiso   1.00
H1478  H     0.57847   0.99317   0.82392   0.00000  Uiso   1.00
H1479  H     0.51627   0.69519   0.84086   0.00000  Uiso   1.00
H1480  H     0.56993   0.68860   0.87932   0.00000  Uiso   1.00
H1481  H     0.60103   0.97659   0.60993   0.00000  Uiso   1.00
H1482  H     0.53551   0.97182   0.58272   0.00000  Uiso   1.00
H1483  H     0.59365   0.68267   0.56380   0.00000  Uiso   1.00
H1484  H     0.39133   0.69984   0.88724   0.00000  Uiso   1.00
H1485  H     0.36345   0.74810   0.92722   0.00000  Uiso   1.00
H1486  H     0.46015   0.76301   0.88433   0.00000  Uiso   1.00
H1487  H     0.34944   0.67877   0.93459   0.00000  Uiso   1.00
H1488  H     0.52914   0.99995   0.50699   0.00000  Uiso   1.00
H1489  H     0.52008   0.67031   0.94904   0.00000  Uiso   1.00
H1490  H     0.56038   0.75194   0.98850   0.00000  Uiso   1.00
H1491  H     0.62256   0.72054   0.99463   0.00000  Uiso   1.00
H1492  H     0.60091   0.73156   0.93919   0.00000  Uiso   1.00
H1493  H     0.36291   0.68556   0.51009   0.00000  Uiso   1.00
H1494  H     0.36676   0.99820   0.56489   0.00000  Uiso   1.00
H1495  H     0.42864   0.92829   0.53851   0.00000  Uiso   1.00
H1496  H     0.36699   0.92389   0.50616   0.00000  Uiso   1.00
H1497  H     0.56547   0.66902   0.74037   0.00000  Uiso   1.00
H1498  H     0.43326   0.95053   0.98214   0.00000  Uiso   1.00
H1499  H     0.60543   0.75579   0.67965   0.00000  Uiso   1.00
H1500  H     0.64424   0.72390   0.72031   0.00000  Uiso   1.00
H1501  H     0.33761   0.72921   0.66311   0.00000  Uiso   1.00
H1502  H     0.35640   0.94219   0.77833   0.00000  Uiso   1.00
H1503  H     0.39316   0.91186   0.82121   0.00000  Uiso   1.00
H1504  H     0.66013   0.93906   0.83488   0.00000  Uiso   1.00
H1505  H     0.43421   0.99752   0.75750   0.00000  Uiso   1.00
H1506  H     0.48500   0.73510   0.66735   0.00000  Uiso   1.00
H1507  H     0.51336   0.71378   0.61360   0.00000  Uiso   1.00
H1508  H     0.43437   0.97700   0.61141   0.00000  Uiso   1.00
H1509  H     0.47459   0.97400   0.65927   0.00000  Uiso   1.00
H1510  H     0.40616   0.66771   0.66573   0.00000  Uiso   1.00
N1511  N     0.65011   0.81932   0.73783   0.00000  Uiso   1.00
N1512  N     0.34989   0.84735   0.76217   0.00000  Uiso   1.00
O1513  O     0.46308   0.91286   0.75298   0.00000  Uiso   1.00
O1514  O     0.55521   0.92045   0.88499   0.00000  Uiso   1.00
O1515  O     0.60621   0.93862   0.54762   0.00000  Uiso   1.00
O1516  O     0.43082   0.70520   0.94679   0.00000  Uiso   1.00
O1517  O     0.58599   0.95998   0.96179   0.00000  Uiso   1.00
O1518  O     0.44146   0.69902   0.53922   0.00000  Uiso   1.00
O1519  O     0.34430   0.79649   0.70193   0.00000  Uiso   1.00
O1520  O     0.65559   0.87025   0.79799   0.00000  Uiso   1.00
O1521  O     0.53692   0.75381   0.74701   0.00000  Uiso   1.00
O1522  O     0.55946   0.90387   0.74518   0.00000  Uiso   1.00
O1523  O     0.44054   0.76279   0.75481   0.00000  Uiso   1.00
O1524  O     0.45181   0.83784   0.81997   0.00000  Uiso   1.00
O1525  O     0.54819   0.82883   0.68002   0.00000  Uiso   1.00
O1526  O     0.54819   0.82885   0.81217   0.00000  Uiso   1.00
O1527  O     0.45181   0.83781   0.68782   0.00000  Uiso   1.00
O1528  O     0.43622   0.75000   0.61533   0.00000  Uiso   1.00
Zn1529 Zn    0.43565   0.83933   0.75521   0.00000  Uiso   1.00
Zn1530 Zn    0.56435   0.82734   0.74479   0.00000  Uiso   1.00
C1531  C     0.84829   0.93126   0.74772   0.00000  Uiso   1.00
C1532  C     0.85981   0.88018   0.90779   0.00000  Uiso   1.00
C1533  C     0.83187   0.82877   0.61572   0.00000  Uiso   1.00
C1534  C     0.83517   0.83731   0.88398   0.00000  Uiso   1.00
C1535  C     0.86740   0.86454   0.59323   0.00000  Uiso   1.00
C1536  C     0.80875   0.79538   0.90525   0.00000  Uiso   1.00
C1537  C     0.86550   0.86879   0.54747   0.00000  Uiso   1.00
C1538  C     0.80358   0.79444   0.95161   0.00000  Uiso   1.00
C1539  C     0.83096   0.83240   0.52323   0.00000  Uiso   1.00
C1540  C     0.83065   0.83563   0.97668   0.00000  Uiso   1.00
C1541  C     0.80171   0.78986   0.54515   0.00000  Uiso   1.00
C1542  C     0.81834   0.73538   0.75218   0.00000  Uiso   1.00
C1543  C     0.86078   0.87816   0.95478   0.00000  Uiso   1.00
C1544  C     0.89801   0.90882   0.52588   0.00000  Uiso   1.00
C1545  C     0.77750   0.75015   0.97251   0.00000  Uiso   1.00
C1546  C     0.80678   0.71802   0.63469   0.00000  Uiso   1.00
C1547  C     0.77838   0.99776   0.64316   0.00000  Uiso   1.00
C1548  C     0.84935   0.95206   0.86766   0.00000  Uiso   1.00
C1549  C     0.88030   0.66869   0.85201   0.00000  Uiso   1.00
C1550  C     0.91564   0.97713   0.57699   0.00000  Uiso   1.00
C1551  C     0.71490   0.70920   0.92347   0.00000  Uiso   1.00
C1552  C     0.88534   0.66918   0.97355   0.00000  Uiso   1.00
C1553  C     0.89249   0.91596   0.98041   0.00000  Uiso   1.00
C1554  C     0.91983   0.72094   0.97361   0.00000  Uiso   1.00
C1555  C     0.72444   0.66865   0.53211   0.00000  Uiso   1.00
C1556  C     0.73920   0.94793   0.51363   0.00000  Uiso   1.00
C1557  C     0.98081   0.74953   0.69137   0.00000  Uiso   1.00
C1558  C     0.68509   0.91769   0.80803   0.00000  Uiso   1.00
C1559  C     0.77857   0.74700   0.51959   0.00000  Uiso   1.00
C1560  C     0.85586   0.98573   0.74587   0.00000  Uiso   1.00
C1561  C     0.81052   0.68079   0.75221   0.00000  Uiso   1.00
C1562  C     0.83431   0.83518   0.83619   0.00000  Uiso   1.00
C1563  C     0.83250   0.83184   0.66370   0.00000  Uiso   1.00
C1564  C     0.80082   0.78910   0.59245   0.00000  Uiso   1.00
H1565  H     0.89488   0.89044   0.61266   0.00000  Uiso   1.00
H1566  H     0.81424   0.96160   0.89279   0.00000  Uiso   1.00
H1567  H     0.82997   0.93278   0.83824   0.00000  Uiso   1.00
H1568  H     0.91180   0.99317   0.82392   0.00000  Uiso   1.00
H1569  H     0.84960   0.69519   0.84086   0.00000  Uiso   1.00
H1570  H     0.90326   0.68860   0.87932   0.00000  Uiso   1.00
H1571  H     0.93437   0.97659   0.60993   0.00000  Uiso   1.00
H1572  H     0.86885   0.97182   0.58272   0.00000  Uiso   1.00
H1573  H     0.92699   0.68267   0.56380   0.00000  Uiso   1.00
H1574  H     0.72467   0.69984   0.88724   0.00000  Uiso   1.00
H1575  H     0.69678   0.74810   0.92722   0.00000  Uiso   1.00
H1576  H     0.79349   0.76301   0.88433   0.00000  Uiso   1.00
H1577  H     0.68278   0.67877   0.93459   0.00000  Uiso   1.00
H1578  H     0.86247   0.99995   0.50699   0.00000  Uiso   1.00
H1579  H     0.85341   0.67031   0.94904   0.00000  Uiso   1.00
H1580  H     0.89371   0.75194   0.98850   0.00000  Uiso   1.00
H1581  H     0.95589   0.72054   0.99463   0.00000  Uiso   1.00
H1582  H     0.93425   0.73156   0.93919   0.00000  Uiso   1.00
H1583  H     0.69624   0.68556   0.51009   0.00000  Uiso   1.00
H1584  H     0.70009   0.99820   0.56489   0.00000  Uiso   1.00
H1585  H     0.76197   0.92829   0.53851   0.00000  Uiso   1.00
H1586  H     0.70032   0.92389   0.50616   0.00000  Uiso   1.00
H1587  H     0.89880   0.66902   0.74037   0.00000  Uiso   1.00
H1588  H     0.76659   0.95053   0.98214   0.00000  Uiso   1.00
H1589  H     0.93876   0.75579   0.67965   0.00000  Uiso   1.00
H1590  H     0.97758   0.72390   0.72031   0.00000  Uiso   1.00
H1591  H     0.67094   0.72921   0.66311   0.00000  Uiso   1.00
H1592  H     0.68973   0.94219   0.77833   0.00000  Uiso   1.00
H1593  H     0.72649   0.91186   0.82121   0.00000  Uiso   1.00
H1594  H     0.99346   0.93906   0.83488   0.00000  Uiso   1.00
H1595  H     0.76754   0.99752   0.75750   0.00000  Uiso   1.00
H1596  H     0.81834   0.73510   0.66735   0.00000  Uiso   1.00
H1597  H     0.84669   0.71378   0.61360   0.00000  Uiso   1.00
H1598  H     0.76771   0.97700   0.61141   0.00000  Uiso   1.00
H1599  H     0.80793   0.97400   0.65927   0.00000  Uiso   1.00
H1600  H     0.73949   0.66771   0.66573   0.00000  Uiso   1.00
N1601  N     0.98344   0.81932   0.73783   0.00000  Uiso   1.00
N1602  N     0.68322   0.84735   0.76217   0.00000  Uiso   1.00
O1603  O     0.79642   0.91286   0.75298   0.00000  Uiso   1.00
O1604  O     0.88854   0.92045   0.88499   0.00000  Uiso   1.00
O1605  O     0.93955   0.93862   0.54762   0.00000  Uiso   1.00
O1606  O     0.76416   0.70520   0.94679   0.00000  Uiso   1.00
O1607  O     0.91932   0.95998   0.96179   0.00000  Uiso   1.00
O1608  O     0.77479   0.69902   0.53922   0.00000  Uiso   1.00
O1609  O     0.67763   0.79649   0.70193   0.00000  Uiso   1.00
O1610  O     0.98892   0.87025   0.79799   0.00000  Uiso   1.00
O1611  O     0.87025   0.75381   0.74701   0.00000  Uiso   1.00
O1612  O     0.89280   0.90387   0.74518   0.00000  Uiso   1.00
O1613  O     0.77387   0.76279   0.75481   0.00000  Uiso   1.00
O1614  O     0.78514   0.83784   0.81997   0.00000  Uiso   1.00
O1615  O     0.88153   0.82883   0.68002   0.00000  Uiso   1.00
O1616  O     0.88152   0.82885   0.81217   0.00000  Uiso   1.00
O1617  O     0.78515   0.83781   0.68782   0.00000  Uiso   1.00
O1618  O     0.76955   0.75000   0.61533   0.00000  Uiso   1.00
Zn1619 Zn    0.76898   0.83933   0.75521   0.00000  Uiso   1.00
Zn1620 Zn    0.89769   0.82734   0.74479   0.00000  Uiso   1.00
loop_
_geom_bond_atom_site_label_1
_geom_bond_atom_site_label_2
_geom_bond_distance
_geom_bond_site_symmetry_2
_ccdc_geom_bond_type
C1     O82     1.303   .     A
C1     O73     1.292   .     A
C1     C30     1.410   .     S
C2     C13     1.411   .     A
C2     O74     1.388   .     S
C2     C4      1.403   .     A
C3     C33     1.434   .     S
C3     C34     1.407   .     A
C3     C5      1.378   .     A
C4     C6      1.377   .     A
C4     C32     1.429   .     S
C5     C7      1.382   .     A
C5     H35     1.081   .     S
C6     C8      1.384   .     A
C6     H46     1.077   .     S
C7     C14     1.405   .     A
C7     C9      1.413   .     A
C8     C15     1.417   .     A
C8     C10     1.416   .     A
C9     C11     1.425   .     A
C9     C820    1.399   1_554 S
C10    C13     1.432   .     A
C10    C819    1.399   .     S
C11    C29     1.416   .     A
C11    C34     1.414   .     A
C12    O83     1.302   .     A
C12    C31     1.410   .     S
C12    O81     1.293   .     A
C13    C23     1.420   .     A
C14    O75     1.388   .     S
C14    C833    1.398   1_554 S
C15    O76     1.391   .     S
C15    C839    1.416   .     S
C16    H67     1.108   .     S
C16    H66     1.096   .     S
C16    O88     1.417   .     S
C16    C557    1.525   1_545 S
C17    H69     1.110   .     S
C17    H68     1.104   .     S
C17    C286    1.525   .     S
C17    H340    1.109   .     S
C18    H37     1.103   .     S
C18    O74     1.416   .     S
C18    H36     1.112   .     S
C18    C289    1.521   .     S
C19    H39     1.109   .     S
C19    H40     1.101   .     S
C19    C558    1.521   1_545 S
C19    H578    1.109   1_545 S
C20    H41     1.110   .     S
C20    H42     1.111   .     S
C20    O75     1.412   .     S
C20    H313    1.107   .     S
C21    O76     1.414   .     S
C21    H45     1.115   .     S
C21    H44     1.110   .     S
C21    H47     1.106   .     S
C22    H49     1.093   .     S
C22    C24     1.522   .     S
C22    H1398   1.106   1_545 S
C22    O617    1.418   1_545 S
C23    O77     1.389   .     S
C23    C824    1.398   .     S
C24    H52     1.104   .     S
C24    H51     1.097   .     S
C24    H50     1.100   .     S
C25    H53     1.095   .     S
C25    O78     1.409   .     S
C25    C566    1.527   1_545 S
C25    H594    1.107   1_545 S
C26    H55     1.110   .     S
C26    H56     1.108   .     S
C26    C295    1.527   .     S
C26    H868    1.108   1_554 S
C27    H60     1.111   .     S
C27    H59     1.104   .     S
C27    H151    1.107   .     S
C27    O169    1.401   .     S
C28    H63     1.105   .     S
C28    H62     1.111   .     S
C28    H244    1.109   1_455 S
C28    O260    1.401   1_455 S
C29    O78     1.393   .     S
C29    C825    1.416   1_554 S
C30    C301    1.337   .     S
C30    H327    1.084   .     S
C31    C570    1.337   1_545 S
C31    H605    1.084   1_545 S
C32    O84     1.301   .     A
C32    O86     1.301   .     A
C33    O85     1.300   .     A
C33    O87     1.305   .     A
C34    O88     1.393   .     S
H38    C289    1.109   .     S
H43    C560    1.107   1_545 S
H48    C1102   1.106   1_554 S
H54    C295    1.107   .     S
H57    C570    1.084   1_545 S
H58    C836    1.108   .     S
H61    C207    1.107   1_455 S
H64    C118    1.109   .     S
H65    C301    1.084   .     S
H70    C557    1.109   1_545 S
N71    Zn90    2.052   .     S
N71    N162    1.275   .     S
N71    O169    1.346   .     S
N72    Zn89    2.052   .     S
N72    N251    1.275   1_455 S
N72    O260    1.346   1_455 S
O73    Zn89    1.970   .     S
O77    C292    1.418   .     S
O79    N251    1.346   1_455 S
O79    C207    1.401   1_455 S
O80    C118    1.401   .     S
O80    N162    1.346   .     S
O81    Zn90    1.970   .     S
O82    Zn90    1.986   .     S
O83    Zn89    1.986   .     S
O84    Zn89    2.003   .     S
O85    Zn90    2.003   .     S
O86    Zn90    2.023   .     S
O87    Zn89    2.023   .     S
C91    O172    1.303   .     A
C91    O163    1.292   .     A
C91    C120    1.410   .     S
C92    C103    1.411   .     A
C92    O164    1.388   .     S
C92    C94     1.403   .     A
C93    C123    1.434   .     S
C93    C124    1.407   .     A
C93    C95     1.378   .     A
C94    C96     1.377   .     A
C94    C122    1.429   .     S
C95    C97     1.382   .     A
C95    H125    1.081   .     S
C96    C98     1.384   .     A
C96    H136    1.077   .     S
C97    C104    1.405   .     A
C97    C99     1.413   .     A
C98    C105    1.417   .     A
C98    C100    1.416   .     A
C99    C101    1.425   .     A
C99    C910    1.399   1_554 S
C100   C103    1.432   .     A
C100   C909    1.399   .     S
C101   C119    1.416   .     A
C101   C124    1.414   .     A
C102   O173    1.302   .     A
C102   C121    1.410   .     S
C102   O171    1.293   .     A
C103   C113    1.420   .     A
C104   O165    1.388   .     S
C104   C923    1.398   1_554 S
C105   O166    1.391   .     S
C105   C929    1.416   .     S
C106   H157    1.108   .     S
C106   H156    1.096   .     S
C106   O178    1.417   .     S
C106   C647    1.525   1_545 S
C107   H159    1.110   .     S
C107   H158    1.104   .     S
C107   C376    1.525   .     S
C107   H430    1.109   .     S
C108   H127    1.103   .     S
C108   O164    1.416   .     S
C108   H126    1.112   .     S
C108   C379    1.521   .     S
C109   H129    1.109   .     S
C109   H130    1.101   .     S
C109   C648    1.521   1_545 S
C109   H668    1.109   1_545 S
C110   H131    1.110   .     S
C110   H132    1.111   .     S
C110   O165    1.412   .     S
C110   H403    1.107   .     S
C111   O166    1.414   .     S
C111   H135    1.115   .     S
C111   H134    1.110   .     S
C111   H137    1.106   .     S
C112   H139    1.093   .     S
C112   C114    1.522   .     S
C112   H1488   1.106   1_545 S
C112   O707    1.418   1_545 S
C113   O167    1.389   .     S
C113   C914    1.398   .     S
C114   H142    1.104   .     S
C114   H141    1.097   .     S
C114   H140    1.100   .     S
C115   H143    1.095   .     S
C115   O168    1.409   .     S
C115   C656    1.527   1_545 S
C115   H684    1.107   1_545 S
C116   H145    1.110   .     S
C116   H146    1.108   .     S
C116   C385    1.527   .     S
C116   H958    1.108   1_554 S
C117   H150    1.111   .     S
C117   H149    1.104   .     S
C117   H241    1.107   .     S
C117   O259    1.401   .     S
C118   H153    1.105   .     S
C118   H152    1.111   .     S
C119   O168    1.393   .     S
C119   C915    1.416   1_554 S
C120   C391    1.337   .     S
C120   H417    1.084   .     S
C121   C660    1.337   1_545 S
C121   H695    1.084   1_545 S
C122   O174    1.301   .     A
C122   O176    1.301   .     A
C123   O175    1.300   .     A
C123   O177    1.305   .     A
C124   O178    1.393   .     S
H128   C379    1.109   .     S
H133   C650    1.107   1_545 S
H138   C1192   1.106   1_554 S
H144   C385    1.107   .     S
H147   C660    1.084   1_545 S
H148   C926    1.108   .     S
H154   C208    1.109   .     S
H155   C391    1.084   .     S
H160   C647    1.109   1_545 S
N161   Zn180   2.052   .     S
N161   N252    1.275   .     S
N161   O259    1.346   .     S
N162   Zn179   2.052   .     S
O163   Zn179   1.970   .     S
O167   C382    1.418   .     S
O170   C208    1.401   .     S
O170   N252    1.346   .     S
O171   Zn180   1.970   .     S
O172   Zn180   1.986   .     S
O173   Zn179   1.986   .     S
O174   Zn179   2.003   .     S
O175   Zn180   2.003   .     S
O176   Zn180   2.023   .     S
O177   Zn179   2.023   .     S
C181   O262    1.303   .     A
C181   O253    1.292   .     A
C181   C210    1.410   .     S
C182   C193    1.411   .     A
C182   O254    1.388   .     S
C182   C184    1.403   .     A
C183   C213    1.434   .     S
C183   C214    1.407   .     A
C183   C185    1.378   .     A
C184   C186    1.377   .     A
C184   C212    1.429   .     S
C185   C187    1.382   .     A
C185   H215    1.081   .     S
C186   C188    1.384   .     A
C186   H226    1.077   .     S
C187   C194    1.405   .     A
C187   C189    1.413   .     A
C188   C195    1.417   .     A
C188   C190    1.416   .     A
C189   C191    1.425   .     A
C189   C1000   1.399   1_554 S
C190   C193    1.432   .     A
C190   C999    1.399   .     S
C191   C209    1.416   .     A
C191   C214    1.414   .     A
C192   O263    1.302   .     A
C192   C211    1.410   .     S
C192   O261    1.293   .     A
C193   C203    1.420   .     A
C194   O255    1.388   .     S
C194   C1013   1.398   1_554 S
C195   O256    1.391   .     S
C195   C1019   1.416   .     S
C196   H247    1.108   .     S
C196   H246    1.096   .     S
C196   O268    1.417   .     S
C196   C737    1.525   1_545 S
C197   H249    1.110   .     S
C197   H248    1.104   .     S
C197   C466    1.525   .     S
C197   H520    1.109   .     S
C198   H217    1.103   .     S
C198   O254    1.416   .     S
C198   H216    1.112   .     S
C198   C469    1.521   .     S
C199   H219    1.109   .     S
C199   H220    1.101   .     S
C199   C738    1.521   1_545 S
C199   H758    1.109   1_545 S
C200   H221    1.110   .     S
C200   H222    1.111   .     S
C200   O255    1.412   .     S
C200   H493    1.107   .     S
C201   O256    1.414   .     S
C201   H225    1.115   .     S
C201   H224    1.110   .     S
C201   H227    1.106   .     S
C202   H229    1.093   .     S
C202   C204    1.522   .     S
C202   H1578   1.106   1_545 S
C202   O797    1.418   1_545 S
C203   O257    1.389   .     S
C203   C1004   1.398   .     S
C204   H232    1.104   .     S
C204   H231    1.097   .     S
C204   H230    1.100   .     S
C205   H233    1.095   .     S
C205   O258    1.409   .     S
C205   C746    1.527   1_545 S
C205   H774    1.107   1_545 S
C206   H235    1.110   .     S
C206   H236    1.108   .     S
C206   C475    1.527   .     S
C206   H1048   1.108   1_554 S
C207   H240    1.111   .     S
C207   H239    1.104   .     S
C207   H61     1.107   1_655 S
C207   O79     1.401   1_655 S
C208   H243    1.105   .     S
C208   H242    1.111   .     S
C209   O258    1.393   .     S
C209   C1005   1.416   1_554 S
C210   C481    1.337   .     S
C210   H507    1.084   .     S
C211   C750    1.337   1_545 S
C211   H785    1.084   1_545 S
C212   O264    1.301   .     A
C212   O266    1.301   .     A
C213   O265    1.300   .     A
C213   O267    1.305   .     A
C214   O268    1.393   .     S
H218   C469    1.109   .     S
H223   C740    1.107   1_545 S
H228   C1282   1.106   1_554 S
H234   C475    1.107   .     S
H237   C750    1.084   1_545 S
H238   C1016   1.108   .     S
H244   C28     1.109   1_655 S
H245   C481    1.084   .     S
H250   C737    1.109   1_545 S
N251   Zn270   2.052   .     S
N251   N72     1.275   1_655 S
N251   O79     1.346   1_655 S
N252   Zn269   2.052   .     S
O253   Zn269   1.970   .     S
O257   C472    1.418   .     S
O260   C28     1.401   1_655 S
O260   N72     1.346   1_655 S
O261   Zn270   1.970   .     S
O262   Zn270   1.986   .     S
O263   Zn269   1.986   .     S
O264   Zn269   2.003   .     S
O265   Zn270   2.003   .     S
O266   Zn270   2.023   .     S
O267   Zn269   2.023   .     S
C271   O352    1.303   .     A
C271   O343    1.292   .     A
C271   C300    1.410   .     S
C272   C283    1.411   .     A
C272   O344    1.388   .     S
C272   C274    1.403   .     A
C273   C303    1.434   .     S
C273   C304    1.407   .     A
C273   C275    1.378   .     A
C274   C276    1.377   .     A
C274   C302    1.429   .     S
C275   C277    1.382   .     A
C275   H305    1.081   .     S
C276   C278    1.384   .     A
C276   H316    1.077   .     S
C277   C284    1.405   .     A
C277   C279    1.413   .     A
C278   C285    1.417   .     A
C278   C280    1.416   .     A
C279   C281    1.425   .     A
C279   C1090   1.399   1_554 S
C280   C283    1.432   .     A
C280   C1089   1.399   .     S
C281   C299    1.416   .     A
C281   C304    1.414   .     A
C282   O353    1.302   .     A
C282   C301    1.410   .     S
C282   O351    1.293   .     A
C283   C293    1.420   .     A
C284   O345    1.388   .     S
C284   C1103   1.398   1_554 S
C285   O346    1.391   .     S
C285   C1109   1.416   .     S
C286   H337    1.108   .     S
C286   H336    1.096   .     S
C286   O358    1.417   .     S
C287   H339    1.110   .     S
C287   H338    1.104   .     S
C287   C556    1.525   .     S
C287   H610    1.109   .     S
C288   H307    1.103   .     S
C288   O344    1.416   .     S
C288   H306    1.112   .     S
C288   C559    1.521   .     S
C289   H309    1.109   .     S
C289   H310    1.101   .     S
C290   H311    1.110   .     S
C290   H312    1.111   .     S
C290   O345    1.412   .     S
C290   H583    1.107   .     S
C291   O346    1.414   .     S
C291   H315    1.115   .     S
C291   H314    1.110   .     S
C291   H317    1.106   .     S
C292   H319    1.093   .     S
C292   C294    1.522   .     S
C292   H858    1.106   .     S
C293   O347    1.389   .     S
C293   C1094   1.398   .     S
C294   H322    1.104   .     S
C294   H321    1.097   .     S
C294   H320    1.100   .     S
C295   H323    1.095   .     S
C295   O348    1.409   .     S
C296   H325    1.110   .     S
C296   H326    1.108   .     S
C296   C565    1.527   .     S
C296   H1138   1.108   1_554 S
C297   H330    1.111   .     S
C297   H329    1.104   .     S
C297   H421    1.107   .     S
C297   O439    1.401   .     S
C298   H333    1.105   .     S
C298   H332    1.111   .     S
C298   H514    1.109   1_455 S
C298   O530    1.401   1_455 S
C299   O348    1.393   .     S
C299   C1095   1.416   1_554 S
C300   C571    1.337   .     S
C300   H597    1.084   .     S
C302   O354    1.301   .     A
C302   O356    1.301   .     A
C303   O355    1.300   .     A
C303   O357    1.305   .     A
C304   O358    1.393   .     S
H308   C559    1.109   .     S
H318   C1372   1.106   1_554 S
H324   C565    1.107   .     S
H328   C1106   1.108   .     S
H331   C477    1.107   1_455 S
H334   C388    1.109   .     S
H335   C571    1.084   .     S
N341   Zn360   2.052   .     S
N341   N432    1.275   .     S
N341   O439    1.346   .     S
N342   Zn359   2.052   .     S
N342   N521    1.275   1_455 S
N342   O530    1.346   1_455 S
O343   Zn359   1.970   .     S
O347   C562    1.418   .     S
O349   N521    1.346   1_455 S
O349   C477    1.401   1_455 S
O350   C388    1.401   .     S
O350   N432    1.346   .     S
O351   Zn360   1.970   .     S
O352   Zn360   1.986   .     S
O353   Zn359   1.986   .     S
O354   Zn359   2.003   .     S
O355   Zn360   2.003   .     S
O356   Zn360   2.023   .     S
O357   Zn359   2.023   .     S
C361   O442    1.303   .     A
C361   O433    1.292   .     A
C361   C390    1.410   .     S
C362   C373    1.411   .     A
C362   O434    1.388   .     S
C362   C364    1.403   .     A
C363   C393    1.434   .     S
C363   C394    1.407   .     A
C363   C365    1.378   .     A
C364   C366    1.377   .     A
C364   C392    1.429   .     S
C365   C367    1.382   .     A
C365   H395    1.081   .     S
C366   C368    1.384   .     A
C366   H406    1.077   .     S
C367   C374    1.405   .     A
C367   C369    1.413   .     A
C368   C375    1.417   .     A
C368   C370    1.416   .     A
C369   C371    1.425   .     A
C369   C1180   1.399   1_554 S
C370   C373    1.432   .     A
C370   C1179   1.399   .     S
C371   C389    1.416   .     A
C371   C394    1.414   .     A
C372   O443    1.302   .     A
C372   C391    1.410   .     S
C372   O441    1.293   .     A
C373   C383    1.420   .     A
C374   O435    1.388   .     S
C374   C1193   1.398   1_554 S
C375   O436    1.391   .     S
C375   C1199   1.416   .     S
C376   H427    1.108   .     S
C376   H426    1.096   .     S
C376   O448    1.417   .     S
C377   H429    1.110   .     S
C377   H428    1.104   .     S
C377   C646    1.525   .     S
C377   H700    1.109   .     S
C378   H397    1.103   .     S
C378   O434    1.416   .     S
C378   H396    1.112   .     S
C378   C649    1.521   .     S
C379   H399    1.109   .     S
C379   H400    1.101   .     S
C380   H401    1.110   .     S
C380   H402    1.111   .     S
C380   O435    1.412   .     S
C380   H673    1.107   .     S
C381   O436    1.414   .     S
C381   H405    1.115   .     S
C381   H404    1.110   .     S
C381   H407    1.106   .     S
C382   H409    1.093   .     S
C382   C384    1.522   .     S
C382   H948    1.106   .     S
C383   O437    1.389   .     S
C383   C1184   1.398   .     S
C384   H412    1.104   .     S
C384   H411    1.097   .     S
C384   H410    1.100   .     S
C385   H413    1.095   .     S
C385   O438    1.409   .     S
C386   H415    1.110   .     S
C386   H416    1.108   .     S
C386   C655    1.527   .     S
C386   H1228   1.108   1_554 S
C387   H420    1.111   .     S
C387   H419    1.104   .     S
C387   H511    1.107   .     S
C387   O529    1.401   .     S
C388   H423    1.105   .     S
C388   H422    1.111   .     S
C389   O438    1.393   .     S
C389   C1185   1.416   1_554 S
C390   C661    1.337   .     S
C390   H687    1.084   .     S
C392   O444    1.301   .     A
C392   O446    1.301   .     A
C393   O445    1.300   .     A
C393   O447    1.305   .     A
C394   O448    1.393   .     S
H398   C649    1.109   .     S
H408   C1462   1.106   1_554 S
H414   C655    1.107   .     S
H418   C1196   1.108   .     S
H424   C478    1.109   .     S
H425   C661    1.084   .     S
N431   Zn450   2.052   .     S
N431   N522    1.275   .     S
N431   O529    1.346   .     S
N432   Zn449   2.052   .     S
O433   Zn449   1.970   .     S
O437   C652    1.418   .     S
O440   C478    1.401   .     S
O440   N522    1.346   .     S
O441   Zn450   1.970   .     S
O442   Zn450   1.986   .     S
O443   Zn449   1.986   .     S
O444   Zn449   2.003   .     S
O445   Zn450   2.003   .     S
O446   Zn450   2.023   .     S
O447   Zn449   2.023   .     S
C451   O532    1.303   .     A
C451   O523    1.292   .     A
C451   C480    1.410   .     S
C452   C463    1.411   .     A
C452   O524    1.388   .     S
C452   C454    1.403   .     A
C453   C483    1.434   .     S
C453   C484    1.407   .     A
C453   C455    1.378   .     A
C454   C456    1.377   .     A
C454   C482    1.429   .     S
C455   C457    1.382   .     A
C455   H485    1.081   .     S
C456   C458    1.384   .     A
C456   H496    1.077   .     S
C457   C464    1.405   .     A
C457   C459    1.413   .     A
C458   C465    1.417   .     A
C458   C460    1.416   .     A
C459   C461    1.425   .     A
C459   C1270   1.399   1_554 S
C460   C463    1.432   .     A
C460   C1269   1.399   .     S
C461   C479    1.416   .     A
C461   C484    1.414   .     A
C462   O533    1.302   .     A
C462   C481    1.410   .     S
C462   O531    1.293   .     A
C463   C473    1.420   .     A
C464   O525    1.388   .     S
C464   C1283   1.398   1_554 S
C465   O526    1.391   .     S
C465   C1289   1.416   .     S
C466   H517    1.108   .     S
C466   H516    1.096   .     S
C466   O538    1.417   .     S
C467   H519    1.110   .     S
C467   H518    1.104   .     S
C467   C736    1.525   .     S
C467   H790    1.109   .     S
C468   H487    1.103   .     S
C468   O524    1.416   .     S
C468   H486    1.112   .     S
C468   C739    1.521   .     S
C469   H489    1.109   .     S
C469   H490    1.101   .     S
C470   H491    1.110   .     S
C470   H492    1.111   .     S
C470   O525    1.412   .     S
C470   H763    1.107   .     S
C471   O526    1.414   .     S
C471   H495    1.115   .     S
C471   H494    1.110   .     S
C471   H497    1.106   .     S
C472   H499    1.093   .     S
C472   C474    1.522   .     S
C472   H1038   1.106   .     S
C473   O527    1.389   .     S
C473   C1274   1.398   .     S
C474   H502    1.104   .     S
C474   H501    1.097   .     S
C474   H500    1.100   .     S
C475   H503    1.095   .     S
C475   O528    1.409   .     S
C476   H505    1.110   .     S
C476   H506    1.108   .     S
C476   C745    1.527   .     S
C476   H1318   1.108   1_554 S
C477   H510    1.111   .     S
C477   H509    1.104   .     S
C477   H331    1.107   1_655 S
C477   O349    1.401   1_655 S
C478   H513    1.105   .     S
C478   H512    1.111   .     S
C479   O528    1.393   .     S
C479   C1275   1.416   1_554 S
C480   C751    1.337   .     S
C480   H777    1.084   .     S
C482   O534    1.301   .     A
C482   O536    1.301   .     A
C483   O535    1.300   .     A
C483   O537    1.305   .     A
C484   O538    1.393   .     S
H488   C739    1.109   .     S
H498   C1552   1.106   1_554 S
H504   C745    1.107   .     S
H508   C1286   1.108   .     S
H514   C298    1.109   1_655 S
H515   C751    1.084   .     S
N521   Zn540   2.052   .     S
N521   N342    1.275   1_655 S
N521   O349    1.346   1_655 S
N522   Zn539   2.052   .     S
O523   Zn539   1.970   .     S
O527   C742    1.418   .     S
O530   C298    1.401   1_655 S
O530   N342    1.346   1_655 S
O531   Zn540   1.970   .     S
O532   Zn540   1.986   .     S
O533   Zn539   1.986   .     S
O534   Zn539   2.003   .     S
O535   Zn540   2.003   .     S
O536   Zn540   2.023   .     S
O537   Zn539   2.023   .     S
C541   O622    1.303   .     A
C541   O613    1.292   .     A
C541   C570    1.410   .     S
C542   C553    1.411   .     A
C542   O614    1.388   .     S
C542   C544    1.403   .     A
C543   C573    1.434   .     S
C543   C574    1.407   .     A
C543   C545    1.378   .     A
C544   C546    1.377   .     A
C544   C572    1.429   .     S
C545   C547    1.382   .     A
C545   H575    1.081   .     S
C546   C548    1.384   .     A
C546   H586    1.077   .     S
C547   C554    1.405   .     A
C547   C549    1.413   .     A
C548   C555    1.417   .     A
C548   C550    1.416   .     A
C549   C551    1.425   .     A
C549   C1360   1.399   1_554 S
C550   C553    1.432   .     A
C550   C1359   1.399   .     S
C551   C569    1.416   .     A
C551   C574    1.414   .     A
C552   O623    1.302   .     A
C552   C571    1.410   .     S
C552   O621    1.293   .     A
C553   C563    1.420   .     A
C554   O615    1.388   .     S
C554   C1373   1.398   1_554 S
C555   O616    1.391   .     S
C555   C1379   1.416   .     S
C556   H607    1.108   .     S
C556   H606    1.096   .     S
C556   O628    1.417   .     S
C557   H609    1.110   .     S
C557   H608    1.104   .     S
C557   C16     1.525   1_565 S
C557   H70     1.109   1_565 S
C558   H577    1.103   .     S
C558   O614    1.416   .     S
C558   H576    1.112   .     S
C558   C19     1.521   1_565 S
C559   H579    1.109   .     S
C559   H580    1.101   .     S
C560   H581    1.110   .     S
C560   H582    1.111   .     S
C560   O615    1.412   .     S
C560   H43     1.107   1_565 S
C561   O616    1.414   .     S
C561   H585    1.115   .     S
C561   H584    1.110   .     S
C561   H587    1.106   .     S
C562   H589    1.093   .     S
C562   C564    1.522   .     S
C562   H1128   1.106   .     S
C563   O617    1.389   .     S
C563   C1364   1.398   .     S
C564   H592    1.104   .     S
C564   H591    1.097   .     S
C564   H590    1.100   .     S
C565   H593    1.095   .     S
C565   O618    1.409   .     S
C566   H595    1.110   .     S
C566   H596    1.108   .     S
C566   C25     1.527   1_565 S
C566   H1408   1.108   1_554 S
C567   H600    1.111   .     S
C567   H599    1.104   .     S
C567   H691    1.107   .     S
C567   O709    1.401   .     S
C568   H603    1.105   .     S
C568   H602    1.111   .     S
C568   H784    1.109   1_455 S
C568   O800    1.401   1_455 S
C569   O618    1.393   .     S
C569   C1365   1.416   1_554 S
C570   C31     1.337   1_565 S
C570   H57     1.084   1_565 S
C572   O624    1.301   .     A
C572   O626    1.301   .     A
C573   O625    1.300   .     A
C573   O627    1.305   .     A
C574   O628    1.393   .     S
H578   C19     1.109   1_565 S
H588   C832    1.106   1_564 S
H594   C25     1.107   1_565 S
H598   C1376   1.108   .     S
H601   C747    1.107   1_455 S
H604   C658    1.109   .     S
H605   C31     1.084   1_565 S
N611   Zn630   2.052   .     S
N611   N702    1.275   .     S
N611   O709    1.346   .     S
N612   Zn629   2.052   .     S
N612   N791    1.275   1_455 S
N612   O800    1.346   1_455 S
O613   Zn629   1.970   .     S
O617   C22     1.418   1_565 S
O619   N791    1.346   1_455 S
O619   C747    1.401   1_455 S
O620   C658    1.401   .     S
O620   N702    1.346   .     S
O621   Zn630   1.970   .     S
O622   Zn630   1.986   .     S
O623   Zn629   1.986   .     S
O624   Zn629   2.003   .     S
O625   Zn630   2.003   .     S
O626   Zn630   2.023   .     S
O627   Zn629   2.023   .     S
C631   O712    1.303   .     A
C631   O703    1.292   .     A
C631   C660    1.410   .     S
C632   C643    1.411   .     A
C632   O704    1.388   .     S
C632   C634    1.403   .     A
C633   C663    1.434   .     S
C633   C664    1.407   .     A
C633   C635    1.378   .     A
C634   C636    1.377   .     A
C634   C662    1.429   .     S
C635   C637    1.382   .     A
C635   H665    1.081   .     S
C636   C638    1.384   .     A
C636   H676    1.077   .     S
C637   C644    1.405   .     A
C637   C639    1.413   .     A
C638   C645    1.417   .     A
C638   C640    1.416   .     A
C639   C641    1.425   .     A
C639   C1450   1.399   1_554 S
C640   C643    1.432   .     A
C640   C1449   1.399   .     S
C641   C659    1.416   .     A
C641   C664    1.414   .     A
C642   O713    1.302   .     A
C642   C661    1.410   .     S
C642   O711    1.293   .     A
C643   C653    1.420   .     A
C644   O705    1.388   .     S
C644   C1463   1.398   1_554 S
C645   O706    1.391   .     S
C645   C1469   1.416   .     S
C646   H697    1.108   .     S
C646   H696    1.096   .     S
C646   O718    1.417   .     S
C647   H699    1.110   .     S
C647   H698    1.104   .     S
C647   C106    1.525   1_565 S
C647   H160    1.109   1_565 S
C648   H667    1.103   .     S
C648   O704    1.416   .     S
C648   H666    1.112   .     S
C648   C109    1.521   1_565 S
C649   H669    1.109   .     S
C649   H670    1.101   .     S
C650   H671    1.110   .     S
C650   H672    1.111   .     S
C650   O705    1.412   .     S
C650   H133    1.107   1_565 S
C651   O706    1.414   .     S
C651   H675    1.115   .     S
C651   H674    1.110   .     S
C651   H677    1.106   .     S
C652   H679    1.093   .     S
C652   C654    1.522   .     S
C652   H1218   1.106   .     S
C653   O707    1.389   .     S
C653   C1454   1.398   .     S
C654   H682    1.104   .     S
C654   H681    1.097   .     S
C654   H680    1.100   .     S
C655   H683    1.095   .     S
C655   O708    1.409   .     S
C656   H685    1.110   .     S
C656   H686    1.108   .     S
C656   C115    1.527   1_565 S
C656   H1498   1.108   1_554 S
C657   H690    1.111   .     S
C657   H689    1.104   .     S
C657   H781    1.107   .     S
C657   O799    1.401   .     S
C658   H693    1.105   .     S
C658   H692    1.111   .     S
C659   O708    1.393   .     S
C659   C1455   1.416   1_554 S
C660   C121    1.337   1_565 S
C660   H147    1.084   1_565 S
C662   O714    1.301   .     A
C662   O716    1.301   .     A
C663   O715    1.300   .     A
C663   O717    1.305   .     A
C664   O718    1.393   .     S
H668   C109    1.109   1_565 S
H678   C922    1.106   1_564 S
H684   C115    1.107   1_565 S
H688   C1466   1.108   .     S
H694   C748    1.109   .     S
H695   C121    1.084   1_565 S
N701   Zn720   2.052   .     S
N701   N792    1.275   .     S
N701   O799    1.346   .     S
N702   Zn719   2.052   .     S
O703   Zn719   1.970   .     S
O707   C112    1.418   1_565 S
O710   C748    1.401   .     S
O710   N792    1.346   .     S
O711   Zn720   1.970   .     S
O712   Zn720   1.986   .     S
O713   Zn719   1.986   .     S
O714   Zn719   2.003   .     S
O715   Zn720   2.003   .     S
O716   Zn720   2.023   .     S
O717   Zn719   2.023   .     S
C721   O802    1.303   .     A
C721   O793    1.292   .     A
C721   C750    1.410   .     S
C722   C733    1.411   .     A
C722   O794    1.388   .     S
C722   C724    1.403   .     A
C723   C753    1.434   .     S
C723   C754    1.407   .     A
C723   C725    1.378   .     A
C724   C726    1.377   .     A
C724   C752    1.429   .     S
C725   C727    1.382   .     A
C725   H755    1.081   .     S
C726   C728    1.384   .     A
C726   H766    1.077   .     S
C727   C734    1.405   .     A
C727   C729    1.413   .     A
C728   C735    1.417   .     A
C728   C730    1.416   .     A
C729   C731    1.425   .     A
C729   C1540   1.399   1_554 S
C730   C733    1.432   .     A
C730   C1539   1.399   .     S
C731   C749    1.416   .     A
C731   C754    1.414   .     A
C732   O803    1.302   .     A
C732   C751    1.410   .     S
C732   O801    1.293   .     A
C733   C743    1.420   .     A
C734   O795    1.388   .     S
C734   C1553   1.398   1_554 S
C735   O796    1.391   .     S
C735   C1559   1.416   .     S
C736   H787    1.108   .     S
C736   H786    1.096   .     S
C736   O808    1.417   .     S
C737   H789    1.110   .     S
C737   H788    1.104   .     S
C737   C196    1.525   1_565 S
C737   H250    1.109   1_565 S
C738   H757    1.103   .     S
C738   O794    1.416   .     S
C738   H756    1.112   .     S
C738   C199    1.521   1_565 S
C739   H759    1.109   .     S
C739   H760    1.101   .     S
C740   H761    1.110   .     S
C740   H762    1.111   .     S
C740   O795    1.412   .     S
C740   H223    1.107   1_565 S
C741   O796    1.414   .     S
C741   H765    1.115   .     S
C741   H764    1.110   .     S
C741   H767    1.106   .     S
C742   H769    1.093   .     S
C742   C744    1.522   .     S
C742   H1308   1.106   .     S
C743   O797    1.389   .     S
C743   C1544   1.398   .     S
C744   H772    1.104   .     S
C744   H771    1.097   .     S
C744   H770    1.100   .     S
C745   H773    1.095   .     S
C745   O798    1.409   .     S
C746   H775    1.110   .     S
C746   H776    1.108   .     S
C746   C205    1.527   1_565 S
C746   H1588   1.108   1_554 S
C747   H780    1.111   .     S
C747   H779    1.104   .     S
C747   H601    1.107   1_655 S
C747   O619    1.401   1_655 S
C748   H783    1.105   .     S
C748   H782    1.111   .     S
C749   O798    1.393   .     S
C749   C1545   1.416   1_554 S
C750   C211    1.337   1_565 S
C750   H237    1.084   1_565 S
C752   O804    1.301   .     A
C752   O806    1.301   .     A
C753   O805    1.300   .     A
C753   O807    1.305   .     A
C754   O808    1.393   .     S
H758   C199    1.109   1_565 S
H768   C1012   1.106   1_564 S
H774   C205    1.107   1_565 S
H778   C1556   1.108   .     S
H784   C568    1.109   1_655 S
H785   C211    1.084   1_565 S
N791   Zn810   2.052   .     S
N791   N612    1.275   1_655 S
N791   O619    1.346   1_655 S
N792   Zn809   2.052   .     S
O793   Zn809   1.970   .     S
O797   C202    1.418   1_565 S
O800   C568    1.401   1_655 S
O800   N612    1.346   1_655 S
O801   Zn810   1.970   .     S
O802   Zn810   1.986   .     S
O803   Zn809   1.986   .     S
O804   Zn809   2.003   .     S
O805   Zn810   2.003   .     S
O806   Zn810   2.023   .     S
O807   Zn809   2.023   .     S
C811   O892    1.303   .     A
C811   O883    1.292   .     A
C811   C840    1.410   .     S
C812   C823    1.411   .     A
C812   O884    1.388   .     S
C812   C814    1.403   .     A
C813   C843    1.434   .     S
C813   C844    1.407   .     A
C813   C815    1.378   .     A
C814   C816    1.377   .     A
C814   C842    1.429   .     S
C815   C817    1.382   .     A
C815   H845    1.081   .     S
C816   C818    1.384   .     A
C816   H856    1.077   .     S
C817   C824    1.405   .     A
C817   C819    1.413   .     A
C818   C825    1.417   .     A
C818   C820    1.416   .     A
C819   C821    1.425   .     A
C820   C823    1.432   .     A
C820   C9      1.399   1_556 S
C821   C839    1.416   .     A
C821   C844    1.414   .     A
C822   O893    1.302   .     A
C822   C841    1.410   .     S
C822   O891    1.293   .     A
C823   C833    1.420   .     A
C824   O885    1.388   .     S
C825   O886    1.391   .     S
C825   C29     1.416   1_556 S
C826   H877    1.108   .     S
C826   H876    1.096   .     S
C826   O898    1.417   .     S
C826   C1367   1.525   1_545 S
C827   H879    1.110   .     S
C827   H878    1.104   .     S
C827   C1096   1.525   .     S
C827   H1150   1.109   .     S
C828   H847    1.103   .     S
C828   O884    1.416   .     S
C828   H846    1.112   .     S
C828   C1099   1.521   .     S
C829   H849    1.109   .     S
C829   H850    1.101   .     S
C829   C1368   1.521   1_545 S
C829   H1388   1.109   1_545 S
C830   H851    1.110   .     S
C830   H852    1.111   .     S
C830   O885    1.412   .     S
C830   H1123   1.107   .     S
C831   O886    1.414   .     S
C831   H855    1.115   .     S
C831   H854    1.110   .     S
C831   H857    1.106   .     S
C832   H859    1.093   .     S
C832   C834    1.522   .     S
C832   H588    1.106   1_546 S
C832   O1427   1.418   1_545 S
C833   O887    1.389   .     S
C833   C14     1.398   1_556 S
C834   H862    1.104   .     S
C834   H861    1.097   .     S
C834   H860    1.100   .     S
C835   H863    1.095   .     S
C835   O888    1.409   .     S
C835   C1376   1.527   1_545 S
C835   H1404   1.107   1_545 S
C836   H865    1.110   .     S
C836   H866    1.108   .     S
C836   C1105   1.527   .     S
C837   H870    1.111   .     S
C837   H869    1.104   .     S
C837   H961    1.107   .     S
C837   O979    1.401   .     S
C838   H873    1.105   .     S
C838   H872    1.111   .     S
C838   H1054   1.109   1_455 S
C838   O1070   1.401   1_455 S
C839   O888    1.393   .     S
C840   C1111   1.337   .     S
C840   H1137   1.084   .     S
C841   C1380   1.337   1_545 S
C841   H1415   1.084   1_545 S
C842   O894    1.301   .     A
C842   O896    1.301   .     A
C843   O895    1.300   .     A
C843   O897    1.305   .     A
C844   O898    1.393   .     S
H848   C1099   1.109   .     S
H853   C1370   1.107   1_545 S
H864   C1105   1.107   .     S
H867   C1380   1.084   1_545 S
H868   C26     1.108   1_556 S
H871   C1017   1.107   1_455 S
H874   C928    1.109   .     S
H875   C1111   1.084   .     S
H880   C1367   1.109   1_545 S
N881   Zn900   2.052   .     S
N881   N972    1.275   .     S
N881   O979    1.346   .     S
N882   Zn899   2.052   .     S
N882   N1061   1.275   1_455 S
N882   O1070   1.346   1_455 S
O883   Zn899   1.970   .     S
O887   C1102   1.418   .     S
O889   N1061   1.346   1_455 S
O889   C1017   1.401   1_455 S
O890   C928    1.401   .     S
O890   N972    1.346   .     S
O891   Zn900   1.970   .     S
O892   Zn900   1.986   .     S
O893   Zn899   1.986   .     S
O894   Zn899   2.003   .     S
O895   Zn900   2.003   .     S
O896   Zn900   2.023   .     S
O897   Zn899   2.023   .     S
C901   O982    1.303   .     A
C901   O973    1.292   .     A
C901   C930    1.410   .     S
C902   C913    1.411   .     A
C902   O974    1.388   .     S
C902   C904    1.403   .     A
C903   C933    1.434   .     S
C903   C934    1.407   .     A
C903   C905    1.378   .     A
C904   C906    1.377   .     A
C904   C932    1.429   .     S
C905   C907    1.382   .     A
C905   H935    1.081   .     S
C906   C908    1.384   .     A
C906   H946    1.077   .     S
C907   C914    1.405   .     A
C907   C909    1.413   .     A
C908   C915    1.417   .     A
C908   C910    1.416   .     A
C909   C911    1.425   .     A
C910   C913    1.432   .     A
C910   C99     1.399   1_556 S
C911   C929    1.416   .     A
C911   C934    1.414   .     A
C912   O983    1.302   .     A
C912   C931    1.410   .     S
C912   O981    1.293   .     A
C913   C923    1.420   .     A
C914   O975    1.388   .     S
C915   O976    1.391   .     S
C915   C119    1.416   1_556 S
C916   H967    1.108   .     S
C916   H966    1.096   .     S
C916   O988    1.417   .     S
C916   C1457   1.525   1_545 S
C917   H969    1.110   .     S
C917   H968    1.104   .     S
C917   C1186   1.525   .     S
C917   H1240   1.109   .     S
C918   H937    1.103   .     S
C918   O974    1.416   .     S
C918   H936    1.112   .     S
C918   C1189   1.521   .     S
C919   H939    1.109   .     S
C919   H940    1.101   .     S
C919   C1458   1.521   1_545 S
C919   H1478   1.109   1_545 S
C920   H941    1.110   .     S
C920   H942    1.111   .     S
C920   O975    1.412   .     S
C920   H1213   1.107   .     S
C921   O976    1.414   .     S
C921   H945    1.115   .     S
C921   H944    1.110   .     S
C921   H947    1.106   .     S
C922   H949    1.093   .     S
C922   C924    1.522   .     S
C922   H678    1.106   1_546 S
C922   O1517   1.418   1_545 S
C923   O977    1.389   .     S
C923   C104    1.398   1_556 S
C924   H952    1.104   .     S
C924   H951    1.097   .     S
C924   H950    1.100   .     S
C925   H953    1.095   .     S
C925   O978    1.409   .     S
C925   C1466   1.527   1_545 S
C925   H1494   1.107   1_545 S
C926   H955    1.110   .     S
C926   H956    1.108   .     S
C926   C1195   1.527   .     S
C927   H960    1.111   .     S
C927   H959    1.104   .     S
C927   H1051   1.107   .     S
C927   O1069   1.401   .     S
C928   H963    1.105   .     S
C928   H962    1.111   .     S
C929   O978    1.393   .     S
C930   C1201   1.337   .     S
C930   H1227   1.084   .     S
C931   C1470   1.337   1_545 S
C931   H1505   1.084   1_545 S
C932   O984    1.301   .     A
C932   O986    1.301   .     A
C933   O985    1.300   .     A
C933   O987    1.305   .     A
C934   O988    1.393   .     S
H938   C1189   1.109   .     S
H943   C1460   1.107   1_545 S
H954   C1195   1.107   .     S
H957   C1470   1.084   1_545 S
H958   C116    1.108   1_556 S
H964   C1018   1.109   .     S
H965   C1201   1.084   .     S
H970   C1457   1.109   1_545 S
N971   Zn990   2.052   .     S
N971   N1062   1.275   .     S
N971   O1069   1.346   .     S
N972   Zn989   2.052   .     S
O973   Zn989   1.970   .     S
O977   C1192   1.418   .     S
O980   C1018   1.401   .     S
O980   N1062   1.346   .     S
O981   Zn990   1.970   .     S
O982   Zn990   1.986   .     S
O983   Zn989   1.986   .     S
O984   Zn989   2.003   .     S
O985   Zn990   2.003   .     S
O986   Zn990   2.023   .     S
O987   Zn989   2.023   .     S
C991   O1072   1.303   .     A
C991   O1063   1.292   .     A
C991   C1020   1.410   .     S
C992   C1003   1.411   .     A
C992   O1064   1.388   .     S
C992   C994    1.403   .     A
C993   C1023   1.434   .     S
C993   C1024   1.407   .     A
C993   C995    1.378   .     A
C994   C996    1.377   .     A
C994   C1022   1.429   .     S
C995   C997    1.382   .     A
C995   H1025   1.081   .     S
C996   C998    1.384   .     A
C996   H1036   1.077   .     S
C997   C1004   1.405   .     A
C997   C999    1.413   .     A
C998   C1005   1.417   .     A
C998   C1000   1.416   .     A
C999   C1001   1.425   .     A
C1000  C1003   1.432   .     A
C1000  C189    1.399   1_556 S
C1001  C1019   1.416   .     A
C1001  C1024   1.414   .     A
C1002  O1073   1.302   .     A
C1002  C1021   1.410   .     S
C1002  O1071   1.293   .     A
C1003  C1013   1.420   .     A
C1004  O1065   1.388   .     S
C1005  O1066   1.391   .     S
C1005  C209    1.416   1_556 S
C1006  H1057   1.108   .     S
C1006  H1056   1.096   .     S
C1006  O1078   1.417   .     S
C1006  C1547   1.525   1_545 S
C1007  H1059   1.110   .     S
C1007  H1058   1.104   .     S
C1007  C1276   1.525   .     S
C1007  H1330   1.109   .     S
C1008  H1027   1.103   .     S
C1008  O1064   1.416   .     S
C1008  H1026   1.112   .     S
C1008  C1279   1.521   .     S
C1009  H1029   1.109   .     S
C1009  H1030   1.101   .     S
C1009  C1548   1.521   1_545 S
C1009  H1568   1.109   1_545 S
C1010  H1031   1.110   .     S
C1010  H1032   1.111   .     S
C1010  O1065   1.412   .     S
C1010  H1303   1.107   .     S
C1011  O1066   1.414   .     S
C1011  H1035   1.115   .     S
C1011  H1034   1.110   .     S
C1011  H1037   1.106   .     S
C1012  H1039   1.093   .     S
C1012  C1014   1.522   .     S
C1012  H768    1.106   1_546 S
C1012  O1607   1.418   1_545 S
C1013  O1067   1.389   .     S
C1013  C194    1.398   1_556 S
C1014  H1042   1.104   .     S
C1014  H1041   1.097   .     S
C1014  H1040   1.100   .     S
C1015  H1043   1.095   .     S
C1015  O1068   1.409   .     S
C1015  C1556   1.527   1_545 S
C1015  H1584   1.107   1_545 S
C1016  H1045   1.110   .     S
C1016  H1046   1.108   .     S
C1016  C1285   1.527   .     S
C1017  H1050   1.111   .     S
C1017  H1049   1.104   .     S
C1017  H871    1.107   1_655 S
C1017  O889    1.401   1_655 S
C1018  H1053   1.105   .     S
C1018  H1052   1.111   .     S
C1019  O1068   1.393   .     S
C1020  C1291   1.337   .     S
C1020  H1317   1.084   .     S
C1021  C1560   1.337   1_545 S
C1021  H1595   1.084   1_545 S
C1022  O1074   1.301   .     A
C1022  O1076   1.301   .     A
C1023  O1075   1.300   .     A
C1023  O1077   1.305   .     A
C1024  O1078   1.393   .     S
H1028  C1279   1.109   .     S
H1033  C1550   1.107   1_545 S
H1044  C1285   1.107   .     S
H1047  C1560   1.084   1_545 S
H1048  C206    1.108   1_556 S
H1054  C838    1.109   1_655 S
H1055  C1291   1.084   .     S
H1060  C1547   1.109   1_545 S
N1061  Zn1080  2.052   .     S
N1061  N882    1.275   1_655 S
N1061  O889    1.346   1_655 S
N1062  Zn1079  2.052   .     S
O1063  Zn1079  1.970   .     S
O1067  C1282   1.418   .     S
O1070  C838    1.401   1_655 S
O1070  N882    1.346   1_655 S
O1071  Zn1080  1.970   .     S
O1072  Zn1080  1.986   .     S
O1073  Zn1079  1.986   .     S
O1074  Zn1079  2.003   .     S
O1075  Zn1080  2.003   .     S
O1076  Zn1080  2.023   .     S
O1077  Zn1079  2.023   .     S
C1081  O1162   1.303   .     A
C1081  O1153   1.292   .     A
C1081  C1110   1.410   .     S
C1082  C1093   1.411   .     A
C1082  O1154   1.388   .     S
C1082  C1084   1.403   .     A
C1083  C1113   1.434   .     S
C1083  C1114   1.407   .     A
C1083  C1085   1.378   .     A
C1084  C1086   1.377   .     A
C1084  C1112   1.429   .     S
C1085  C1087   1.382   .     A
C1085  H1115   1.081   .     S
C1086  C1088   1.384   .     A
C1086  H1126   1.077   .     S
C1087  C1094   1.405   .     A
C1087  C1089   1.413   .     A
C1088  C1095   1.417   .     A
C1088  C1090   1.416   .     A
C1089  C1091   1.425   .     A
C1090  C1093   1.432   .     A
C1090  C279    1.399   1_556 S
C1091  C1109   1.416   .     A
C1091  C1114   1.414   .     A
C1092  O1163   1.302   .     A
C1092  C1111   1.410   .     S
C1092  O1161   1.293   .     A
C1093  C1103   1.420   .     A
C1094  O1155   1.388   .     S
C1095  O1156   1.391   .     S
C1095  C299    1.416   1_556 S
C1096  H1147   1.108   .     S
C1096  H1146   1.096   .     S
C1096  O1168   1.417   .     S
C1097  H1149   1.110   .     S
C1097  H1148   1.104   .     S
C1097  C1366   1.525   .     S
C1097  H1420   1.109   .     S
C1098  H1117   1.103   .     S
C1098  O1154   1.416   .     S
C1098  H1116   1.112   .     S
C1098  C1369   1.521   .     S
C1099  H1119   1.109   .     S
C1099  H1120   1.101   .     S
C1100  H1121   1.110   .     S
C1100  H1122   1.111   .     S
C1100  O1155   1.412   .     S
C1100  H1393   1.107   .     S
C1101  O1156   1.414   .     S
C1101  H1125   1.115   .     S
C1101  H1124   1.110   .     S
C1101  H1127   1.106   .     S
C1102  H1129   1.093   .     S
C1102  C1104   1.522   .     S
C1102  H48     1.106   1_556 S
C1103  O1157   1.389   .     S
C1103  C284    1.398   1_556 S
C1104  H1132   1.104   .     S
C1104  H1131   1.097   .     S
C1104  H1130   1.100   .     S
C1105  H1133   1.095   .     S
C1105  O1158   1.409   .     S
C1106  H1135   1.110   .     S
C1106  H1136   1.108   .     S
C1106  C1375   1.527   .     S
C1107  H1140   1.111   .     S
C1107  H1139   1.104   .     S
C1107  H1231   1.107   .     S
C1107  O1249   1.401   .     S
C1108  H1143   1.105   .     S
C1108  H1142   1.111   .     S
C1108  H1324   1.109   1_455 S
C1108  O1340   1.401   1_455 S
C1109  O1158   1.393   .     S
C1110  C1381   1.337   .     S
C1110  H1407   1.084   .     S
C1112  O1164   1.301   .     A
C1112  O1166   1.301   .     A
C1113  O1165   1.300   .     A
C1113  O1167   1.305   .     A
C1114  O1168   1.393   .     S
H1118  C1369   1.109   .     S
H1134  C1375   1.107   .     S
H1138  C296    1.108   1_556 S
H1141  C1287   1.107   1_455 S
H1144  C1198   1.109   .     S
H1145  C1381   1.084   .     S
N1151  Zn1170  2.052   .     S
N1151  N1242   1.275   .     S
N1151  O1249   1.346   .     S
N1152  Zn1169  2.052   .     S
N1152  N1331   1.275   1_455 S
N1152  O1340   1.346   1_455 S
O1153  Zn1169  1.970   .     S
O1157  C1372   1.418   .     S
O1159  N1331   1.346   1_455 S
O1159  C1287   1.401   1_455 S
O1160  C1198   1.401   .     S
O1160  N1242   1.346   .     S
O1161  Zn1170  1.970   .     S
O1162  Zn1170  1.986   .     S
O1163  Zn1169  1.986   .     S
O1164  Zn1169  2.003   .     S
O1165  Zn1170  2.003   .     S
O1166  Zn1170  2.023   .     S
O1167  Zn1169  2.023   .     S
C1171  O1252   1.303   .     A
C1171  O1243   1.292   .     A
C1171  C1200   1.410   .     S
C1172  C1183   1.411   .     A
C1172  O1244   1.388   .     S
C1172  C1174   1.403   .     A
C1173  C1203   1.434   .     S
C1173  C1204   1.407   .     A
C1173  C1175   1.378   .     A
C1174  C1176   1.377   .     A
C1174  C1202   1.429   .     S
C1175  C1177   1.382   .     A
C1175  H1205   1.081   .     S
C1176  C1178   1.384   .     A
C1176  H1216   1.077   .     S
C1177  C1184   1.405   .     A
C1177  C1179   1.413   .     A
C1178  C1185   1.417   .     A
C1178  C1180   1.416   .     A
C1179  C1181   1.425   .     A
C1180  C1183   1.432   .     A
C1180  C369    1.399   1_556 S
C1181  C1199   1.416   .     A
C1181  C1204   1.414   .     A
C1182  O1253   1.302   .     A
C1182  C1201   1.410   .     S
C1182  O1251   1.293   .     A
C1183  C1193   1.420   .     A
C1184  O1245   1.388   .     S
C1185  O1246   1.391   .     S
C1185  C389    1.416   1_556 S
C1186  H1237   1.108   .     S
C1186  H1236   1.096   .     S
C1186  O1258   1.417   .     S
C1187  H1239   1.110   .     S
C1187  H1238   1.104   .     S
C1187  C1456   1.525   .     S
C1187  H1510   1.109   .     S
C1188  H1207   1.103   .     S
C1188  O1244   1.416   .     S
C1188  H1206   1.112   .     S
C1188  C1459   1.521   .     S
C1189  H1209   1.109   .     S
C1189  H1210   1.101   .     S
C1190  H1211   1.110   .     S
C1190  H1212   1.111   .     S
C1190  O1245   1.412   .     S
C1190  H1483   1.107   .     S
C1191  O1246   1.414   .     S
C1191  H1215   1.115   .     S
C1191  H1214   1.110   .     S
C1191  H1217   1.106   .     S
C1192  H1219   1.093   .     S
C1192  C1194   1.522   .     S
C1192  H138    1.106   1_556 S
C1193  O1247   1.389   .     S
C1193  C374    1.398   1_556 S
C1194  H1222   1.104   .     S
C1194  H1221   1.097   .     S
C1194  H1220   1.100   .     S
C1195  H1223   1.095   .     S
C1195  O1248   1.409   .     S
C1196  H1225   1.110   .     S
C1196  H1226   1.108   .     S
C1196  C1465   1.527   .     S
C1197  H1230   1.111   .     S
C1197  H1229   1.104   .     S
C1197  H1321   1.107   .     S
C1197  O1339   1.401   .     S
C1198  H1233   1.105   .     S
C1198  H1232   1.111   .     S
C1199  O1248   1.393   .     S
C1200  C1471   1.337   .     S
C1200  H1497   1.084   .     S
C1202  O1254   1.301   .     A
C1202  O1256   1.301   .     A
C1203  O1255   1.300   .     A
C1203  O1257   1.305   .     A
C1204  O1258   1.393   .     S
H1208  C1459   1.109   .     S
H1224  C1465   1.107   .     S
H1228  C386    1.108   1_556 S
H1234  C1288   1.109   .     S
H1235  C1471   1.084   .     S
N1241  Zn1260  2.052   .     S
N1241  N1332   1.275   .     S
N1241  O1339   1.346   .     S
N1242  Zn1259  2.052   .     S
O1243  Zn1259  1.970   .     S
O1247  C1462   1.418   .     S
O1250  C1288   1.401   .     S
O1250  N1332   1.346   .     S
O1251  Zn1260  1.970   .     S
O1252  Zn1260  1.986   .     S
O1253  Zn1259  1.986   .     S
O1254  Zn1259  2.003   .     S
O1255  Zn1260  2.003   .     S
O1256  Zn1260  2.023   .     S
O1257  Zn1259  2.023   .     S
C1261  O1342   1.303   .     A
C1261  O1333   1.292   .     A
C1261  C1290   1.410   .     S
C1262  C1273   1.411   .     A
C1262  O1334   1.388   .     S
C1262  C1264   1.403   .     A
C1263  C1293   1.434   .     S
C1263  C1294   1.407   .     A
C1263  C1265   1.378   .     A
C1264  C1266   1.377   .     A
C1264  C1292   1.429   .     S
C1265  C1267   1.382   .     A
C1265  H1295   1.081   .     S
C1266  C1268   1.384   .     A
C1266  H1306   1.077   .     S
C1267  C1274   1.405   .     A
C1267  C1269   1.413   .     A
C1268  C1275   1.417   .     A
C1268  C1270   1.416   .     A
C1269  C1271   1.425   .     A
C1270  C1273   1.432   .     A
C1270  C459    1.399   1_556 S
C1271  C1289   1.416   .     A
C1271  C1294   1.414   .     A
C1272  O1343   1.302   .     A
C1272  C1291   1.410   .     S
C1272  O1341   1.293   .     A
C1273  C1283   1.420   .     A
C1274  O1335   1.388   .     S
C1275  O1336   1.391   .     S
C1275  C479    1.416   1_556 S
C1276  H1327   1.108   .     S
C1276  H1326   1.096   .     S
C1276  O1348   1.417   .     S
C1277  H1329   1.110   .     S
C1277  H1328   1.104   .     S
C1277  C1546   1.525   .     S
C1277  H1600   1.109   .     S
C1278  H1297   1.103   .     S
C1278  O1334   1.416   .     S
C1278  H1296   1.112   .     S
C1278  C1549   1.521   .     S
C1279  H1299   1.109   .     S
C1279  H1300   1.101   .     S
C1280  H1301   1.110   .     S
C1280  H1302   1.111   .     S
C1280  O1335   1.412   .     S
C1280  H1573   1.107   .     S
C1281  O1336   1.414   .     S
C1281  H1305   1.115   .     S
C1281  H1304   1.110   .     S
C1281  H1307   1.106   .     S
C1282  H1309   1.093   .     S
C1282  C1284   1.522   .     S
C1282  H228    1.106   1_556 S
C1283  O1337   1.389   .     S
C1283  C464    1.398   1_556 S
C1284  H1312   1.104   .     S
C1284  H1311   1.097   .     S
C1284  H1310   1.100   .     S
C1285  H1313   1.095   .     S
C1285  O1338   1.409   .     S
C1286  H1315   1.110   .     S
C1286  H1316   1.108   .     S
C1286  C1555   1.527   .     S
C1287  H1320   1.111   .     S
C1287  H1319   1.104   .     S
C1287  H1141   1.107   1_655 S
C1287  O1159   1.401   1_655 S
C1288  H1323   1.105   .     S
C1288  H1322   1.111   .     S
C1289  O1338   1.393   .     S
C1290  C1561   1.337   .     S
C1290  H1587   1.084   .     S
C1292  O1344   1.301   .     A
C1292  O1346   1.301   .     A
C1293  O1345   1.300   .     A
C1293  O1347   1.305   .     A
C1294  O1348   1.393   .     S
H1298  C1549   1.109   .     S
H1314  C1555   1.107   .     S
H1318  C476    1.108   1_556 S
H1324  C1108   1.109   1_655 S
H1325  C1561   1.084   .     S
N1331  Zn1350  2.052   .     S
N1331  N1152   1.275   1_655 S
N1331  O1159   1.346   1_655 S
N1332  Zn1349  2.052   .     S
O1333  Zn1349  1.970   .     S
O1337  C1552   1.418   .     S
O1340  C1108   1.401   1_655 S
O1340  N1152   1.346   1_655 S
O1341  Zn1350  1.970   .     S
O1342  Zn1350  1.986   .     S
O1343  Zn1349  1.986   .     S
O1344  Zn1349  2.003   .     S
O1345  Zn1350  2.003   .     S
O1346  Zn1350  2.023   .     S
O1347  Zn1349  2.023   .     S
C1351  O1432   1.303   .     A
C1351  O1423   1.292   .     A
C1351  C1380   1.410   .     S
C1352  C1363   1.411   .     A
C1352  O1424   1.388   .     S
C1352  C1354   1.403   .     A
C1353  C1383   1.434   .     S
C1353  C1384   1.407   .     A
C1353  C1355   1.378   .     A
C1354  C1356   1.377   .     A
C1354  C1382   1.429   .     S
C1355  C1357   1.382   .     A
C1355  H1385   1.081   .     S
C1356  C1358   1.384   .     A
C1356  H1396   1.077   .     S
C1357  C1364   1.405   .     A
C1357  C1359   1.413   .     A
C1358  C1365   1.417   .     A
C1358  C1360   1.416   .     A
C1359  C1361   1.425   .     A
C1360  C1363   1.432   .     A
C1360  C549    1.399   1_556 S
C1361  C1379   1.416   .     A
C1361  C1384   1.414   .     A
C1362  O1433   1.302   .     A
C1362  C1381   1.410   .     S
C1362  O1431   1.293   .     A
C1363  C1373   1.420   .     A
C1364  O1425   1.388   .     S
C1365  O1426   1.391   .     S
C1365  C569    1.416   1_556 S
C1366  H1417   1.108   .     S
C1366  H1416   1.096   .     S
C1366  O1438   1.417   .     S
C1367  H1419   1.110   .     S
C1367  H1418   1.104   .     S
C1367  C826    1.525   1_565 S
C1367  H880    1.109   1_565 S
C1368  H1387   1.103   .     S
C1368  O1424   1.416   .     S
C1368  H1386   1.112   .     S
C1368  C829    1.521   1_565 S
C1369  H1389   1.109   .     S
C1369  H1390   1.101   .     S
C1370  H1391   1.110   .     S
C1370  H1392   1.111   .     S
C1370  O1425   1.412   .     S
C1370  H853    1.107   1_565 S
C1371  O1426   1.414   .     S
C1371  H1395   1.115   .     S
C1371  H1394   1.110   .     S
C1371  H1397   1.106   .     S
C1372  H1399   1.093   .     S
C1372  C1374   1.522   .     S
C1372  H318    1.106   1_556 S
C1373  O1427   1.389   .     S
C1373  C554    1.398   1_556 S
C1374  H1402   1.104   .     S
C1374  H1401   1.097   .     S
C1374  H1400   1.100   .     S
C1375  H1403   1.095   .     S
C1375  O1428   1.409   .     S
C1376  H1405   1.110   .     S
C1376  H1406   1.108   .     S
C1376  C835    1.527   1_565 S
C1377  H1410   1.111   .     S
C1377  H1409   1.104   .     S
C1377  H1501   1.107   .     S
C1377  O1519   1.401   .     S
C1378  H1413   1.105   .     S
C1378  H1412   1.111   .     S
C1378  H1594   1.109   1_455 S
C1378  O1610   1.401   1_455 S
C1379  O1428   1.393   .     S
C1380  C841    1.337   1_565 S
C1380  H867    1.084   1_565 S
C1382  O1434   1.301   .     A
C1382  O1436   1.301   .     A
C1383  O1435   1.300   .     A
C1383  O1437   1.305   .     A
C1384  O1438   1.393   .     S
H1388  C829    1.109   1_565 S
H1398  C22     1.106   1_565 S
H1404  C835    1.107   1_565 S
H1408  C566    1.108   1_556 S
H1411  C1557   1.107   1_455 S
H1414  C1468   1.109   .     S
H1415  C841    1.084   1_565 S
N1421  Zn1440  2.052   .     S
N1421  N1512   1.275   .     S
N1421  O1519   1.346   .     S
N1422  Zn1439  2.052   .     S
N1422  N1601   1.275   1_455 S
N1422  O1610   1.346   1_455 S
O1423  Zn1439  1.970   .     S
O1427  C832    1.418   1_565 S
O1429  N1601   1.346   1_455 S
O1429  C1557   1.401   1_455 S
O1430  C1468   1.401   .     S
O1430  N1512   1.346   .     S
O1431  Zn1440  1.970   .     S
O1432  Zn1440  1.986   .     S
O1433  Zn1439  1.986   .     S
O1434  Zn1439  2.003   .     S
O1435  Zn1440  2.003   .     S
O1436  Zn1440  2.023   .     S
O1437  Zn1439  2.023   .     S
C1441  O1522   1.303   .     A
C1441  O1513   1.292   .     A
C1441  C1470   1.410   .     S
C1442  C1453   1.411   .     A
C1442  O1514   1.388   .     S
C1442  C1444   1.403   .     A
C1443  C1473   1.434   .     S
C1443  C1474   1.407   .     A
C1443  C1445   1.378   .     A
C1444  C1446   1.377   .     A
C1444  C1472   1.429   .     S
C1445  C1447   1.382   .     A
C1445  H1475   1.081   .     S
C1446  C1448   1.384   .     A
C1446  H1486   1.077   .     S
C1447  C1454   1.405   .     A
C1447  C1449   1.413   .     A
C1448  C1455   1.417   .     A
C1448  C1450   1.416   .     A
C1449  C1451   1.425   .     A
C1450  C1453   1.432   .     A
C1450  C639    1.399   1_556 S
C1451  C1469   1.416   .     A
C1451  C1474   1.414   .     A
C1452  O1523   1.302   .     A
C1452  C1471   1.410   .     S
C1452  O1521   1.293   .     A
C1453  C1463   1.420   .     A
C1454  O1515   1.388   .     S
C1455  O1516   1.391   .     S
C1455  C659    1.416   1_556 S
C1456  H1507   1.108   .     S
C1456  H1506   1.096   .     S
C1456  O1528   1.417   .     S
C1457  H1509   1.110   .     S
C1457  H1508   1.104   .     S
C1457  C916    1.525   1_565 S
C1457  H970    1.109   1_565 S
C1458  H1477   1.103   .     S
C1458  O1514   1.416   .     S
C1458  H1476   1.112   .     S
C1458  C919    1.521   1_565 S
C1459  H1479   1.109   .     S
C1459  H1480   1.101   .     S
C1460  H1481   1.110   .     S
C1460  H1482   1.111   .     S
C1460  O1515   1.412   .     S
C1460  H943    1.107   1_565 S
C1461  O1516   1.414   .     S
C1461  H1485   1.115   .     S
C1461  H1484   1.110   .     S
C1461  H1487   1.106   .     S
C1462  H1489   1.093   .     S
C1462  C1464   1.522   .     S
C1462  H408    1.106   1_556 S
C1463  O1517   1.389   .     S
C1463  C644    1.398   1_556 S
C1464  H1492   1.104   .     S
C1464  H1491   1.097   .     S
C1464  H1490   1.100   .     S
C1465  H1493   1.095   .     S
C1465  O1518   1.409   .     S
C1466  H1495   1.110   .     S
C1466  H1496   1.108   .     S
C1466  C925    1.527   1_565 S
C1467  H1500   1.111   .     S
C1467  H1499   1.104   .     S
C1467  H1591   1.107   .     S
C1467  O1609   1.401   .     S
C1468  H1503   1.105   .     S
C1468  H1502   1.111   .     S
C1469  O1518   1.393   .     S
C1470  C931    1.337   1_565 S
C1470  H957    1.084   1_565 S
C1472  O1524   1.301   .     A
C1472  O1526   1.301   .     A
C1473  O1525   1.300   .     A
C1473  O1527   1.305   .     A
C1474  O1528   1.393   .     S
H1478  C919    1.109   1_565 S
H1488  C112    1.106   1_565 S
H1494  C925    1.107   1_565 S
H1498  C656    1.108   1_556 S
H1504  C1558   1.109   .     S
H1505  C931    1.084   1_565 S
N1511  Zn1530  2.052   .     S
N1511  N1602   1.275   .     S
N1511  O1609   1.346   .     S
N1512  Zn1529  2.052   .     S
O1513  Zn1529  1.970   .     S
O1517  C922    1.418   1_565 S
O1520  C1558   1.401   .     S
O1520  N1602   1.346   .     S
O1521  Zn1530  1.970   .     S
O1522  Zn1530  1.986   .     S
O1523  Zn1529  1.986   .     S
O1524  Zn1529  2.003   .     S
O1525  Zn1530  2.003   .     S
O1526  Zn1530  2.023   .     S
O1527  Zn1529  2.023   .     S
C1531  O1612   1.303   .     A
C1531  O1603   1.292   .     A
C1531  C1560   1.410   .     S
C1532  C1543   1.411   .     A
C1532  O1604   1.388   .     S
C1532  C1534   1.403   .     A
C1533  C1563   1.434   .     S
C1533  C1564   1.407   .     A
C1533  C1535   1.378   .     A
C1534  C1536   1.377   .     A
C1534  C1562   1.429   .     S
C1535  C1537   1.382   .     A
C1535  H1565   1.081   .     S
C1536  C1538   1.384   .     A
C1536  H1576   1.077   .     S
C1537  C1544   1.405   .     A
C1537  C1539   1.413   .     A
C1538  C1545   1.417   .     A
C1538  C1540   1.416   .     A
C1539  C1541   1.425   .     A
C1540  C1543   1.432   .     A
C1540  C729    1.399   1_556 S
C1541  C1559   1.416   .     A
C1541  C1564   1.414   .     A
C1542  O1613   1.302   .     A
C1542  C1561   1.410   .     S
C1542  O1611   1.293   .     A
C1543  C1553   1.420   .     A
C1544  O1605   1.388   .     S
C1545  O1606   1.391   .     S
C1545  C749    1.416   1_556 S
C1546  H1597   1.108   .     S
C1546  H1596   1.096   .     S
C1546  O1618   1.417   .     S
C1547  H1599   1.110   .     S
C1547  H1598   1.104   .     S
C1547  C1006   1.525   1_565 S
C1547  H1060   1.109   1_565 S
C1548  H1567   1.103   .     S
C1548  O1604   1.416   .     S
C1548  H1566   1.112   .     S
C1548  C1009   1.521   1_565 S
C1549  H1569   1.109   .     S
C1549  H1570   1.101   .     S
C1550  H1571   1.110   .     S
C1550  H1572   1.111   .     S
C1550  O1605   1.412   .     S
C1550  H1033   1.107   1_565 S
C1551  O1606   1.414   .     S
C1551  H1575   1.115   .     S
C1551  H1574   1.110   .     S
C1551  H1577   1.106   .     S
C1552  H1579   1.093   .     S
C1552  C1554   1.522   .     S
C1552  H498    1.106   1_556 S
C1553  O1607   1.389   .     S
C1553  C734    1.398   1_556 S
C1554  H1582   1.104   .     S
C1554  H1581   1.097   .     S
C1554  H1580   1.100   .     S
C1555  H1583   1.095   .     S
C1555  O1608   1.409   .     S
C1556  H1585   1.110   .     S
C1556  H1586   1.108   .     S
C1556  C1015   1.527   1_565 S
C1557  H1590   1.111   .     S
C1557  H1589   1.104   .     S
C1557  H1411   1.107   1_655 S
C1557  O1429   1.401   1_655 S
C1558  H1593   1.105   .     S
C1558  H1592   1.111   .     S
C1559  O1608   1.393   .     S
C1560  C1021   1.337   1_565 S
C1560  H1047   1.084   1_565 S
C1562  O1614   1.301   .     A
C1562  O1616   1.301   .     A
C1563  O1615   1.300   .     A
C1563  O1617   1.305   .     A
C1564  O1618   1.393   .     S
H1568  C1009   1.109   1_565 S
H1578  C202    1.106   1_565 S
H1584  C1015   1.107   1_565 S
H1588  C746    1.108   1_556 S
H1594  C1378   1.109   1_655 S
H1595  C1021   1.084   1_565 S
N1601  Zn1620  2.052   .     S
N1601  N1422   1.275   1_655 S
N1601  O1429   1.346   1_655 S
N1602  Zn1619  2.052   .     S
O1603  Zn1619  1.970   .     S
O1607  C1012   1.418   1_565 S
O1610  C1378   1.401   1_655 S
O1610  N1422   1.346   1_655 S
O1611  Zn1620  1.970   .     S
O1612  Zn1620  1.986   .     S
O1613  Zn1619  1.986   .     S
O1614  Zn1619  2.003   .     S
O1615  Zn1620  2.003   .     S
O1616  Zn1620  2.023   .     S
O1617  Zn1619  2.023   .     S
