data_str_m2_o1_o1_pcu_sym.56
_audit_creation_date              2020-01-03
_audit_creation_method            'Materials Studio'
_symmetry_space_group_name_H-M    'P1'
_symmetry_Int_Tables_number       1
_symmetry_cell_setting            triclinic
loop_
_symmetry_equiv_pos_as_xyz
  x,y,z
_cell_length_a                    30.7542
_cell_length_b                    30.7016
_cell_length_c                    28.5608
_cell_angle_alpha                 90.4363
_cell_angle_beta                  89.9071
_cell_angle_gamma                 90.6066
loop_
_atom_site_label
_atom_site_type_symbol
_atom_site_fract_x
_atom_site_fract_y
_atom_site_fract_z
_atom_site_U_iso_or_equiv
_atom_site_adp_type
_atom_site_occupancy
C1     C     0.05941   0.19061   0.16655   0.00000  Uiso   1.00
C2     C     0.00923   0.28718   0.30885   0.00000  Uiso   1.00
C3     C     0.00883   0.28729   0.02508   0.00000  Uiso   1.00
C4     C     0.49148   0.21263   0.30826   0.00000  Uiso   1.00
C5     C     0.24077   0.46282   0.02449   0.00000  Uiso   1.00
C6     C     0.25844   0.03739   0.30883   0.00000  Uiso   1.00
C7     C     0.25852   0.03737   0.02508   0.00000  Uiso   1.00
C8     C     0.24117   0.46271   0.30825   0.00000  Uiso   1.00
C9     C     0.36602   0.16591   0.14696   0.00000  Uiso   1.00
C10    C     0.13279   0.33442   0.14478   0.00000  Uiso   1.00
C11    C     0.08480   0.38332   0.18871   0.00000  Uiso   1.00
C12    C     0.44036   0.30921   0.16680   0.00000  Uiso   1.00
C13    C     0.41609   0.11665   0.18647   0.00000  Uiso   1.00
C14    C     0.13133   0.16380   0.19270   0.00000  Uiso   1.00
C15    C     0.38421   0.35186   0.12492   0.00000  Uiso   1.00
C16    C     0.39691   0.36561   0.20875   0.00000  Uiso   1.00
C17    C     0.08665   0.11843   0.14031   0.00000  Uiso   1.00
C18    C     0.11721   0.41558   0.18855   0.00000  Uiso   1.00
C19    C     0.38397   0.08410   0.18638   0.00000  Uiso   1.00
C20    C     0.33391   0.13335   0.14687   0.00000  Uiso   1.00
C21    C     0.16520   0.36668   0.14462   0.00000  Uiso   1.00
C22    C     0.36579   0.39814   0.20841   0.00000  Uiso   1.00
C23    C     0.44038   0.19093   0.16660   0.00000  Uiso   1.00
C24    C     0.11867   0.08620   0.14063   0.00000  Uiso   1.00
C25    C     0.16334   0.13157   0.19302   0.00000  Uiso   1.00
C26    C     0.35309   0.38440   0.12458   0.00000  Uiso   1.00
C27    C     0.09278   0.34290   0.16685   0.00000  Uiso   1.00
C28    C     0.40700   0.15733   0.16656   0.00000  Uiso   1.00
C29    C     0.40665   0.34248   0.16693   0.00000  Uiso   1.00
C30    C     0.09300   0.15718   0.16638   0.00000  Uiso   1.00
C31    C     0.34300   0.09267   0.16677   0.00000  Uiso   1.00
C32    C     0.15722   0.40710   0.16648   0.00000  Uiso   1.00
C33    C     0.15699   0.09282   0.16695   0.00000  Uiso   1.00
C34    C     0.05918   0.30951   0.16675   0.00000  Uiso   1.00
C35    C     0.34335   0.40752   0.16640   0.00000  Uiso   1.00
C36    C     0.35616   0.20863   0.12875   0.00000  Uiso   1.00
C37    C     0.14103   0.29214   0.12351   0.00000  Uiso   1.00
C38    C     0.04286   0.39233   0.20980   0.00000  Uiso   1.00
C39    C     0.45873   0.10801   0.20600   0.00000  Uiso   1.00
C40    C     0.13854   0.20440   0.21812   0.00000  Uiso   1.00
C41    C     0.39165   0.32788   0.08137   0.00000  Uiso   1.00
C42    C     0.41843   0.35712   0.25307   0.00000  Uiso   1.00
C43    C     0.04655   0.11098   0.11453   0.00000  Uiso   1.00
C44    C     0.10897   0.45786   0.20982   0.00000  Uiso   1.00
C45    C     0.30964   0.44079   0.16654   0.00000  Uiso   1.00
C46    C     0.39383   0.04138   0.20461   0.00000  Uiso   1.00
C47    C     0.29127   0.14199   0.12734   0.00000  Uiso   1.00
C48    C     0.20714   0.35767   0.12353   0.00000  Uiso   1.00
C49    C     0.35834   0.42212   0.25197   0.00000  Uiso   1.00
C50    C     0.11146   0.04560   0.11521   0.00000  Uiso   1.00
C51    C     0.20345   0.13902   0.21880   0.00000  Uiso   1.00
C52    C     0.33158   0.39288   0.08026   0.00000  Uiso   1.00
C53    C     0.19059   0.05939   0.16679   0.00000  Uiso   1.00
C54    C     0.19082   0.44049   0.16658   0.00000  Uiso   1.00
C55    C     0.30962   0.05907   0.16673   0.00000  Uiso   1.00
C56    C     0.49155   0.21262   0.02451   0.00000  Uiso   1.00
Cu57   Cu    0.00000   0.25000   0.21355   0.00000  Uiso   1.00
Cu58   Cu    0.00000   0.25000   0.11978   0.00000  Uiso   1.00
Cu59   Cu    0.25000   0.00000   0.21355   0.00000  Uiso   1.00
Cu60   Cu    0.25000   0.00000   0.11978   0.00000  Uiso   1.00
H61    H     0.48489   0.18262   0.04289   0.00000  Uiso   1.00
H62    H     0.01673   0.31699   0.29048   0.00000  Uiso   1.00
H63    H     0.01562   0.31728   0.04390   0.00000  Uiso   1.00
H64    H     0.48478   0.18262   0.28942   0.00000  Uiso   1.00
H65    H     0.23328   0.43301   0.04285   0.00000  Uiso   1.00
H66    H     0.26510   0.06738   0.29045   0.00000  Uiso   1.00
H67    H     0.26521   0.06738   0.04391   0.00000  Uiso   1.00
H68    H     0.23439   0.43271   0.28943   0.00000  Uiso   1.00
N69    N    -0.00000   0.25000   0.28402   0.00000  Uiso   1.00
N70    N     0.39732   0.30895   0.04671   0.00000  Uiso   1.00
N71    N     0.43499   0.35097   0.28871   0.00000  Uiso   1.00
N72    N     0.01458   0.10501   0.09404   0.00000  Uiso   1.00
N73    N     0.10243   0.49155   0.22673   0.00000  Uiso   1.00
N74    N     0.40213   0.00738   0.21904   0.00000  Uiso   1.00
N75    N     0.25732   0.14885   0.11176   0.00000  Uiso   1.00
N76    N     0.24053   0.35023   0.10675   0.00000  Uiso   1.00
N77    N     0.35268   0.44104   0.28662   0.00000  Uiso   1.00
N78    N     0.10574   0.01323   0.09500   0.00000  Uiso   1.00
N79    N     0.23542   0.14499   0.23930   0.00000  Uiso   1.00
N80    N     0.00000   0.25000   0.04931   0.00000  Uiso   1.00
N81    N     0.31502   0.39903   0.04462   0.00000  Uiso   1.00
N82    N     0.25000   0.00000   0.28402   0.00000  Uiso   1.00
N83    N     0.25000   0.00000   0.04931   0.00000  Uiso   1.00
N84    N     0.34786   0.24263   0.11434   0.00000  Uiso   1.00
N85    N     0.14757   0.25845   0.10660   0.00000  Uiso   1.00
N86    N     0.00947   0.39978   0.22658   0.00000  Uiso   1.00
N87    N     0.49268   0.10115   0.22157   0.00000  Uiso   1.00
N88    N     0.14427   0.23677   0.23833   0.00000  Uiso   1.00
O89    O     0.04508   0.20491   0.20625   0.00000  Uiso   1.00
O90    O     0.20491   0.04509   0.12709   0.00000  Uiso   1.00
O91    O     0.20491   0.04509   0.20625   0.00000  Uiso   1.00
O92    O     0.29508   0.45491   0.12709   0.00000  Uiso   1.00
O93    O     0.20491   0.45491   0.12709   0.00000  Uiso   1.00
O94    O     0.29508   0.04509   0.20625   0.00000  Uiso   1.00
O95    O     0.29508   0.04509   0.12709   0.00000  Uiso   1.00
O96    O     0.20491   0.45491   0.20625   0.00000  Uiso   1.00
O97    O     0.45491   0.29509   0.12709   0.00000  Uiso   1.00
O98    O     0.45491   0.29509   0.20625   0.00000  Uiso   1.00
O99    O     0.04508   0.20491   0.12709   0.00000  Uiso   1.00
O100   O     0.45491   0.20491   0.12709   0.00000  Uiso   1.00
O101   O     0.04508   0.29509   0.20625   0.00000  Uiso   1.00
O102   O     0.04508   0.29509   0.12709   0.00000  Uiso   1.00
O103   O     0.45491   0.20491   0.20625   0.00000  Uiso   1.00
O104   O     0.29508   0.45491   0.20625   0.00000  Uiso   1.00
C105   C     0.55941   0.19061   0.16655   0.00000  Uiso   1.00
C106   C     0.50923   0.28718   0.30885   0.00000  Uiso   1.00
C107   C     0.50883   0.28729   0.02508   0.00000  Uiso   1.00
C108   C     0.99148   0.21263   0.30826   0.00000  Uiso   1.00
C109   C     0.74077   0.46282   0.02449   0.00000  Uiso   1.00
C110   C     0.75844   0.03739   0.30883   0.00000  Uiso   1.00
C111   C     0.75852   0.03737   0.02508   0.00000  Uiso   1.00
C112   C     0.74117   0.46271   0.30825   0.00000  Uiso   1.00
C113   C     0.86602   0.16591   0.14696   0.00000  Uiso   1.00
C114   C     0.63279   0.33442   0.14478   0.00000  Uiso   1.00
C115   C     0.58480   0.38332   0.18871   0.00000  Uiso   1.00
C116   C     0.94036   0.30921   0.16680   0.00000  Uiso   1.00
C117   C     0.91609   0.11665   0.18647   0.00000  Uiso   1.00
C118   C     0.63133   0.16380   0.19270   0.00000  Uiso   1.00
C119   C     0.88421   0.35186   0.12492   0.00000  Uiso   1.00
C120   C     0.89691   0.36561   0.20875   0.00000  Uiso   1.00
C121   C     0.58665   0.11843   0.14031   0.00000  Uiso   1.00
C122   C     0.61721   0.41558   0.18855   0.00000  Uiso   1.00
C123   C     0.88397   0.08410   0.18638   0.00000  Uiso   1.00
C124   C     0.83391   0.13335   0.14687   0.00000  Uiso   1.00
C125   C     0.66520   0.36668   0.14462   0.00000  Uiso   1.00
C126   C     0.86579   0.39814   0.20841   0.00000  Uiso   1.00
C127   C     0.94038   0.19093   0.16660   0.00000  Uiso   1.00
C128   C     0.61867   0.08620   0.14063   0.00000  Uiso   1.00
C129   C     0.66334   0.13157   0.19302   0.00000  Uiso   1.00
C130   C     0.85309   0.38440   0.12458   0.00000  Uiso   1.00
C131   C     0.59278   0.34290   0.16685   0.00000  Uiso   1.00
C132   C     0.90700   0.15733   0.16656   0.00000  Uiso   1.00
C133   C     0.90665   0.34248   0.16693   0.00000  Uiso   1.00
C134   C     0.59300   0.15718   0.16638   0.00000  Uiso   1.00
C135   C     0.84300   0.09267   0.16677   0.00000  Uiso   1.00
C136   C     0.65722   0.40710   0.16648   0.00000  Uiso   1.00
C137   C     0.65699   0.09282   0.16695   0.00000  Uiso   1.00
C138   C     0.55918   0.30951   0.16675   0.00000  Uiso   1.00
C139   C     0.84335   0.40752   0.16640   0.00000  Uiso   1.00
C140   C     0.85616   0.20863   0.12875   0.00000  Uiso   1.00
C141   C     0.64103   0.29214   0.12351   0.00000  Uiso   1.00
C142   C     0.54286   0.39233   0.20980   0.00000  Uiso   1.00
C143   C     0.95873   0.10801   0.20600   0.00000  Uiso   1.00
C144   C     0.63854   0.20440   0.21812   0.00000  Uiso   1.00
C145   C     0.89165   0.32788   0.08137   0.00000  Uiso   1.00
C146   C     0.91843   0.35712   0.25307   0.00000  Uiso   1.00
C147   C     0.54655   0.11098   0.11453   0.00000  Uiso   1.00
C148   C     0.60897   0.45786   0.20982   0.00000  Uiso   1.00
C149   C     0.80964   0.44079   0.16654   0.00000  Uiso   1.00
C150   C     0.89383   0.04138   0.20461   0.00000  Uiso   1.00
C151   C     0.79127   0.14199   0.12734   0.00000  Uiso   1.00
C152   C     0.70714   0.35767   0.12353   0.00000  Uiso   1.00
C153   C     0.85834   0.42212   0.25197   0.00000  Uiso   1.00
C154   C     0.61146   0.04560   0.11521   0.00000  Uiso   1.00
C155   C     0.70345   0.13902   0.21880   0.00000  Uiso   1.00
C156   C     0.83158   0.39288   0.08026   0.00000  Uiso   1.00
C157   C     0.69059   0.05939   0.16679   0.00000  Uiso   1.00
C158   C     0.69082   0.44049   0.16658   0.00000  Uiso   1.00
C159   C     0.80962   0.05907   0.16673   0.00000  Uiso   1.00
C160   C     0.99155   0.21262   0.02451   0.00000  Uiso   1.00
Cu161  Cu    0.50000   0.25000   0.21355   0.00000  Uiso   1.00
Cu162  Cu    0.50000   0.25000   0.11978   0.00000  Uiso   1.00
Cu163  Cu    0.75000   0.00000   0.21355   0.00000  Uiso   1.00
Cu164  Cu    0.75000   0.00000   0.11978   0.00000  Uiso   1.00
H165   H     0.98489   0.18262   0.04289   0.00000  Uiso   1.00
H166   H     0.51673   0.31699   0.29048   0.00000  Uiso   1.00
H167   H     0.51562   0.31728   0.04390   0.00000  Uiso   1.00
H168   H     0.98478   0.18262   0.28942   0.00000  Uiso   1.00
H169   H     0.73328   0.43301   0.04285   0.00000  Uiso   1.00
H170   H     0.76510   0.06738   0.29045   0.00000  Uiso   1.00
H171   H     0.76521   0.06738   0.04391   0.00000  Uiso   1.00
H172   H     0.73439   0.43271   0.28943   0.00000  Uiso   1.00
N173   N     0.50000   0.25000   0.28402   0.00000  Uiso   1.00
N174   N     0.89732   0.30895   0.04671   0.00000  Uiso   1.00
N175   N     0.93499   0.35097   0.28871   0.00000  Uiso   1.00
N176   N     0.51458   0.10501   0.09404   0.00000  Uiso   1.00
N177   N     0.60243   0.49155   0.22673   0.00000  Uiso   1.00
N178   N     0.90213   0.00738   0.21904   0.00000  Uiso   1.00
N179   N     0.75732   0.14885   0.11176   0.00000  Uiso   1.00
N180   N     0.74053   0.35023   0.10675   0.00000  Uiso   1.00
N181   N     0.85268   0.44104   0.28662   0.00000  Uiso   1.00
N182   N     0.60574   0.01323   0.09500   0.00000  Uiso   1.00
N183   N     0.73542   0.14499   0.23930   0.00000  Uiso   1.00
N184   N     0.50000   0.25000   0.04931   0.00000  Uiso   1.00
N185   N     0.81502   0.39903   0.04462   0.00000  Uiso   1.00
N186   N     0.75000   0.00000   0.28402   0.00000  Uiso   1.00
N187   N     0.75000   0.00000   0.04931   0.00000  Uiso   1.00
N188   N     0.84786   0.24263   0.11434   0.00000  Uiso   1.00
N189   N     0.64757   0.25845   0.10660   0.00000  Uiso   1.00
N190   N     0.50947   0.39978   0.22658   0.00000  Uiso   1.00
N191   N     0.99268   0.10115   0.22157   0.00000  Uiso   1.00
N192   N     0.64427   0.23677   0.23833   0.00000  Uiso   1.00
O193   O     0.54508   0.20491   0.20625   0.00000  Uiso   1.00
O194   O     0.70491   0.04509   0.12709   0.00000  Uiso   1.00
O195   O     0.70491   0.04509   0.20625   0.00000  Uiso   1.00
O196   O     0.79508   0.45491   0.12709   0.00000  Uiso   1.00
O197   O     0.70491   0.45491   0.12709   0.00000  Uiso   1.00
O198   O     0.79508   0.04509   0.20625   0.00000  Uiso   1.00
O199   O     0.79508   0.04509   0.12709   0.00000  Uiso   1.00
O200   O     0.70491   0.45491   0.20625   0.00000  Uiso   1.00
O201   O     0.95491   0.29509   0.12709   0.00000  Uiso   1.00
O202   O     0.95491   0.29509   0.20625   0.00000  Uiso   1.00
O203   O     0.54508   0.20491   0.12709   0.00000  Uiso   1.00
O204   O     0.95491   0.20491   0.12709   0.00000  Uiso   1.00
O205   O     0.54508   0.29509   0.20625   0.00000  Uiso   1.00
O206   O     0.54508   0.29509   0.12709   0.00000  Uiso   1.00
O207   O     0.95491   0.20491   0.20625   0.00000  Uiso   1.00
O208   O     0.79508   0.45491   0.20625   0.00000  Uiso   1.00
C209   C     0.05941   0.69061   0.16655   0.00000  Uiso   1.00
C210   C     0.00923   0.78718   0.30885   0.00000  Uiso   1.00
C211   C     0.00883   0.78729   0.02508   0.00000  Uiso   1.00
C212   C     0.49148   0.71263   0.30826   0.00000  Uiso   1.00
C213   C     0.24077   0.96282   0.02449   0.00000  Uiso   1.00
C214   C     0.25844   0.53739   0.30883   0.00000  Uiso   1.00
C215   C     0.25852   0.53737   0.02508   0.00000  Uiso   1.00
C216   C     0.24117   0.96271   0.30825   0.00000  Uiso   1.00
C217   C     0.36602   0.66591   0.14696   0.00000  Uiso   1.00
C218   C     0.13279   0.83442   0.14478   0.00000  Uiso   1.00
C219   C     0.08480   0.88332   0.18871   0.00000  Uiso   1.00
C220   C     0.44036   0.80921   0.16680   0.00000  Uiso   1.00
C221   C     0.41609   0.61665   0.18647   0.00000  Uiso   1.00
C222   C     0.13133   0.66380   0.19270   0.00000  Uiso   1.00
C223   C     0.38421   0.85186   0.12492   0.00000  Uiso   1.00
C224   C     0.39691   0.86561   0.20875   0.00000  Uiso   1.00
C225   C     0.08665   0.61843   0.14031   0.00000  Uiso   1.00
C226   C     0.11721   0.91558   0.18855   0.00000  Uiso   1.00
C227   C     0.38397   0.58410   0.18638   0.00000  Uiso   1.00
C228   C     0.33391   0.63335   0.14687   0.00000  Uiso   1.00
C229   C     0.16520   0.86668   0.14462   0.00000  Uiso   1.00
C230   C     0.36579   0.89814   0.20841   0.00000  Uiso   1.00
C231   C     0.44038   0.69093   0.16660   0.00000  Uiso   1.00
C232   C     0.11867   0.58620   0.14063   0.00000  Uiso   1.00
C233   C     0.16334   0.63157   0.19302   0.00000  Uiso   1.00
C234   C     0.35309   0.88440   0.12458   0.00000  Uiso   1.00
C235   C     0.09278   0.84290   0.16685   0.00000  Uiso   1.00
C236   C     0.40700   0.65733   0.16656   0.00000  Uiso   1.00
C237   C     0.40665   0.84248   0.16693   0.00000  Uiso   1.00
C238   C     0.09300   0.65718   0.16638   0.00000  Uiso   1.00
C239   C     0.34300   0.59267   0.16677   0.00000  Uiso   1.00
C240   C     0.15722   0.90710   0.16648   0.00000  Uiso   1.00
C241   C     0.15699   0.59282   0.16695   0.00000  Uiso   1.00
C242   C     0.05918   0.80951   0.16675   0.00000  Uiso   1.00
C243   C     0.34335   0.90752   0.16640   0.00000  Uiso   1.00
C244   C     0.35616   0.70863   0.12875   0.00000  Uiso   1.00
C245   C     0.14103   0.79214   0.12351   0.00000  Uiso   1.00
C246   C     0.04286   0.89233   0.20980   0.00000  Uiso   1.00
C247   C     0.45873   0.60801   0.20600   0.00000  Uiso   1.00
C248   C     0.13854   0.70440   0.21812   0.00000  Uiso   1.00
C249   C     0.39165   0.82788   0.08137   0.00000  Uiso   1.00
C250   C     0.41843   0.85712   0.25307   0.00000  Uiso   1.00
C251   C     0.04655   0.61098   0.11453   0.00000  Uiso   1.00
C252   C     0.10897   0.95786   0.20982   0.00000  Uiso   1.00
C253   C     0.30964   0.94079   0.16654   0.00000  Uiso   1.00
C254   C     0.39383   0.54138   0.20461   0.00000  Uiso   1.00
C255   C     0.29127   0.64199   0.12734   0.00000  Uiso   1.00
C256   C     0.20714   0.85767   0.12353   0.00000  Uiso   1.00
C257   C     0.35834   0.92212   0.25197   0.00000  Uiso   1.00
C258   C     0.11146   0.54560   0.11521   0.00000  Uiso   1.00
C259   C     0.20345   0.63902   0.21880   0.00000  Uiso   1.00
C260   C     0.33158   0.89288   0.08026   0.00000  Uiso   1.00
C261   C     0.19059   0.55939   0.16679   0.00000  Uiso   1.00
C262   C     0.19082   0.94049   0.16658   0.00000  Uiso   1.00
C263   C     0.30962   0.55907   0.16673   0.00000  Uiso   1.00
C264   C     0.49155   0.71262   0.02451   0.00000  Uiso   1.00
Cu265  Cu    0.00000   0.75000   0.21355   0.00000  Uiso   1.00
Cu266  Cu    0.00000   0.75000   0.11978   0.00000  Uiso   1.00
Cu267  Cu    0.25000   0.50000   0.21355   0.00000  Uiso   1.00
Cu268  Cu    0.25000   0.50000   0.11978   0.00000  Uiso   1.00
H269   H     0.48489   0.68262   0.04289   0.00000  Uiso   1.00
H270   H     0.01673   0.81699   0.29048   0.00000  Uiso   1.00
H271   H     0.01562   0.81728   0.04390   0.00000  Uiso   1.00
H272   H     0.48478   0.68262   0.28942   0.00000  Uiso   1.00
H273   H     0.23328   0.93301   0.04285   0.00000  Uiso   1.00
H274   H     0.26510   0.56738   0.29045   0.00000  Uiso   1.00
H275   H     0.26521   0.56738   0.04391   0.00000  Uiso   1.00
H276   H     0.23439   0.93271   0.28943   0.00000  Uiso   1.00
N277   N    -0.00000   0.75000   0.28402   0.00000  Uiso   1.00
N278   N     0.39732   0.80895   0.04671   0.00000  Uiso   1.00
N279   N     0.43499   0.85097   0.28871   0.00000  Uiso   1.00
N280   N     0.01458   0.60501   0.09404   0.00000  Uiso   1.00
N281   N     0.10243   0.99155   0.22673   0.00000  Uiso   1.00
N282   N     0.40213   0.50738   0.21904   0.00000  Uiso   1.00
N283   N     0.25732   0.64885   0.11176   0.00000  Uiso   1.00
N284   N     0.24053   0.85023   0.10675   0.00000  Uiso   1.00
N285   N     0.35268   0.94104   0.28662   0.00000  Uiso   1.00
N286   N     0.10574   0.51323   0.09500   0.00000  Uiso   1.00
N287   N     0.23542   0.64499   0.23930   0.00000  Uiso   1.00
N288   N     0.00000   0.75000   0.04931   0.00000  Uiso   1.00
N289   N     0.31502   0.89903   0.04462   0.00000  Uiso   1.00
N290   N     0.25000   0.50000   0.28402   0.00000  Uiso   1.00
N291   N     0.25000   0.50000   0.04931   0.00000  Uiso   1.00
N292   N     0.34786   0.74263   0.11434   0.00000  Uiso   1.00
N293   N     0.14757   0.75845   0.10660   0.00000  Uiso   1.00
N294   N     0.00947   0.89978   0.22658   0.00000  Uiso   1.00
N295   N     0.49268   0.60115   0.22157   0.00000  Uiso   1.00
N296   N     0.14427   0.73677   0.23833   0.00000  Uiso   1.00
O297   O     0.04508   0.70491   0.20625   0.00000  Uiso   1.00
O298   O     0.20491   0.54509   0.12709   0.00000  Uiso   1.00
O299   O     0.20491   0.54509   0.20625   0.00000  Uiso   1.00
O300   O     0.29508   0.95491   0.12709   0.00000  Uiso   1.00
O301   O     0.20491   0.95491   0.12709   0.00000  Uiso   1.00
O302   O     0.29508   0.54509   0.20625   0.00000  Uiso   1.00
O303   O     0.29508   0.54509   0.12709   0.00000  Uiso   1.00
O304   O     0.20491   0.95491   0.20625   0.00000  Uiso   1.00
O305   O     0.45491   0.79509   0.12709   0.00000  Uiso   1.00
O306   O     0.45491   0.79509   0.20625   0.00000  Uiso   1.00
O307   O     0.04508   0.70491   0.12709   0.00000  Uiso   1.00
O308   O     0.45491   0.70491   0.12709   0.00000  Uiso   1.00
O309   O     0.04508   0.79509   0.20625   0.00000  Uiso   1.00
O310   O     0.04508   0.79509   0.12709   0.00000  Uiso   1.00
O311   O     0.45491   0.70491   0.20625   0.00000  Uiso   1.00
O312   O     0.29508   0.95491   0.20625   0.00000  Uiso   1.00
C313   C     0.55941   0.69061   0.16655   0.00000  Uiso   1.00
C314   C     0.50923   0.78718   0.30885   0.00000  Uiso   1.00
C315   C     0.50883   0.78729   0.02508   0.00000  Uiso   1.00
C316   C     0.99148   0.71263   0.30826   0.00000  Uiso   1.00
C317   C     0.74077   0.96282   0.02449   0.00000  Uiso   1.00
C318   C     0.75844   0.53739   0.30883   0.00000  Uiso   1.00
C319   C     0.75852   0.53737   0.02508   0.00000  Uiso   1.00
C320   C     0.74117   0.96271   0.30825   0.00000  Uiso   1.00
C321   C     0.86602   0.66591   0.14696   0.00000  Uiso   1.00
C322   C     0.63279   0.83442   0.14478   0.00000  Uiso   1.00
C323   C     0.58480   0.88332   0.18871   0.00000  Uiso   1.00
C324   C     0.94036   0.80921   0.16680   0.00000  Uiso   1.00
C325   C     0.91609   0.61665   0.18647   0.00000  Uiso   1.00
C326   C     0.63133   0.66380   0.19270   0.00000  Uiso   1.00
C327   C     0.88421   0.85186   0.12492   0.00000  Uiso   1.00
C328   C     0.89691   0.86561   0.20875   0.00000  Uiso   1.00
C329   C     0.58665   0.61843   0.14031   0.00000  Uiso   1.00
C330   C     0.61721   0.91558   0.18855   0.00000  Uiso   1.00
C331   C     0.88397   0.58410   0.18638   0.00000  Uiso   1.00
C332   C     0.83391   0.63335   0.14687   0.00000  Uiso   1.00
C333   C     0.66520   0.86668   0.14462   0.00000  Uiso   1.00
C334   C     0.86579   0.89814   0.20841   0.00000  Uiso   1.00
C335   C     0.94038   0.69093   0.16660   0.00000  Uiso   1.00
C336   C     0.61867   0.58620   0.14063   0.00000  Uiso   1.00
C337   C     0.66334   0.63157   0.19302   0.00000  Uiso   1.00
C338   C     0.85309   0.88440   0.12458   0.00000  Uiso   1.00
C339   C     0.59278   0.84290   0.16685   0.00000  Uiso   1.00
C340   C     0.90700   0.65733   0.16656   0.00000  Uiso   1.00
C341   C     0.90665   0.84248   0.16693   0.00000  Uiso   1.00
C342   C     0.59300   0.65718   0.16638   0.00000  Uiso   1.00
C343   C     0.84300   0.59267   0.16677   0.00000  Uiso   1.00
C344   C     0.65722   0.90710   0.16648   0.00000  Uiso   1.00
C345   C     0.65699   0.59282   0.16695   0.00000  Uiso   1.00
C346   C     0.55918   0.80951   0.16675   0.00000  Uiso   1.00
C347   C     0.84335   0.90752   0.16640   0.00000  Uiso   1.00
C348   C     0.85616   0.70863   0.12875   0.00000  Uiso   1.00
C349   C     0.64103   0.79214   0.12351   0.00000  Uiso   1.00
C350   C     0.54286   0.89233   0.20980   0.00000  Uiso   1.00
C351   C     0.95873   0.60801   0.20600   0.00000  Uiso   1.00
C352   C     0.63854   0.70440   0.21812   0.00000  Uiso   1.00
C353   C     0.89165   0.82788   0.08137   0.00000  Uiso   1.00
C354   C     0.91843   0.85712   0.25307   0.00000  Uiso   1.00
C355   C     0.54655   0.61098   0.11453   0.00000  Uiso   1.00
C356   C     0.60897   0.95786   0.20982   0.00000  Uiso   1.00
C357   C     0.80964   0.94079   0.16654   0.00000  Uiso   1.00
C358   C     0.89383   0.54138   0.20461   0.00000  Uiso   1.00
C359   C     0.79127   0.64199   0.12734   0.00000  Uiso   1.00
C360   C     0.70714   0.85767   0.12353   0.00000  Uiso   1.00
C361   C     0.85834   0.92212   0.25197   0.00000  Uiso   1.00
C362   C     0.61146   0.54560   0.11521   0.00000  Uiso   1.00
C363   C     0.70345   0.63902   0.21880   0.00000  Uiso   1.00
C364   C     0.83158   0.89288   0.08026   0.00000  Uiso   1.00
C365   C     0.69059   0.55939   0.16679   0.00000  Uiso   1.00
C366   C     0.69082   0.94049   0.16658   0.00000  Uiso   1.00
C367   C     0.80962   0.55907   0.16673   0.00000  Uiso   1.00
C368   C     0.99155   0.71262   0.02451   0.00000  Uiso   1.00
Cu369  Cu    0.50000   0.75000   0.21355   0.00000  Uiso   1.00
Cu370  Cu    0.50000   0.75000   0.11978   0.00000  Uiso   1.00
Cu371  Cu    0.75000   0.50000   0.21355   0.00000  Uiso   1.00
Cu372  Cu    0.75000   0.50000   0.11978   0.00000  Uiso   1.00
H373   H     0.98489   0.68262   0.04289   0.00000  Uiso   1.00
H374   H     0.51673   0.81699   0.29048   0.00000  Uiso   1.00
H375   H     0.51562   0.81728   0.04390   0.00000  Uiso   1.00
H376   H     0.98478   0.68262   0.28942   0.00000  Uiso   1.00
H377   H     0.73328   0.93301   0.04285   0.00000  Uiso   1.00
H378   H     0.76510   0.56738   0.29045   0.00000  Uiso   1.00
H379   H     0.76521   0.56738   0.04391   0.00000  Uiso   1.00
H380   H     0.73439   0.93271   0.28943   0.00000  Uiso   1.00
N381   N     0.50000   0.75000   0.28402   0.00000  Uiso   1.00
N382   N     0.89732   0.80895   0.04671   0.00000  Uiso   1.00
N383   N     0.93499   0.85097   0.28871   0.00000  Uiso   1.00
N384   N     0.51458   0.60501   0.09404   0.00000  Uiso   1.00
N385   N     0.60243   0.99155   0.22673   0.00000  Uiso   1.00
N386   N     0.90213   0.50738   0.21904   0.00000  Uiso   1.00
N387   N     0.75732   0.64885   0.11176   0.00000  Uiso   1.00
N388   N     0.74053   0.85023   0.10675   0.00000  Uiso   1.00
N389   N     0.85268   0.94104   0.28662   0.00000  Uiso   1.00
N390   N     0.60574   0.51323   0.09500   0.00000  Uiso   1.00
N391   N     0.73542   0.64499   0.23930   0.00000  Uiso   1.00
N392   N     0.50000   0.75000   0.04931   0.00000  Uiso   1.00
N393   N     0.81502   0.89903   0.04462   0.00000  Uiso   1.00
N394   N     0.75000   0.50000   0.28402   0.00000  Uiso   1.00
N395   N     0.75000   0.50000   0.04931   0.00000  Uiso   1.00
N396   N     0.84786   0.74263   0.11434   0.00000  Uiso   1.00
N397   N     0.64757   0.75845   0.10660   0.00000  Uiso   1.00
N398   N     0.50947   0.89978   0.22658   0.00000  Uiso   1.00
N399   N     0.99268   0.60115   0.22157   0.00000  Uiso   1.00
N400   N     0.64427   0.73677   0.23833   0.00000  Uiso   1.00
O401   O     0.54508   0.70491   0.20625   0.00000  Uiso   1.00
O402   O     0.70491   0.54509   0.12709   0.00000  Uiso   1.00
O403   O     0.70491   0.54509   0.20625   0.00000  Uiso   1.00
O404   O     0.79508   0.95491   0.12709   0.00000  Uiso   1.00
O405   O     0.70491   0.95491   0.12709   0.00000  Uiso   1.00
O406   O     0.79508   0.54509   0.20625   0.00000  Uiso   1.00
O407   O     0.79508   0.54509   0.12709   0.00000  Uiso   1.00
O408   O     0.70491   0.95491   0.20625   0.00000  Uiso   1.00
O409   O     0.95491   0.79509   0.12709   0.00000  Uiso   1.00
O410   O     0.95491   0.79509   0.20625   0.00000  Uiso   1.00
O411   O     0.54508   0.70491   0.12709   0.00000  Uiso   1.00
O412   O     0.95491   0.70491   0.12709   0.00000  Uiso   1.00
O413   O     0.54508   0.79509   0.20625   0.00000  Uiso   1.00
O414   O     0.54508   0.79509   0.12709   0.00000  Uiso   1.00
O415   O     0.95491   0.70491   0.20625   0.00000  Uiso   1.00
O416   O     0.79508   0.95491   0.20625   0.00000  Uiso   1.00
C417   C     0.05941   0.19061   0.49988   0.00000  Uiso   1.00
C418   C     0.00923   0.28718   0.64218   0.00000  Uiso   1.00
C419   C     0.00883   0.28729   0.35841   0.00000  Uiso   1.00
C420   C     0.49148   0.21263   0.64159   0.00000  Uiso   1.00
C421   C     0.24077   0.46282   0.35782   0.00000  Uiso   1.00
C422   C     0.25844   0.03739   0.64216   0.00000  Uiso   1.00
C423   C     0.25852   0.03737   0.35841   0.00000  Uiso   1.00
C424   C     0.24117   0.46271   0.64159   0.00000  Uiso   1.00
C425   C     0.36602   0.16591   0.48029   0.00000  Uiso   1.00
C426   C     0.13279   0.33442   0.47811   0.00000  Uiso   1.00
C427   C     0.08480   0.38332   0.52204   0.00000  Uiso   1.00
C428   C     0.44036   0.30921   0.50013   0.00000  Uiso   1.00
C429   C     0.41609   0.11665   0.51980   0.00000  Uiso   1.00
C430   C     0.13133   0.16380   0.52604   0.00000  Uiso   1.00
C431   C     0.38421   0.35186   0.45825   0.00000  Uiso   1.00
C432   C     0.39691   0.36561   0.54209   0.00000  Uiso   1.00
C433   C     0.08665   0.11843   0.47364   0.00000  Uiso   1.00
C434   C     0.11721   0.41558   0.52189   0.00000  Uiso   1.00
C435   C     0.38397   0.08410   0.51972   0.00000  Uiso   1.00
C436   C     0.33391   0.13335   0.48020   0.00000  Uiso   1.00
C437   C     0.16520   0.36668   0.47796   0.00000  Uiso   1.00
C438   C     0.36579   0.39814   0.54175   0.00000  Uiso   1.00
C439   C     0.44038   0.19093   0.49993   0.00000  Uiso   1.00
C440   C     0.11867   0.08620   0.47396   0.00000  Uiso   1.00
C441   C     0.16334   0.13157   0.52636   0.00000  Uiso   1.00
C442   C     0.35309   0.38440   0.45791   0.00000  Uiso   1.00
C443   C     0.09278   0.34290   0.50019   0.00000  Uiso   1.00
C444   C     0.40700   0.15733   0.49990   0.00000  Uiso   1.00
C445   C     0.40665   0.34248   0.50026   0.00000  Uiso   1.00
C446   C     0.09300   0.15718   0.49971   0.00000  Uiso   1.00
C447   C     0.34300   0.09267   0.50010   0.00000  Uiso   1.00
C448   C     0.15722   0.40710   0.49981   0.00000  Uiso   1.00
C449   C     0.15699   0.09282   0.50029   0.00000  Uiso   1.00
C450   C     0.05918   0.30951   0.50008   0.00000  Uiso   1.00
C451   C     0.34335   0.40752   0.49974   0.00000  Uiso   1.00
C452   C     0.35616   0.20863   0.46209   0.00000  Uiso   1.00
C453   C     0.14103   0.29214   0.45684   0.00000  Uiso   1.00
C454   C     0.04286   0.39233   0.54313   0.00000  Uiso   1.00
C455   C     0.45873   0.10801   0.53933   0.00000  Uiso   1.00
C456   C     0.13854   0.20440   0.55146   0.00000  Uiso   1.00
C457   C     0.39165   0.32788   0.41470   0.00000  Uiso   1.00
C458   C     0.41843   0.35712   0.58641   0.00000  Uiso   1.00
C459   C     0.04655   0.11098   0.44786   0.00000  Uiso   1.00
C460   C     0.10897   0.45786   0.54316   0.00000  Uiso   1.00
C461   C     0.30964   0.44079   0.49987   0.00000  Uiso   1.00
C462   C     0.39383   0.04138   0.53794   0.00000  Uiso   1.00
C463   C     0.29127   0.14199   0.46067   0.00000  Uiso   1.00
C464   C     0.20714   0.35767   0.45687   0.00000  Uiso   1.00
C465   C     0.35834   0.42212   0.58530   0.00000  Uiso   1.00
C466   C     0.11146   0.04560   0.44854   0.00000  Uiso   1.00
C467   C     0.20345   0.13902   0.55214   0.00000  Uiso   1.00
C468   C     0.33158   0.39288   0.41359   0.00000  Uiso   1.00
C469   C     0.19059   0.05939   0.50012   0.00000  Uiso   1.00
C470   C     0.19082   0.44049   0.49992   0.00000  Uiso   1.00
C471   C     0.30962   0.05907   0.50007   0.00000  Uiso   1.00
C472   C     0.49155   0.21262   0.35784   0.00000  Uiso   1.00
Cu473  Cu    0.00000   0.25000   0.54689   0.00000  Uiso   1.00
Cu474  Cu    0.00000   0.25000   0.45311   0.00000  Uiso   1.00
Cu475  Cu    0.25000   0.00000   0.54689   0.00000  Uiso   1.00
Cu476  Cu    0.25000   0.00000   0.45311   0.00000  Uiso   1.00
H477   H     0.48489   0.18262   0.37622   0.00000  Uiso   1.00
H478   H     0.01673   0.31699   0.62381   0.00000  Uiso   1.00
H479   H     0.01562   0.31728   0.37723   0.00000  Uiso   1.00
H480   H     0.48478   0.18262   0.62276   0.00000  Uiso   1.00
H481   H     0.23328   0.43301   0.37619   0.00000  Uiso   1.00
H482   H     0.26510   0.06738   0.62378   0.00000  Uiso   1.00
H483   H     0.26521   0.06738   0.37724   0.00000  Uiso   1.00
H484   H     0.23439   0.43271   0.62277   0.00000  Uiso   1.00
N485   N    -0.00000   0.25000   0.61736   0.00000  Uiso   1.00
N486   N     0.39732   0.30895   0.38004   0.00000  Uiso   1.00
N487   N     0.43499   0.35097   0.62205   0.00000  Uiso   1.00
N488   N     0.01458   0.10501   0.42737   0.00000  Uiso   1.00
N489   N     0.10243   0.49155   0.56006   0.00000  Uiso   1.00
N490   N     0.40213   0.00738   0.55237   0.00000  Uiso   1.00
N491   N     0.25732   0.14885   0.44510   0.00000  Uiso   1.00
N492   N     0.24053   0.35023   0.44009   0.00000  Uiso   1.00
N493   N     0.35268   0.44104   0.61996   0.00000  Uiso   1.00
N494   N     0.10574   0.01323   0.42833   0.00000  Uiso   1.00
N495   N     0.23542   0.14499   0.57263   0.00000  Uiso   1.00
N496   N     0.00000   0.25000   0.38264   0.00000  Uiso   1.00
N497   N     0.31502   0.39903   0.37795   0.00000  Uiso   1.00
N498   N     0.25000   0.00000   0.61736   0.00000  Uiso   1.00
N499   N     0.25000   0.00000   0.38264   0.00000  Uiso   1.00
N500   N     0.34786   0.24263   0.44767   0.00000  Uiso   1.00
N501   N     0.14757   0.25845   0.43994   0.00000  Uiso   1.00
N502   N     0.00947   0.39978   0.55991   0.00000  Uiso   1.00
N503   N     0.49268   0.10115   0.55490   0.00000  Uiso   1.00
N504   N     0.14427   0.23677   0.57166   0.00000  Uiso   1.00
O505   O     0.04508   0.20491   0.53958   0.00000  Uiso   1.00
O506   O     0.20491   0.04509   0.46042   0.00000  Uiso   1.00
O507   O     0.20491   0.04509   0.53958   0.00000  Uiso   1.00
O508   O     0.29508   0.45491   0.46042   0.00000  Uiso   1.00
O509   O     0.20491   0.45491   0.46042   0.00000  Uiso   1.00
O510   O     0.29508   0.04509   0.53958   0.00000  Uiso   1.00
O511   O     0.29508   0.04509   0.46042   0.00000  Uiso   1.00
O512   O     0.20491   0.45491   0.53958   0.00000  Uiso   1.00
O513   O     0.45491   0.29509   0.46042   0.00000  Uiso   1.00
O514   O     0.45491   0.29509   0.53958   0.00000  Uiso   1.00
O515   O     0.04508   0.20491   0.46042   0.00000  Uiso   1.00
O516   O     0.45491   0.20491   0.46042   0.00000  Uiso   1.00
O517   O     0.04508   0.29509   0.53958   0.00000  Uiso   1.00
O518   O     0.04508   0.29509   0.46042   0.00000  Uiso   1.00
O519   O     0.45491   0.20491   0.53958   0.00000  Uiso   1.00
O520   O     0.29508   0.45491   0.53958   0.00000  Uiso   1.00
C521   C     0.55941   0.19061   0.49988   0.00000  Uiso   1.00
C522   C     0.50923   0.28718   0.64218   0.00000  Uiso   1.00
C523   C     0.50883   0.28729   0.35841   0.00000  Uiso   1.00
C524   C     0.99148   0.21263   0.64159   0.00000  Uiso   1.00
C525   C     0.74077   0.46282   0.35782   0.00000  Uiso   1.00
C526   C     0.75844   0.03739   0.64216   0.00000  Uiso   1.00
C527   C     0.75852   0.03737   0.35841   0.00000  Uiso   1.00
C528   C     0.74117   0.46271   0.64159   0.00000  Uiso   1.00
C529   C     0.86602   0.16591   0.48029   0.00000  Uiso   1.00
C530   C     0.63279   0.33442   0.47811   0.00000  Uiso   1.00
C531   C     0.58480   0.38332   0.52204   0.00000  Uiso   1.00
C532   C     0.94036   0.30921   0.50013   0.00000  Uiso   1.00
C533   C     0.91609   0.11665   0.51980   0.00000  Uiso   1.00
C534   C     0.63133   0.16380   0.52604   0.00000  Uiso   1.00
C535   C     0.88421   0.35186   0.45825   0.00000  Uiso   1.00
C536   C     0.89691   0.36561   0.54209   0.00000  Uiso   1.00
C537   C     0.58665   0.11843   0.47364   0.00000  Uiso   1.00
C538   C     0.61721   0.41558   0.52189   0.00000  Uiso   1.00
C539   C     0.88397   0.08410   0.51972   0.00000  Uiso   1.00
C540   C     0.83391   0.13335   0.48020   0.00000  Uiso   1.00
C541   C     0.66520   0.36668   0.47796   0.00000  Uiso   1.00
C542   C     0.86579   0.39814   0.54175   0.00000  Uiso   1.00
C543   C     0.94038   0.19093   0.49993   0.00000  Uiso   1.00
C544   C     0.61867   0.08620   0.47396   0.00000  Uiso   1.00
C545   C     0.66334   0.13157   0.52636   0.00000  Uiso   1.00
C546   C     0.85309   0.38440   0.45791   0.00000  Uiso   1.00
C547   C     0.59278   0.34290   0.50019   0.00000  Uiso   1.00
C548   C     0.90700   0.15733   0.49990   0.00000  Uiso   1.00
C549   C     0.90665   0.34248   0.50026   0.00000  Uiso   1.00
C550   C     0.59300   0.15718   0.49971   0.00000  Uiso   1.00
C551   C     0.84300   0.09267   0.50010   0.00000  Uiso   1.00
C552   C     0.65722   0.40710   0.49981   0.00000  Uiso   1.00
C553   C     0.65699   0.09282   0.50029   0.00000  Uiso   1.00
C554   C     0.55918   0.30951   0.50008   0.00000  Uiso   1.00
C555   C     0.84335   0.40752   0.49974   0.00000  Uiso   1.00
C556   C     0.85616   0.20863   0.46209   0.00000  Uiso   1.00
C557   C     0.64103   0.29214   0.45684   0.00000  Uiso   1.00
C558   C     0.54286   0.39233   0.54313   0.00000  Uiso   1.00
C559   C     0.95873   0.10801   0.53933   0.00000  Uiso   1.00
C560   C     0.63854   0.20440   0.55146   0.00000  Uiso   1.00
C561   C     0.89165   0.32788   0.41470   0.00000  Uiso   1.00
C562   C     0.91843   0.35712   0.58641   0.00000  Uiso   1.00
C563   C     0.54655   0.11098   0.44786   0.00000  Uiso   1.00
C564   C     0.60897   0.45786   0.54316   0.00000  Uiso   1.00
C565   C     0.80964   0.44079   0.49987   0.00000  Uiso   1.00
C566   C     0.89383   0.04138   0.53794   0.00000  Uiso   1.00
C567   C     0.79127   0.14199   0.46067   0.00000  Uiso   1.00
C568   C     0.70714   0.35767   0.45687   0.00000  Uiso   1.00
C569   C     0.85834   0.42212   0.58530   0.00000  Uiso   1.00
C570   C     0.61146   0.04560   0.44854   0.00000  Uiso   1.00
C571   C     0.70345   0.13902   0.55214   0.00000  Uiso   1.00
C572   C     0.83158   0.39288   0.41359   0.00000  Uiso   1.00
C573   C     0.69059   0.05939   0.50012   0.00000  Uiso   1.00
C574   C     0.69082   0.44049   0.49992   0.00000  Uiso   1.00
C575   C     0.80962   0.05907   0.50007   0.00000  Uiso   1.00
C576   C     0.99155   0.21262   0.35784   0.00000  Uiso   1.00
Cu577  Cu    0.50000   0.25000   0.54689   0.00000  Uiso   1.00
Cu578  Cu    0.50000   0.25000   0.45311   0.00000  Uiso   1.00
Cu579  Cu    0.75000   0.00000   0.54689   0.00000  Uiso   1.00
Cu580  Cu    0.75000   0.00000   0.45311   0.00000  Uiso   1.00
H581   H     0.98489   0.18262   0.37622   0.00000  Uiso   1.00
H582   H     0.51673   0.31699   0.62381   0.00000  Uiso   1.00
H583   H     0.51562   0.31728   0.37723   0.00000  Uiso   1.00
H584   H     0.98478   0.18262   0.62276   0.00000  Uiso   1.00
H585   H     0.73328   0.43301   0.37619   0.00000  Uiso   1.00
H586   H     0.76510   0.06738   0.62378   0.00000  Uiso   1.00
H587   H     0.76521   0.06738   0.37724   0.00000  Uiso   1.00
H588   H     0.73439   0.43271   0.62277   0.00000  Uiso   1.00
N589   N     0.50000   0.25000   0.61736   0.00000  Uiso   1.00
N590   N     0.89732   0.30895   0.38004   0.00000  Uiso   1.00
N591   N     0.93499   0.35097   0.62205   0.00000  Uiso   1.00
N592   N     0.51458   0.10501   0.42737   0.00000  Uiso   1.00
N593   N     0.60243   0.49155   0.56006   0.00000  Uiso   1.00
N594   N     0.90213   0.00738   0.55237   0.00000  Uiso   1.00
N595   N     0.75732   0.14885   0.44510   0.00000  Uiso   1.00
N596   N     0.74053   0.35023   0.44009   0.00000  Uiso   1.00
N597   N     0.85268   0.44104   0.61996   0.00000  Uiso   1.00
N598   N     0.60574   0.01323   0.42833   0.00000  Uiso   1.00
N599   N     0.73542   0.14499   0.57263   0.00000  Uiso   1.00
N600   N     0.50000   0.25000   0.38264   0.00000  Uiso   1.00
N601   N     0.81502   0.39903   0.37795   0.00000  Uiso   1.00
N602   N     0.75000   0.00000   0.61736   0.00000  Uiso   1.00
N603   N     0.75000   0.00000   0.38264   0.00000  Uiso   1.00
N604   N     0.84786   0.24263   0.44767   0.00000  Uiso   1.00
N605   N     0.64757   0.25845   0.43994   0.00000  Uiso   1.00
N606   N     0.50947   0.39978   0.55991   0.00000  Uiso   1.00
N607   N     0.99268   0.10115   0.55490   0.00000  Uiso   1.00
N608   N     0.64427   0.23677   0.57166   0.00000  Uiso   1.00
O609   O     0.54508   0.20491   0.53958   0.00000  Uiso   1.00
O610   O     0.70491   0.04509   0.46042   0.00000  Uiso   1.00
O611   O     0.70491   0.04509   0.53958   0.00000  Uiso   1.00
O612   O     0.79508   0.45491   0.46042   0.00000  Uiso   1.00
O613   O     0.70491   0.45491   0.46042   0.00000  Uiso   1.00
O614   O     0.79508   0.04509   0.53958   0.00000  Uiso   1.00
O615   O     0.79508   0.04509   0.46042   0.00000  Uiso   1.00
O616   O     0.70491   0.45491   0.53958   0.00000  Uiso   1.00
O617   O     0.95491   0.29509   0.46042   0.00000  Uiso   1.00
O618   O     0.95491   0.29509   0.53958   0.00000  Uiso   1.00
O619   O     0.54508   0.20491   0.46042   0.00000  Uiso   1.00
O620   O     0.95491   0.20491   0.46042   0.00000  Uiso   1.00
O621   O     0.54508   0.29509   0.53958   0.00000  Uiso   1.00
O622   O     0.54508   0.29509   0.46042   0.00000  Uiso   1.00
O623   O     0.95491   0.20491   0.53958   0.00000  Uiso   1.00
O624   O     0.79508   0.45491   0.53958   0.00000  Uiso   1.00
C625   C     0.05941   0.69061   0.49988   0.00000  Uiso   1.00
C626   C     0.00923   0.78718   0.64218   0.00000  Uiso   1.00
C627   C     0.00883   0.78729   0.35841   0.00000  Uiso   1.00
C628   C     0.49148   0.71263   0.64159   0.00000  Uiso   1.00
C629   C     0.24077   0.96282   0.35782   0.00000  Uiso   1.00
C630   C     0.25844   0.53739   0.64216   0.00000  Uiso   1.00
C631   C     0.25852   0.53737   0.35841   0.00000  Uiso   1.00
C632   C     0.24117   0.96271   0.64159   0.00000  Uiso   1.00
C633   C     0.36602   0.66591   0.48029   0.00000  Uiso   1.00
C634   C     0.13279   0.83442   0.47811   0.00000  Uiso   1.00
C635   C     0.08480   0.88332   0.52204   0.00000  Uiso   1.00
C636   C     0.44036   0.80921   0.50013   0.00000  Uiso   1.00
C637   C     0.41609   0.61665   0.51980   0.00000  Uiso   1.00
C638   C     0.13133   0.66380   0.52604   0.00000  Uiso   1.00
C639   C     0.38421   0.85186   0.45825   0.00000  Uiso   1.00
C640   C     0.39691   0.86561   0.54209   0.00000  Uiso   1.00
C641   C     0.08665   0.61843   0.47364   0.00000  Uiso   1.00
C642   C     0.11721   0.91558   0.52189   0.00000  Uiso   1.00
C643   C     0.38397   0.58410   0.51972   0.00000  Uiso   1.00
C644   C     0.33391   0.63335   0.48020   0.00000  Uiso   1.00
C645   C     0.16520   0.86668   0.47796   0.00000  Uiso   1.00
C646   C     0.36579   0.89814   0.54175   0.00000  Uiso   1.00
C647   C     0.44038   0.69093   0.49993   0.00000  Uiso   1.00
C648   C     0.11867   0.58620   0.47396   0.00000  Uiso   1.00
C649   C     0.16334   0.63157   0.52636   0.00000  Uiso   1.00
C650   C     0.35309   0.88440   0.45791   0.00000  Uiso   1.00
C651   C     0.09278   0.84290   0.50019   0.00000  Uiso   1.00
C652   C     0.40700   0.65733   0.49990   0.00000  Uiso   1.00
C653   C     0.40665   0.84248   0.50026   0.00000  Uiso   1.00
C654   C     0.09300   0.65718   0.49971   0.00000  Uiso   1.00
C655   C     0.34300   0.59267   0.50010   0.00000  Uiso   1.00
C656   C     0.15722   0.90710   0.49981   0.00000  Uiso   1.00
C657   C     0.15699   0.59282   0.50029   0.00000  Uiso   1.00
C658   C     0.05918   0.80951   0.50008   0.00000  Uiso   1.00
C659   C     0.34335   0.90752   0.49974   0.00000  Uiso   1.00
C660   C     0.35616   0.70863   0.46209   0.00000  Uiso   1.00
C661   C     0.14103   0.79214   0.45684   0.00000  Uiso   1.00
C662   C     0.04286   0.89233   0.54313   0.00000  Uiso   1.00
C663   C     0.45873   0.60801   0.53933   0.00000  Uiso   1.00
C664   C     0.13854   0.70440   0.55146   0.00000  Uiso   1.00
C665   C     0.39165   0.82788   0.41470   0.00000  Uiso   1.00
C666   C     0.41843   0.85712   0.58641   0.00000  Uiso   1.00
C667   C     0.04655   0.61098   0.44786   0.00000  Uiso   1.00
C668   C     0.10897   0.95786   0.54316   0.00000  Uiso   1.00
C669   C     0.30964   0.94079   0.49987   0.00000  Uiso   1.00
C670   C     0.39383   0.54138   0.53794   0.00000  Uiso   1.00
C671   C     0.29127   0.64199   0.46067   0.00000  Uiso   1.00
C672   C     0.20714   0.85767   0.45687   0.00000  Uiso   1.00
C673   C     0.35834   0.92212   0.58530   0.00000  Uiso   1.00
C674   C     0.11146   0.54560   0.44854   0.00000  Uiso   1.00
C675   C     0.20345   0.63902   0.55214   0.00000  Uiso   1.00
C676   C     0.33158   0.89288   0.41359   0.00000  Uiso   1.00
C677   C     0.19059   0.55939   0.50012   0.00000  Uiso   1.00
C678   C     0.19082   0.94049   0.49992   0.00000  Uiso   1.00
C679   C     0.30962   0.55907   0.50007   0.00000  Uiso   1.00
C680   C     0.49155   0.71262   0.35784   0.00000  Uiso   1.00
Cu681  Cu    0.00000   0.75000   0.54689   0.00000  Uiso   1.00
Cu682  Cu    0.00000   0.75000   0.45311   0.00000  Uiso   1.00
Cu683  Cu    0.25000   0.50000   0.54689   0.00000  Uiso   1.00
Cu684  Cu    0.25000   0.50000   0.45311   0.00000  Uiso   1.00
H685   H     0.48489   0.68262   0.37622   0.00000  Uiso   1.00
H686   H     0.01673   0.81699   0.62381   0.00000  Uiso   1.00
H687   H     0.01562   0.81728   0.37723   0.00000  Uiso   1.00
H688   H     0.48478   0.68262   0.62276   0.00000  Uiso   1.00
H689   H     0.23328   0.93301   0.37619   0.00000  Uiso   1.00
H690   H     0.26510   0.56738   0.62378   0.00000  Uiso   1.00
H691   H     0.26521   0.56738   0.37724   0.00000  Uiso   1.00
H692   H     0.23439   0.93271   0.62277   0.00000  Uiso   1.00
N693   N    -0.00000   0.75000   0.61736   0.00000  Uiso   1.00
N694   N     0.39732   0.80895   0.38004   0.00000  Uiso   1.00
N695   N     0.43499   0.85097   0.62205   0.00000  Uiso   1.00
N696   N     0.01458   0.60501   0.42737   0.00000  Uiso   1.00
N697   N     0.10243   0.99155   0.56006   0.00000  Uiso   1.00
N698   N     0.40213   0.50738   0.55237   0.00000  Uiso   1.00
N699   N     0.25732   0.64885   0.44510   0.00000  Uiso   1.00
N700   N     0.24053   0.85023   0.44009   0.00000  Uiso   1.00
N701   N     0.35268   0.94104   0.61996   0.00000  Uiso   1.00
N702   N     0.10574   0.51323   0.42833   0.00000  Uiso   1.00
N703   N     0.23542   0.64499   0.57263   0.00000  Uiso   1.00
N704   N     0.00000   0.75000   0.38264   0.00000  Uiso   1.00
N705   N     0.31502   0.89903   0.37795   0.00000  Uiso   1.00
N706   N     0.25000   0.50000   0.61736   0.00000  Uiso   1.00
N707   N     0.25000   0.50000   0.38264   0.00000  Uiso   1.00
N708   N     0.34786   0.74263   0.44767   0.00000  Uiso   1.00
N709   N     0.14757   0.75845   0.43994   0.00000  Uiso   1.00
N710   N     0.00947   0.89978   0.55991   0.00000  Uiso   1.00
N711   N     0.49268   0.60115   0.55490   0.00000  Uiso   1.00
N712   N     0.14427   0.73677   0.57166   0.00000  Uiso   1.00
O713   O     0.04508   0.70491   0.53958   0.00000  Uiso   1.00
O714   O     0.20491   0.54509   0.46042   0.00000  Uiso   1.00
O715   O     0.20491   0.54509   0.53958   0.00000  Uiso   1.00
O716   O     0.29508   0.95491   0.46042   0.00000  Uiso   1.00
O717   O     0.20491   0.95491   0.46042   0.00000  Uiso   1.00
O718   O     0.29508   0.54509   0.53958   0.00000  Uiso   1.00
O719   O     0.29508   0.54509   0.46042   0.00000  Uiso   1.00
O720   O     0.20491   0.95491   0.53958   0.00000  Uiso   1.00
O721   O     0.45491   0.79509   0.46042   0.00000  Uiso   1.00
O722   O     0.45491   0.79509   0.53958   0.00000  Uiso   1.00
O723   O     0.04508   0.70491   0.46042   0.00000  Uiso   1.00
O724   O     0.45491   0.70491   0.46042   0.00000  Uiso   1.00
O725   O     0.04508   0.79509   0.53958   0.00000  Uiso   1.00
O726   O     0.04508   0.79509   0.46042   0.00000  Uiso   1.00
O727   O     0.45491   0.70491   0.53958   0.00000  Uiso   1.00
O728   O     0.29508   0.95491   0.53958   0.00000  Uiso   1.00
C729   C     0.55941   0.69061   0.49988   0.00000  Uiso   1.00
C730   C     0.50923   0.78718   0.64218   0.00000  Uiso   1.00
C731   C     0.50883   0.78729   0.35841   0.00000  Uiso   1.00
C732   C     0.99148   0.71263   0.64159   0.00000  Uiso   1.00
C733   C     0.74077   0.96282   0.35782   0.00000  Uiso   1.00
C734   C     0.75844   0.53739   0.64216   0.00000  Uiso   1.00
C735   C     0.75852   0.53737   0.35841   0.00000  Uiso   1.00
C736   C     0.74117   0.96271   0.64159   0.00000  Uiso   1.00
C737   C     0.86602   0.66591   0.48029   0.00000  Uiso   1.00
C738   C     0.63279   0.83442   0.47811   0.00000  Uiso   1.00
C739   C     0.58480   0.88332   0.52204   0.00000  Uiso   1.00
C740   C     0.94036   0.80921   0.50013   0.00000  Uiso   1.00
C741   C     0.91609   0.61665   0.51980   0.00000  Uiso   1.00
C742   C     0.63133   0.66380   0.52604   0.00000  Uiso   1.00
C743   C     0.88421   0.85186   0.45825   0.00000  Uiso   1.00
C744   C     0.89691   0.86561   0.54209   0.00000  Uiso   1.00
C745   C     0.58665   0.61843   0.47364   0.00000  Uiso   1.00
C746   C     0.61721   0.91558   0.52189   0.00000  Uiso   1.00
C747   C     0.88397   0.58410   0.51972   0.00000  Uiso   1.00
C748   C     0.83391   0.63335   0.48020   0.00000  Uiso   1.00
C749   C     0.66520   0.86668   0.47796   0.00000  Uiso   1.00
C750   C     0.86579   0.89814   0.54175   0.00000  Uiso   1.00
C751   C     0.94038   0.69093   0.49993   0.00000  Uiso   1.00
C752   C     0.61867   0.58620   0.47396   0.00000  Uiso   1.00
C753   C     0.66334   0.63157   0.52636   0.00000  Uiso   1.00
C754   C     0.85309   0.88440   0.45791   0.00000  Uiso   1.00
C755   C     0.59278   0.84290   0.50019   0.00000  Uiso   1.00
C756   C     0.90700   0.65733   0.49990   0.00000  Uiso   1.00
C757   C     0.90665   0.84248   0.50026   0.00000  Uiso   1.00
C758   C     0.59300   0.65718   0.49971   0.00000  Uiso   1.00
C759   C     0.84300   0.59267   0.50010   0.00000  Uiso   1.00
C760   C     0.65722   0.90710   0.49981   0.00000  Uiso   1.00
C761   C     0.65699   0.59282   0.50029   0.00000  Uiso   1.00
C762   C     0.55918   0.80951   0.50008   0.00000  Uiso   1.00
C763   C     0.84335   0.90752   0.49974   0.00000  Uiso   1.00
C764   C     0.85616   0.70863   0.46209   0.00000  Uiso   1.00
C765   C     0.64103   0.79214   0.45684   0.00000  Uiso   1.00
C766   C     0.54286   0.89233   0.54313   0.00000  Uiso   1.00
C767   C     0.95873   0.60801   0.53933   0.00000  Uiso   1.00
C768   C     0.63854   0.70440   0.55146   0.00000  Uiso   1.00
C769   C     0.89165   0.82788   0.41470   0.00000  Uiso   1.00
C770   C     0.91843   0.85712   0.58641   0.00000  Uiso   1.00
C771   C     0.54655   0.61098   0.44786   0.00000  Uiso   1.00
C772   C     0.60897   0.95786   0.54316   0.00000  Uiso   1.00
C773   C     0.80964   0.94079   0.49987   0.00000  Uiso   1.00
C774   C     0.89383   0.54138   0.53794   0.00000  Uiso   1.00
C775   C     0.79127   0.64199   0.46067   0.00000  Uiso   1.00
C776   C     0.70714   0.85767   0.45687   0.00000  Uiso   1.00
C777   C     0.85834   0.92212   0.58530   0.00000  Uiso   1.00
C778   C     0.61146   0.54560   0.44854   0.00000  Uiso   1.00
C779   C     0.70345   0.63902   0.55214   0.00000  Uiso   1.00
C780   C     0.83158   0.89288   0.41359   0.00000  Uiso   1.00
C781   C     0.69059   0.55939   0.50012   0.00000  Uiso   1.00
C782   C     0.69082   0.94049   0.49992   0.00000  Uiso   1.00
C783   C     0.80962   0.55907   0.50007   0.00000  Uiso   1.00
C784   C     0.99155   0.71262   0.35784   0.00000  Uiso   1.00
Cu785  Cu    0.50000   0.75000   0.54689   0.00000  Uiso   1.00
Cu786  Cu    0.50000   0.75000   0.45311   0.00000  Uiso   1.00
Cu787  Cu    0.75000   0.50000   0.54689   0.00000  Uiso   1.00
Cu788  Cu    0.75000   0.50000   0.45311   0.00000  Uiso   1.00
H789   H     0.98489   0.68262   0.37622   0.00000  Uiso   1.00
H790   H     0.51673   0.81699   0.62381   0.00000  Uiso   1.00
H791   H     0.51562   0.81728   0.37723   0.00000  Uiso   1.00
H792   H     0.98478   0.68262   0.62276   0.00000  Uiso   1.00
H793   H     0.73328   0.93301   0.37619   0.00000  Uiso   1.00
H794   H     0.76510   0.56738   0.62378   0.00000  Uiso   1.00
H795   H     0.76521   0.56738   0.37724   0.00000  Uiso   1.00
H796   H     0.73439   0.93271   0.62277   0.00000  Uiso   1.00
N797   N     0.50000   0.75000   0.61736   0.00000  Uiso   1.00
N798   N     0.89732   0.80895   0.38004   0.00000  Uiso   1.00
N799   N     0.93499   0.85097   0.62205   0.00000  Uiso   1.00
N800   N     0.51458   0.60501   0.42737   0.00000  Uiso   1.00
N801   N     0.60243   0.99155   0.56006   0.00000  Uiso   1.00
N802   N     0.90213   0.50738   0.55237   0.00000  Uiso   1.00
N803   N     0.75732   0.64885   0.44510   0.00000  Uiso   1.00
N804   N     0.74053   0.85023   0.44009   0.00000  Uiso   1.00
N805   N     0.85268   0.94104   0.61996   0.00000  Uiso   1.00
N806   N     0.60574   0.51323   0.42833   0.00000  Uiso   1.00
N807   N     0.73542   0.64499   0.57263   0.00000  Uiso   1.00
N808   N     0.50000   0.75000   0.38264   0.00000  Uiso   1.00
N809   N     0.81502   0.89903   0.37795   0.00000  Uiso   1.00
N810   N     0.75000   0.50000   0.61736   0.00000  Uiso   1.00
N811   N     0.75000   0.50000   0.38264   0.00000  Uiso   1.00
N812   N     0.84786   0.74263   0.44767   0.00000  Uiso   1.00
N813   N     0.64757   0.75845   0.43994   0.00000  Uiso   1.00
N814   N     0.50947   0.89978   0.55991   0.00000  Uiso   1.00
N815   N     0.99268   0.60115   0.55490   0.00000  Uiso   1.00
N816   N     0.64427   0.73677   0.57166   0.00000  Uiso   1.00
O817   O     0.54508   0.70491   0.53958   0.00000  Uiso   1.00
O818   O     0.70491   0.54509   0.46042   0.00000  Uiso   1.00
O819   O     0.70491   0.54509   0.53958   0.00000  Uiso   1.00
O820   O     0.79508   0.95491   0.46042   0.00000  Uiso   1.00
O821   O     0.70491   0.95491   0.46042   0.00000  Uiso   1.00
O822   O     0.79508   0.54509   0.53958   0.00000  Uiso   1.00
O823   O     0.79508   0.54509   0.46042   0.00000  Uiso   1.00
O824   O     0.70491   0.95491   0.53958   0.00000  Uiso   1.00
O825   O     0.95491   0.79509   0.46042   0.00000  Uiso   1.00
O826   O     0.95491   0.79509   0.53958   0.00000  Uiso   1.00
O827   O     0.54508   0.70491   0.46042   0.00000  Uiso   1.00
O828   O     0.95491   0.70491   0.46042   0.00000  Uiso   1.00
O829   O     0.54508   0.79509   0.53958   0.00000  Uiso   1.00
O830   O     0.54508   0.79509   0.46042   0.00000  Uiso   1.00
O831   O     0.95491   0.70491   0.53958   0.00000  Uiso   1.00
O832   O     0.79508   0.95491   0.53958   0.00000  Uiso   1.00
C833   C     0.05941   0.19061   0.83321   0.00000  Uiso   1.00
C834   C     0.00923   0.28718   0.97551   0.00000  Uiso   1.00
C835   C     0.00883   0.28729   0.69174   0.00000  Uiso   1.00
C836   C     0.49148   0.21263   0.97492   0.00000  Uiso   1.00
C837   C     0.24077   0.46282   0.69115   0.00000  Uiso   1.00
C838   C     0.25844   0.03739   0.97549   0.00000  Uiso   1.00
C839   C     0.25852   0.03737   0.69174   0.00000  Uiso   1.00
C840   C     0.24117   0.46271   0.97492   0.00000  Uiso   1.00
C841   C     0.36602   0.16591   0.81362   0.00000  Uiso   1.00
C842   C     0.13279   0.33442   0.81145   0.00000  Uiso   1.00
C843   C     0.08480   0.38332   0.85538   0.00000  Uiso   1.00
C844   C     0.44036   0.30921   0.83346   0.00000  Uiso   1.00
C845   C     0.41609   0.11665   0.85313   0.00000  Uiso   1.00
C846   C     0.13133   0.16380   0.85937   0.00000  Uiso   1.00
C847   C     0.38421   0.35186   0.79159   0.00000  Uiso   1.00
C848   C     0.39691   0.36561   0.87542   0.00000  Uiso   1.00
C849   C     0.08665   0.11843   0.80698   0.00000  Uiso   1.00
C850   C     0.11721   0.41558   0.85522   0.00000  Uiso   1.00
C851   C     0.38397   0.08410   0.85305   0.00000  Uiso   1.00
C852   C     0.33391   0.13335   0.81353   0.00000  Uiso   1.00
C853   C     0.16520   0.36668   0.81129   0.00000  Uiso   1.00
C854   C     0.36579   0.39814   0.87508   0.00000  Uiso   1.00
C855   C     0.44038   0.19093   0.83327   0.00000  Uiso   1.00
C856   C     0.11867   0.08620   0.80730   0.00000  Uiso   1.00
C857   C     0.16334   0.13157   0.85969   0.00000  Uiso   1.00
C858   C     0.35309   0.38440   0.79125   0.00000  Uiso   1.00
C859   C     0.09278   0.34290   0.83352   0.00000  Uiso   1.00
C860   C     0.40700   0.15733   0.83323   0.00000  Uiso   1.00
C861   C     0.40665   0.34248   0.83360   0.00000  Uiso   1.00
C862   C     0.09300   0.15718   0.83305   0.00000  Uiso   1.00
C863   C     0.34300   0.09267   0.83344   0.00000  Uiso   1.00
C864   C     0.15722   0.40710   0.83314   0.00000  Uiso   1.00
C865   C     0.15699   0.09282   0.83362   0.00000  Uiso   1.00
C866   C     0.05918   0.30951   0.83342   0.00000  Uiso   1.00
C867   C     0.34335   0.40752   0.83307   0.00000  Uiso   1.00
C868   C     0.35616   0.20863   0.79542   0.00000  Uiso   1.00
C869   C     0.14103   0.29214   0.79018   0.00000  Uiso   1.00
C870   C     0.04286   0.39233   0.87647   0.00000  Uiso   1.00
C871   C     0.45873   0.10801   0.87266   0.00000  Uiso   1.00
C872   C     0.13854   0.20440   0.88479   0.00000  Uiso   1.00
C873   C     0.39165   0.32788   0.74803   0.00000  Uiso   1.00
C874   C     0.41843   0.35712   0.91974   0.00000  Uiso   1.00
C875   C     0.04655   0.11098   0.78119   0.00000  Uiso   1.00
C876   C     0.10897   0.45786   0.87649   0.00000  Uiso   1.00
C877   C     0.30964   0.44079   0.83320   0.00000  Uiso   1.00
C878   C     0.39383   0.04138   0.87127   0.00000  Uiso   1.00
C879   C     0.29127   0.14199   0.79400   0.00000  Uiso   1.00
C880   C     0.20714   0.35767   0.79020   0.00000  Uiso   1.00
C881   C     0.35834   0.42212   0.91863   0.00000  Uiso   1.00
C882   C     0.11146   0.04560   0.78187   0.00000  Uiso   1.00
C883   C     0.20345   0.13902   0.88547   0.00000  Uiso   1.00
C884   C     0.33158   0.39288   0.74692   0.00000  Uiso   1.00
C885   C     0.19059   0.05939   0.83345   0.00000  Uiso   1.00
C886   C     0.19082   0.44049   0.83325   0.00000  Uiso   1.00
C887   C     0.30962   0.05907   0.83340   0.00000  Uiso   1.00
C888   C     0.49155   0.21262   0.69117   0.00000  Uiso   1.00
Cu889  Cu    0.00000   0.25000   0.88022   0.00000  Uiso   1.00
Cu890  Cu    0.00000   0.25000   0.78645   0.00000  Uiso   1.00
Cu891  Cu    0.25000   0.00000   0.88022   0.00000  Uiso   1.00
Cu892  Cu    0.25000   0.00000   0.78645   0.00000  Uiso   1.00
H893   H     0.48489   0.18262   0.70955   0.00000  Uiso   1.00
H894   H     0.01673   0.31699   0.95715   0.00000  Uiso   1.00
H895   H     0.01562   0.31728   0.71057   0.00000  Uiso   1.00
H896   H     0.48478   0.18262   0.95609   0.00000  Uiso   1.00
H897   H     0.23328   0.43301   0.70952   0.00000  Uiso   1.00
H898   H     0.26510   0.06738   0.95711   0.00000  Uiso   1.00
H899   H     0.26521   0.06738   0.71058   0.00000  Uiso   1.00
H900   H     0.23439   0.43271   0.95610   0.00000  Uiso   1.00
N901   N    -0.00000   0.25000   0.95069   0.00000  Uiso   1.00
N902   N     0.39732   0.30895   0.71338   0.00000  Uiso   1.00
N903   N     0.43499   0.35097   0.95538   0.00000  Uiso   1.00
N904   N     0.01458   0.10501   0.76070   0.00000  Uiso   1.00
N905   N     0.10243   0.49155   0.89340   0.00000  Uiso   1.00
N906   N     0.40213   0.00738   0.88570   0.00000  Uiso   1.00
N907   N     0.25732   0.14885   0.77843   0.00000  Uiso   1.00
N908   N     0.24053   0.35023   0.77342   0.00000  Uiso   1.00
N909   N     0.35268   0.44104   0.95329   0.00000  Uiso   1.00
N910   N     0.10574   0.01323   0.76167   0.00000  Uiso   1.00
N911   N     0.23542   0.14499   0.90596   0.00000  Uiso   1.00
N912   N     0.00000   0.25000   0.71598   0.00000  Uiso   1.00
N913   N     0.31502   0.39903   0.71128   0.00000  Uiso   1.00
N914   N     0.25000   0.00000   0.95069   0.00000  Uiso   1.00
N915   N     0.25000   0.00000   0.71598   0.00000  Uiso   1.00
N916   N     0.34786   0.24263   0.78101   0.00000  Uiso   1.00
N917   N     0.14757   0.25845   0.77327   0.00000  Uiso   1.00
N918   N     0.00947   0.39978   0.89325   0.00000  Uiso   1.00
N919   N     0.49268   0.10115   0.88823   0.00000  Uiso   1.00
N920   N     0.14427   0.23677   0.90500   0.00000  Uiso   1.00
O921   O     0.04508   0.20491   0.87291   0.00000  Uiso   1.00
O922   O     0.20491   0.04509   0.79375   0.00000  Uiso   1.00
O923   O     0.20491   0.04509   0.87291   0.00000  Uiso   1.00
O924   O     0.29508   0.45491   0.79375   0.00000  Uiso   1.00
O925   O     0.20491   0.45491   0.79375   0.00000  Uiso   1.00
O926   O     0.29508   0.04509   0.87291   0.00000  Uiso   1.00
O927   O     0.29508   0.04509   0.79375   0.00000  Uiso   1.00
O928   O     0.20491   0.45491   0.87291   0.00000  Uiso   1.00
O929   O     0.45491   0.29509   0.79375   0.00000  Uiso   1.00
O930   O     0.45491   0.29509   0.87291   0.00000  Uiso   1.00
O931   O     0.04508   0.20491   0.79375   0.00000  Uiso   1.00
O932   O     0.45491   0.20491   0.79375   0.00000  Uiso   1.00
O933   O     0.04508   0.29509   0.87291   0.00000  Uiso   1.00
O934   O     0.04508   0.29509   0.79375   0.00000  Uiso   1.00
O935   O     0.45491   0.20491   0.87291   0.00000  Uiso   1.00
O936   O     0.29508   0.45491   0.87291   0.00000  Uiso   1.00
C937   C     0.55941   0.19061   0.83321   0.00000  Uiso   1.00
C938   C     0.50923   0.28718   0.97551   0.00000  Uiso   1.00
C939   C     0.50883   0.28729   0.69174   0.00000  Uiso   1.00
C940   C     0.99148   0.21263   0.97492   0.00000  Uiso   1.00
C941   C     0.74077   0.46282   0.69115   0.00000  Uiso   1.00
C942   C     0.75844   0.03739   0.97549   0.00000  Uiso   1.00
C943   C     0.75852   0.03737   0.69174   0.00000  Uiso   1.00
C944   C     0.74117   0.46271   0.97492   0.00000  Uiso   1.00
C945   C     0.86602   0.16591   0.81362   0.00000  Uiso   1.00
C946   C     0.63279   0.33442   0.81145   0.00000  Uiso   1.00
C947   C     0.58480   0.38332   0.85538   0.00000  Uiso   1.00
C948   C     0.94036   0.30921   0.83346   0.00000  Uiso   1.00
C949   C     0.91609   0.11665   0.85313   0.00000  Uiso   1.00
C950   C     0.63133   0.16380   0.85937   0.00000  Uiso   1.00
C951   C     0.88421   0.35186   0.79159   0.00000  Uiso   1.00
C952   C     0.89691   0.36561   0.87542   0.00000  Uiso   1.00
C953   C     0.58665   0.11843   0.80698   0.00000  Uiso   1.00
C954   C     0.61721   0.41558   0.85522   0.00000  Uiso   1.00
C955   C     0.88397   0.08410   0.85305   0.00000  Uiso   1.00
C956   C     0.83391   0.13335   0.81353   0.00000  Uiso   1.00
C957   C     0.66520   0.36668   0.81129   0.00000  Uiso   1.00
C958   C     0.86579   0.39814   0.87508   0.00000  Uiso   1.00
C959   C     0.94038   0.19093   0.83327   0.00000  Uiso   1.00
C960   C     0.61867   0.08620   0.80730   0.00000  Uiso   1.00
C961   C     0.66334   0.13157   0.85969   0.00000  Uiso   1.00
C962   C     0.85309   0.38440   0.79125   0.00000  Uiso   1.00
C963   C     0.59278   0.34290   0.83352   0.00000  Uiso   1.00
C964   C     0.90700   0.15733   0.83323   0.00000  Uiso   1.00
C965   C     0.90665   0.34248   0.83360   0.00000  Uiso   1.00
C966   C     0.59300   0.15718   0.83305   0.00000  Uiso   1.00
C967   C     0.84300   0.09267   0.83344   0.00000  Uiso   1.00
C968   C     0.65722   0.40710   0.83314   0.00000  Uiso   1.00
C969   C     0.65699   0.09282   0.83362   0.00000  Uiso   1.00
C970   C     0.55918   0.30951   0.83342   0.00000  Uiso   1.00
C971   C     0.84335   0.40752   0.83307   0.00000  Uiso   1.00
C972   C     0.85616   0.20863   0.79542   0.00000  Uiso   1.00
C973   C     0.64103   0.29214   0.79018   0.00000  Uiso   1.00
C974   C     0.54286   0.39233   0.87647   0.00000  Uiso   1.00
C975   C     0.95873   0.10801   0.87266   0.00000  Uiso   1.00
C976   C     0.63854   0.20440   0.88479   0.00000  Uiso   1.00
C977   C     0.89165   0.32788   0.74803   0.00000  Uiso   1.00
C978   C     0.91843   0.35712   0.91974   0.00000  Uiso   1.00
C979   C     0.54655   0.11098   0.78119   0.00000  Uiso   1.00
C980   C     0.60897   0.45786   0.87649   0.00000  Uiso   1.00
C981   C     0.80964   0.44079   0.83320   0.00000  Uiso   1.00
C982   C     0.89383   0.04138   0.87127   0.00000  Uiso   1.00
C983   C     0.79127   0.14199   0.79400   0.00000  Uiso   1.00
C984   C     0.70714   0.35767   0.79020   0.00000  Uiso   1.00
C985   C     0.85834   0.42212   0.91863   0.00000  Uiso   1.00
C986   C     0.61146   0.04560   0.78187   0.00000  Uiso   1.00
C987   C     0.70345   0.13902   0.88547   0.00000  Uiso   1.00
C988   C     0.83158   0.39288   0.74692   0.00000  Uiso   1.00
C989   C     0.69059   0.05939   0.83345   0.00000  Uiso   1.00
C990   C     0.69082   0.44049   0.83325   0.00000  Uiso   1.00
C991   C     0.80962   0.05907   0.83340   0.00000  Uiso   1.00
C992   C     0.99155   0.21262   0.69117   0.00000  Uiso   1.00
Cu993  Cu    0.50000   0.25000   0.88022   0.00000  Uiso   1.00
Cu994  Cu    0.50000   0.25000   0.78645   0.00000  Uiso   1.00
Cu995  Cu    0.75000   0.00000   0.88022   0.00000  Uiso   1.00
Cu996  Cu    0.75000   0.00000   0.78645   0.00000  Uiso   1.00
H997   H     0.98489   0.18262   0.70955   0.00000  Uiso   1.00
H998   H     0.51673   0.31699   0.95715   0.00000  Uiso   1.00
H999   H     0.51562   0.31728   0.71057   0.00000  Uiso   1.00
H1000  H     0.98478   0.18262   0.95609   0.00000  Uiso   1.00
H1001  H     0.73328   0.43301   0.70952   0.00000  Uiso   1.00
H1002  H     0.76510   0.06738   0.95711   0.00000  Uiso   1.00
H1003  H     0.76521   0.06738   0.71058   0.00000  Uiso   1.00
H1004  H     0.73439   0.43271   0.95610   0.00000  Uiso   1.00
N1005  N     0.50000   0.25000   0.95069   0.00000  Uiso   1.00
N1006  N     0.89732   0.30895   0.71338   0.00000  Uiso   1.00
N1007  N     0.93499   0.35097   0.95538   0.00000  Uiso   1.00
N1008  N     0.51458   0.10501   0.76070   0.00000  Uiso   1.00
N1009  N     0.60243   0.49155   0.89340   0.00000  Uiso   1.00
N1010  N     0.90213   0.00738   0.88570   0.00000  Uiso   1.00
N1011  N     0.75732   0.14885   0.77843   0.00000  Uiso   1.00
N1012  N     0.74053   0.35023   0.77342   0.00000  Uiso   1.00
N1013  N     0.85268   0.44104   0.95329   0.00000  Uiso   1.00
N1014  N     0.60574   0.01323   0.76167   0.00000  Uiso   1.00
N1015  N     0.73542   0.14499   0.90596   0.00000  Uiso   1.00
N1016  N     0.50000   0.25000   0.71598   0.00000  Uiso   1.00
N1017  N     0.81502   0.39903   0.71128   0.00000  Uiso   1.00
N1018  N     0.75000   0.00000   0.95069   0.00000  Uiso   1.00
N1019  N     0.75000   0.00000   0.71598   0.00000  Uiso   1.00
N1020  N     0.84786   0.24263   0.78101   0.00000  Uiso   1.00
N1021  N     0.64757   0.25845   0.77327   0.00000  Uiso   1.00
N1022  N     0.50947   0.39978   0.89325   0.00000  Uiso   1.00
N1023  N     0.99268   0.10115   0.88823   0.00000  Uiso   1.00
N1024  N     0.64427   0.23677   0.90500   0.00000  Uiso   1.00
O1025  O     0.54508   0.20491   0.87291   0.00000  Uiso   1.00
O1026  O     0.70491   0.04509   0.79375   0.00000  Uiso   1.00
O1027  O     0.70491   0.04509   0.87291   0.00000  Uiso   1.00
O1028  O     0.79508   0.45491   0.79375   0.00000  Uiso   1.00
O1029  O     0.70491   0.45491   0.79375   0.00000  Uiso   1.00
O1030  O     0.79508   0.04509   0.87291   0.00000  Uiso   1.00
O1031  O     0.79508   0.04509   0.79375   0.00000  Uiso   1.00
O1032  O     0.70491   0.45491   0.87291   0.00000  Uiso   1.00
O1033  O     0.95491   0.29509   0.79375   0.00000  Uiso   1.00
O1034  O     0.95491   0.29509   0.87291   0.00000  Uiso   1.00
O1035  O     0.54508   0.20491   0.79375   0.00000  Uiso   1.00
O1036  O     0.95491   0.20491   0.79375   0.00000  Uiso   1.00
O1037  O     0.54508   0.29509   0.87291   0.00000  Uiso   1.00
O1038  O     0.54508   0.29509   0.79375   0.00000  Uiso   1.00
O1039  O     0.95491   0.20491   0.87291   0.00000  Uiso   1.00
O1040  O     0.79508   0.45491   0.87291   0.00000  Uiso   1.00
C1041  C     0.05941   0.69061   0.83321   0.00000  Uiso   1.00
C1042  C     0.00923   0.78718   0.97551   0.00000  Uiso   1.00
C1043  C     0.00883   0.78729   0.69174   0.00000  Uiso   1.00
C1044  C     0.49148   0.71263   0.97492   0.00000  Uiso   1.00
C1045  C     0.24077   0.96282   0.69115   0.00000  Uiso   1.00
C1046  C     0.25844   0.53739   0.97549   0.00000  Uiso   1.00
C1047  C     0.25852   0.53737   0.69174   0.00000  Uiso   1.00
C1048  C     0.24117   0.96271   0.97492   0.00000  Uiso   1.00
C1049  C     0.36602   0.66591   0.81362   0.00000  Uiso   1.00
C1050  C     0.13279   0.83442   0.81145   0.00000  Uiso   1.00
C1051  C     0.08480   0.88332   0.85538   0.00000  Uiso   1.00
C1052  C     0.44036   0.80921   0.83346   0.00000  Uiso   1.00
C1053  C     0.41609   0.61665   0.85313   0.00000  Uiso   1.00
C1054  C     0.13133   0.66380   0.85937   0.00000  Uiso   1.00
C1055  C     0.38421   0.85186   0.79159   0.00000  Uiso   1.00
C1056  C     0.39691   0.86561   0.87542   0.00000  Uiso   1.00
C1057  C     0.08665   0.61843   0.80698   0.00000  Uiso   1.00
C1058  C     0.11721   0.91558   0.85522   0.00000  Uiso   1.00
C1059  C     0.38397   0.58410   0.85305   0.00000  Uiso   1.00
C1060  C     0.33391   0.63335   0.81353   0.00000  Uiso   1.00
C1061  C     0.16520   0.86668   0.81129   0.00000  Uiso   1.00
C1062  C     0.36579   0.89814   0.87508   0.00000  Uiso   1.00
C1063  C     0.44038   0.69093   0.83327   0.00000  Uiso   1.00
C1064  C     0.11867   0.58620   0.80730   0.00000  Uiso   1.00
C1065  C     0.16334   0.63157   0.85969   0.00000  Uiso   1.00
C1066  C     0.35309   0.88440   0.79125   0.00000  Uiso   1.00
C1067  C     0.09278   0.84290   0.83352   0.00000  Uiso   1.00
C1068  C     0.40700   0.65733   0.83323   0.00000  Uiso   1.00
C1069  C     0.40665   0.84248   0.83360   0.00000  Uiso   1.00
C1070  C     0.09300   0.65718   0.83305   0.00000  Uiso   1.00
C1071  C     0.34300   0.59267   0.83344   0.00000  Uiso   1.00
C1072  C     0.15722   0.90710   0.83314   0.00000  Uiso   1.00
C1073  C     0.15699   0.59282   0.83362   0.00000  Uiso   1.00
C1074  C     0.05918   0.80951   0.83342   0.00000  Uiso   1.00
C1075  C     0.34335   0.90752   0.83307   0.00000  Uiso   1.00
C1076  C     0.35616   0.70863   0.79542   0.00000  Uiso   1.00
C1077  C     0.14103   0.79214   0.79018   0.00000  Uiso   1.00
C1078  C     0.04286   0.89233   0.87647   0.00000  Uiso   1.00
C1079  C     0.45873   0.60801   0.87266   0.00000  Uiso   1.00
C1080  C     0.13854   0.70440   0.88479   0.00000  Uiso   1.00
C1081  C     0.39165   0.82788   0.74803   0.00000  Uiso   1.00
C1082  C     0.41843   0.85712   0.91974   0.00000  Uiso   1.00
C1083  C     0.04655   0.61098   0.78119   0.00000  Uiso   1.00
C1084  C     0.10897   0.95786   0.87649   0.00000  Uiso   1.00
C1085  C     0.30964   0.94079   0.83320   0.00000  Uiso   1.00
C1086  C     0.39383   0.54138   0.87127   0.00000  Uiso   1.00
C1087  C     0.29127   0.64199   0.79400   0.00000  Uiso   1.00
C1088  C     0.20714   0.85767   0.79020   0.00000  Uiso   1.00
C1089  C     0.35834   0.92212   0.91863   0.00000  Uiso   1.00
C1090  C     0.11146   0.54560   0.78187   0.00000  Uiso   1.00
C1091  C     0.20345   0.63902   0.88547   0.00000  Uiso   1.00
C1092  C     0.33158   0.89288   0.74692   0.00000  Uiso   1.00
C1093  C     0.19059   0.55939   0.83345   0.00000  Uiso   1.00
C1094  C     0.19082   0.94049   0.83325   0.00000  Uiso   1.00
C1095  C     0.30962   0.55907   0.83340   0.00000  Uiso   1.00
C1096  C     0.49155   0.71262   0.69117   0.00000  Uiso   1.00
Cu1097 Cu    0.00000   0.75000   0.88022   0.00000  Uiso   1.00
Cu1098 Cu    0.00000   0.75000   0.78645   0.00000  Uiso   1.00
Cu1099 Cu    0.25000   0.50000   0.88022   0.00000  Uiso   1.00
Cu1100 Cu    0.25000   0.50000   0.78645   0.00000  Uiso   1.00
H1101  H     0.48489   0.68262   0.70955   0.00000  Uiso   1.00
H1102  H     0.01673   0.81699   0.95715   0.00000  Uiso   1.00
H1103  H     0.01562   0.81728   0.71057   0.00000  Uiso   1.00
H1104  H     0.48478   0.68262   0.95609   0.00000  Uiso   1.00
H1105  H     0.23328   0.93301   0.70952   0.00000  Uiso   1.00
H1106  H     0.26510   0.56738   0.95711   0.00000  Uiso   1.00
H1107  H     0.26521   0.56738   0.71058   0.00000  Uiso   1.00
H1108  H     0.23439   0.93271   0.95610   0.00000  Uiso   1.00
N1109  N    -0.00000   0.75000   0.95069   0.00000  Uiso   1.00
N1110  N     0.39732   0.80895   0.71338   0.00000  Uiso   1.00
N1111  N     0.43499   0.85097   0.95538   0.00000  Uiso   1.00
N1112  N     0.01458   0.60501   0.76070   0.00000  Uiso   1.00
N1113  N     0.10243   0.99155   0.89340   0.00000  Uiso   1.00
N1114  N     0.40213   0.50738   0.88570   0.00000  Uiso   1.00
N1115  N     0.25732   0.64885   0.77843   0.00000  Uiso   1.00
N1116  N     0.24053   0.85023   0.77342   0.00000  Uiso   1.00
N1117  N     0.35268   0.94104   0.95329   0.00000  Uiso   1.00
N1118  N     0.10574   0.51323   0.76167   0.00000  Uiso   1.00
N1119  N     0.23542   0.64499   0.90596   0.00000  Uiso   1.00
N1120  N     0.00000   0.75000   0.71598   0.00000  Uiso   1.00
N1121  N     0.31502   0.89903   0.71128   0.00000  Uiso   1.00
N1122  N     0.25000   0.50000   0.95069   0.00000  Uiso   1.00
N1123  N     0.25000   0.50000   0.71598   0.00000  Uiso   1.00
N1124  N     0.34786   0.74263   0.78101   0.00000  Uiso   1.00
N1125  N     0.14757   0.75845   0.77327   0.00000  Uiso   1.00
N1126  N     0.00947   0.89978   0.89325   0.00000  Uiso   1.00
N1127  N     0.49268   0.60115   0.88823   0.00000  Uiso   1.00
N1128  N     0.14427   0.73677   0.90500   0.00000  Uiso   1.00
O1129  O     0.04508   0.70491   0.87291   0.00000  Uiso   1.00
O1130  O     0.20491   0.54509   0.79375   0.00000  Uiso   1.00
O1131  O     0.20491   0.54509   0.87291   0.00000  Uiso   1.00
O1132  O     0.29508   0.95491   0.79375   0.00000  Uiso   1.00
O1133  O     0.20491   0.95491   0.79375   0.00000  Uiso   1.00
O1134  O     0.29508   0.54509   0.87291   0.00000  Uiso   1.00
O1135  O     0.29508   0.54509   0.79375   0.00000  Uiso   1.00
O1136  O     0.20491   0.95491   0.87291   0.00000  Uiso   1.00
O1137  O     0.45491   0.79509   0.79375   0.00000  Uiso   1.00
O1138  O     0.45491   0.79509   0.87291   0.00000  Uiso   1.00
O1139  O     0.04508   0.70491   0.79375   0.00000  Uiso   1.00
O1140  O     0.45491   0.70491   0.79375   0.00000  Uiso   1.00
O1141  O     0.04508   0.79509   0.87291   0.00000  Uiso   1.00
O1142  O     0.04508   0.79509   0.79375   0.00000  Uiso   1.00
O1143  O     0.45491   0.70491   0.87291   0.00000  Uiso   1.00
O1144  O     0.29508   0.95491   0.87291   0.00000  Uiso   1.00
C1145  C     0.55941   0.69061   0.83321   0.00000  Uiso   1.00
C1146  C     0.50923   0.78718   0.97551   0.00000  Uiso   1.00
C1147  C     0.50883   0.78729   0.69174   0.00000  Uiso   1.00
C1148  C     0.99148   0.71263   0.97492   0.00000  Uiso   1.00
C1149  C     0.74077   0.96282   0.69115   0.00000  Uiso   1.00
C1150  C     0.75844   0.53739   0.97549   0.00000  Uiso   1.00
C1151  C     0.75852   0.53737   0.69174   0.00000  Uiso   1.00
C1152  C     0.74117   0.96271   0.97492   0.00000  Uiso   1.00
C1153  C     0.86602   0.66591   0.81362   0.00000  Uiso   1.00
C1154  C     0.63279   0.83442   0.81145   0.00000  Uiso   1.00
C1155  C     0.58480   0.88332   0.85538   0.00000  Uiso   1.00
C1156  C     0.94036   0.80921   0.83346   0.00000  Uiso   1.00
C1157  C     0.91609   0.61665   0.85313   0.00000  Uiso   1.00
C1158  C     0.63133   0.66380   0.85937   0.00000  Uiso   1.00
C1159  C     0.88421   0.85186   0.79159   0.00000  Uiso   1.00
C1160  C     0.89691   0.86561   0.87542   0.00000  Uiso   1.00
C1161  C     0.58665   0.61843   0.80698   0.00000  Uiso   1.00
C1162  C     0.61721   0.91558   0.85522   0.00000  Uiso   1.00
C1163  C     0.88397   0.58410   0.85305   0.00000  Uiso   1.00
C1164  C     0.83391   0.63335   0.81353   0.00000  Uiso   1.00
C1165  C     0.66520   0.86668   0.81129   0.00000  Uiso   1.00
C1166  C     0.86579   0.89814   0.87508   0.00000  Uiso   1.00
C1167  C     0.94038   0.69093   0.83327   0.00000  Uiso   1.00
C1168  C     0.61867   0.58620   0.80730   0.00000  Uiso   1.00
C1169  C     0.66334   0.63157   0.85969   0.00000  Uiso   1.00
C1170  C     0.85309   0.88440   0.79125   0.00000  Uiso   1.00
C1171  C     0.59278   0.84290   0.83352   0.00000  Uiso   1.00
C1172  C     0.90700   0.65733   0.83323   0.00000  Uiso   1.00
C1173  C     0.90665   0.84248   0.83360   0.00000  Uiso   1.00
C1174  C     0.59300   0.65718   0.83305   0.00000  Uiso   1.00
C1175  C     0.84300   0.59267   0.83344   0.00000  Uiso   1.00
C1176  C     0.65722   0.90710   0.83314   0.00000  Uiso   1.00
C1177  C     0.65699   0.59282   0.83362   0.00000  Uiso   1.00
C1178  C     0.55918   0.80951   0.83342   0.00000  Uiso   1.00
C1179  C     0.84335   0.90752   0.83307   0.00000  Uiso   1.00
C1180  C     0.85616   0.70863   0.79542   0.00000  Uiso   1.00
C1181  C     0.64103   0.79214   0.79018   0.00000  Uiso   1.00
C1182  C     0.54286   0.89233   0.87647   0.00000  Uiso   1.00
C1183  C     0.95873   0.60801   0.87266   0.00000  Uiso   1.00
C1184  C     0.63854   0.70440   0.88479   0.00000  Uiso   1.00
C1185  C     0.89165   0.82788   0.74803   0.00000  Uiso   1.00
C1186  C     0.91843   0.85712   0.91974   0.00000  Uiso   1.00
C1187  C     0.54655   0.61098   0.78119   0.00000  Uiso   1.00
C1188  C     0.60897   0.95786   0.87649   0.00000  Uiso   1.00
C1189  C     0.80964   0.94079   0.83320   0.00000  Uiso   1.00
C1190  C     0.89383   0.54138   0.87127   0.00000  Uiso   1.00
C1191  C     0.79127   0.64199   0.79400   0.00000  Uiso   1.00
C1192  C     0.70714   0.85767   0.79020   0.00000  Uiso   1.00
C1193  C     0.85834   0.92212   0.91863   0.00000  Uiso   1.00
C1194  C     0.61146   0.54560   0.78187   0.00000  Uiso   1.00
C1195  C     0.70345   0.63902   0.88547   0.00000  Uiso   1.00
C1196  C     0.83158   0.89288   0.74692   0.00000  Uiso   1.00
C1197  C     0.69059   0.55939   0.83345   0.00000  Uiso   1.00
C1198  C     0.69082   0.94049   0.83325   0.00000  Uiso   1.00
C1199  C     0.80962   0.55907   0.83340   0.00000  Uiso   1.00
C1200  C     0.99155   0.71262   0.69117   0.00000  Uiso   1.00
Cu1201 Cu    0.50000   0.75000   0.88022   0.00000  Uiso   1.00
Cu1202 Cu    0.50000   0.75000   0.78645   0.00000  Uiso   1.00
Cu1203 Cu    0.75000   0.50000   0.88022   0.00000  Uiso   1.00
Cu1204 Cu    0.75000   0.50000   0.78645   0.00000  Uiso   1.00
H1205  H     0.98489   0.68262   0.70955   0.00000  Uiso   1.00
H1206  H     0.51673   0.81699   0.95715   0.00000  Uiso   1.00
H1207  H     0.51562   0.81728   0.71057   0.00000  Uiso   1.00
H1208  H     0.98478   0.68262   0.95609   0.00000  Uiso   1.00
H1209  H     0.73328   0.93301   0.70952   0.00000  Uiso   1.00
H1210  H     0.76510   0.56738   0.95711   0.00000  Uiso   1.00
H1211  H     0.76521   0.56738   0.71058   0.00000  Uiso   1.00
H1212  H     0.73439   0.93271   0.95610   0.00000  Uiso   1.00
N1213  N     0.50000   0.75000   0.95069   0.00000  Uiso   1.00
N1214  N     0.89732   0.80895   0.71338   0.00000  Uiso   1.00
N1215  N     0.93499   0.85097   0.95538   0.00000  Uiso   1.00
N1216  N     0.51458   0.60501   0.76070   0.00000  Uiso   1.00
N1217  N     0.60243   0.99155   0.89340   0.00000  Uiso   1.00
N1218  N     0.90213   0.50738   0.88570   0.00000  Uiso   1.00
N1219  N     0.75732   0.64885   0.77843   0.00000  Uiso   1.00
N1220  N     0.74053   0.85023   0.77342   0.00000  Uiso   1.00
N1221  N     0.85268   0.94104   0.95329   0.00000  Uiso   1.00
N1222  N     0.60574   0.51323   0.76167   0.00000  Uiso   1.00
N1223  N     0.73542   0.64499   0.90596   0.00000  Uiso   1.00
N1224  N     0.50000   0.75000   0.71598   0.00000  Uiso   1.00
N1225  N     0.81502   0.89903   0.71128   0.00000  Uiso   1.00
N1226  N     0.75000   0.50000   0.95069   0.00000  Uiso   1.00
N1227  N     0.75000   0.50000   0.71598   0.00000  Uiso   1.00
N1228  N     0.84786   0.74263   0.78101   0.00000  Uiso   1.00
N1229  N     0.64757   0.75845   0.77327   0.00000  Uiso   1.00
N1230  N     0.50947   0.89978   0.89325   0.00000  Uiso   1.00
N1231  N     0.99268   0.60115   0.88823   0.00000  Uiso   1.00
N1232  N     0.64427   0.73677   0.90500   0.00000  Uiso   1.00
O1233  O     0.54508   0.70491   0.87291   0.00000  Uiso   1.00
O1234  O     0.70491   0.54509   0.79375   0.00000  Uiso   1.00
O1235  O     0.70491   0.54509   0.87291   0.00000  Uiso   1.00
O1236  O     0.79508   0.95491   0.79375   0.00000  Uiso   1.00
O1237  O     0.70491   0.95491   0.79375   0.00000  Uiso   1.00
O1238  O     0.79508   0.54509   0.87291   0.00000  Uiso   1.00
O1239  O     0.79508   0.54509   0.79375   0.00000  Uiso   1.00
O1240  O     0.70491   0.95491   0.87291   0.00000  Uiso   1.00
O1241  O     0.95491   0.79509   0.79375   0.00000  Uiso   1.00
O1242  O     0.95491   0.79509   0.87291   0.00000  Uiso   1.00
O1243  O     0.54508   0.70491   0.79375   0.00000  Uiso   1.00
O1244  O     0.95491   0.70491   0.79375   0.00000  Uiso   1.00
O1245  O     0.54508   0.79509   0.87291   0.00000  Uiso   1.00
O1246  O     0.54508   0.79509   0.79375   0.00000  Uiso   1.00
O1247  O     0.95491   0.70491   0.87291   0.00000  Uiso   1.00
O1248  O     0.79508   0.95491   0.87291   0.00000  Uiso   1.00
loop_
_geom_bond_atom_site_label_1
_geom_bond_atom_site_label_2
_geom_bond_distance
_geom_bond_site_symmetry_2
_ccdc_geom_bond_type
C1     O99     1.292   .     A
C1     C30     1.464   .     S
C1     O89     1.291   .     A
C2     H62     1.081   .     S
C2     C419    1.416   .     S
C2     N69     1.367   .     S
C3     N80     1.367   .     A
C3     H63     1.081   .     S
C3     C834    1.416   1_554 S
C4     N173    1.367   .     A
C4     H64     1.081   .     S
C4     C472    1.416   .     S
C5     H65     1.081   .     S
C5     C840    1.416   1_554 S
C5     N291    1.367   .     S
C6     N82     1.367   .     A
C6     H66     1.081   .     S
C6     C423    1.416   .     S
C7     N83     1.367   .     A
C7     H67     1.081   .     S
C7     C838    1.416   1_554 S
C8     H68     1.081   .     S
C8     C421    1.416   .     S
C8     N290    1.367   .     S
C9     C36     1.450   .     S
C9     C20     1.398   .     A
C9     C28     1.408   .     A
C10    C27     1.408   .     A
C10    C37     1.454   .     S
C10    C21     1.398   .     A
C11    C18     1.398   .     A
C11    C38     1.451   .     S
C11    C27     1.408   .     A
C12    C29     1.463   .     S
C12    O97     1.292   .     A
C12    O98     1.293   .     A
C13    C28     1.407   .     A
C13    C19     1.398   .     A
C13    C39     1.454   .     S
C14    C30     1.411   .     A
C14    C25     1.403   .     A
C14    C40     1.453   .     S
C15    C29     1.418   .     A
C15    C41     1.460   .     S
C15    C26     1.391   .     A
C16    C29     1.418   .     A
C16    C42     1.456   .     S
C16    C22     1.391   .     A
C17    C30     1.411   .     A
C17    C24     1.403   .     A
C17    C43     1.453   .     S
C18    C44     1.453   .     S
C18    C32     1.408   .     A
C19    C31     1.408   .     A
C19    C46     1.450   .     S
C20    C47     1.454   .     S
C20    C31     1.407   .     A
C21    C48     1.451   .     S
C21    C32     1.408   .     A
C22    C35     1.418   .     A
C22    C49     1.460   .     S
C23    O103    1.287   .     A
C23    O100    1.288   .     A
C23    C28     1.448   .     S
C24    C50     1.453   .     S
C24    C33     1.411   .     A
C25    C51     1.453   .     S
C25    C33     1.411   .     A
C26    C52     1.456   .     S
C26    C35     1.418   .     A
C27    C34     1.448   .     S
C31    C55     1.448   .     S
C32    C54     1.448   .     S
C33    C53     1.464   .     S
C34    O102    1.287   .     A
C34    O101    1.288   .     A
C35    C45     1.463   .     S
C36    N84     1.156   .     T
C37    N85     1.157   .     T
C38    N86     1.157   .     T
C39    N87     1.157   .     T
C40    N88     1.157   .     T
C41    N70     1.158   .     T
C42    N71     1.157   .     T
C43    N72     1.157   .     T
C44    N73     1.157   .     T
C45    O92     1.293   .     A
C45    O104    1.292   .     A
C46    N74     1.156   .     T
C47    N75     1.157   .     T
C48    N76     1.157   .     T
C49    N77     1.158   .     T
C50    N78     1.157   .     T
C51    N79     1.157   .     T
C52    N81     1.157   .     T
C53    O91     1.292   .     A
C53    O90     1.291   .     A
C54    O93     1.288   .     A
C54    O96     1.287   .     A
C55    O94     1.288   .     A
C55    O95     1.287   .     A
C56    H61     1.081   .     S
C56    C836    1.416   1_554 S
C56    N184    1.367   .     S
Cu57   O89     1.979   .     S
Cu57   O101    1.961   .     S
Cu57   Cu58    2.678   .     S
Cu57   N69     2.013   .     S
Cu57   O202    1.982   1_455 S
Cu57   O207    1.959   1_455 S
Cu58   O102    1.959   .     S
Cu58   N80     2.013   .     S
Cu58   O99     1.982   .     S
Cu58   O201    1.979   1_455 S
Cu58   O204    1.961   1_455 S
Cu59   O312    1.979   1_545 S
Cu59   O304    1.959   1_545 S
Cu59   Cu60    2.678   .     S
Cu59   N82     2.013   .     S
Cu59   O91     1.982   .     S
Cu59   O94     1.961   .     S
Cu60   N83     2.013   .     S
Cu60   O90     1.979   .     S
Cu60   O95     1.959   .     S
Cu60   O300    1.982   1_545 S
Cu60   O301    1.961   1_545 S
N69    C108    1.367   1_455 A
N80    C160    1.367   1_455 S
N82    C216    1.367   1_545 S
N83    C213    1.367   1_545 S
O92    Cu268   1.982   .     S
O93    Cu268   1.961   .     S
O96    Cu267   1.959   .     S
O97    Cu162   1.979   .     S
O98    Cu161   1.982   .     S
O100   Cu162   1.961   .     S
O103   Cu161   1.959   .     S
O104   Cu267   1.979   .     S
C105   O203    1.292   .     A
C105   C134    1.464   .     S
C105   O193    1.291   .     A
C106   H166    1.081   .     S
C106   C523    1.416   .     S
C106   N173    1.367   .     S
C107   N184    1.367   .     A
C107   H167    1.081   .     S
C107   C938    1.416   1_554 S
C108   N69     1.367   1_655 A
C108   H168    1.081   .     S
C108   C576    1.416   .     S
C109   H169    1.081   .     S
C109   C944    1.416   1_554 S
C109   N395    1.367   .     S
C110   N186    1.367   .     A
C110   H170    1.081   .     S
C110   C527    1.416   .     S
C111   N187    1.367   .     A
C111   H171    1.081   .     S
C111   C942    1.416   1_554 S
C112   H172    1.081   .     S
C112   C525    1.416   .     S
C112   N394    1.367   .     S
C113   C140    1.450   .     S
C113   C124    1.398   .     A
C113   C132    1.408   .     A
C114   C131    1.408   .     A
C114   C141    1.454   .     S
C114   C125    1.398   .     A
C115   C122    1.398   .     A
C115   C142    1.451   .     S
C115   C131    1.408   .     A
C116   C133    1.463   .     S
C116   O201    1.292   .     A
C116   O202    1.293   .     A
C117   C132    1.407   .     A
C117   C123    1.398   .     A
C117   C143    1.454   .     S
C118   C134    1.411   .     A
C118   C129    1.403   .     A
C118   C144    1.453   .     S
C119   C133    1.418   .     A
C119   C145    1.460   .     S
C119   C130    1.391   .     A
C120   C133    1.418   .     A
C120   C146    1.456   .     S
C120   C126    1.391   .     A
C121   C134    1.411   .     A
C121   C128    1.403   .     A
C121   C147    1.453   .     S
C122   C148    1.453   .     S
C122   C136    1.408   .     A
C123   C135    1.408   .     A
C123   C150    1.450   .     S
C124   C151    1.454   .     S
C124   C135    1.407   .     A
C125   C152    1.451   .     S
C125   C136    1.408   .     A
C126   C139    1.418   .     A
C126   C153    1.460   .     S
C127   O207    1.287   .     A
C127   O204    1.288   .     A
C127   C132    1.448   .     S
C128   C154    1.453   .     S
C128   C137    1.411   .     A
C129   C155    1.453   .     S
C129   C137    1.411   .     A
C130   C156    1.456   .     S
C130   C139    1.418   .     A
C131   C138    1.448   .     S
C135   C159    1.448   .     S
C136   C158    1.448   .     S
C137   C157    1.464   .     S
C138   O206    1.287   .     A
C138   O205    1.288   .     A
C139   C149    1.463   .     S
C140   N188    1.156   .     T
C141   N189    1.157   .     T
C142   N190    1.157   .     T
C143   N191    1.157   .     T
C144   N192    1.157   .     T
C145   N174    1.158   .     T
C146   N175    1.157   .     T
C147   N176    1.157   .     T
C148   N177    1.157   .     T
C149   O196    1.293   .     A
C149   O208    1.292   .     A
C150   N178    1.156   .     T
C151   N179    1.157   .     T
C152   N180    1.157   .     T
C153   N181    1.158   .     T
C154   N182    1.157   .     T
C155   N183    1.157   .     T
C156   N185    1.157   .     T
C157   O195    1.292   .     A
C157   O194    1.291   .     A
C158   O197    1.288   .     A
C158   O200    1.287   .     A
C159   O198    1.288   .     A
C159   O199    1.287   .     A
C160   H165    1.081   .     S
C160   C940    1.416   1_554 S
C160   N80     1.367   1_655 S
Cu161  O193    1.979   .     S
Cu161  O205    1.961   .     S
Cu161  Cu162   2.678   .     S
Cu161  N173    2.013   .     S
Cu162  O206    1.959   .     S
Cu162  N184    2.013   .     S
Cu162  O203    1.982   .     S
Cu163  O416    1.979   1_545 S
Cu163  O408    1.959   1_545 S
Cu163  Cu164   2.678   .     S
Cu163  N186    2.013   .     S
Cu163  O195    1.982   .     S
Cu163  O198    1.961   .     S
Cu164  N187    2.013   .     S
Cu164  O194    1.979   .     S
Cu164  O199    1.959   .     S
Cu164  O404    1.982   1_545 S
Cu164  O405    1.961   1_545 S
N186   C320    1.367   1_545 S
N187   C317    1.367   1_545 S
O196   Cu372   1.982   .     S
O197   Cu372   1.961   .     S
O200   Cu371   1.959   .     S
O201   Cu58    1.979   1_655 S
O202   Cu57    1.982   1_655 S
O204   Cu58    1.961   1_655 S
O207   Cu57    1.959   1_655 S
O208   Cu371   1.979   .     S
C209   O307    1.292   .     A
C209   C238    1.464   .     S
C209   O297    1.291   .     A
C210   H270    1.081   .     S
C210   C627    1.416   .     S
C210   N277    1.367   .     S
C211   N288    1.367   .     A
C211   H271    1.081   .     S
C211   C1042   1.416   1_554 S
C212   N381    1.367   .     A
C212   H272    1.081   .     S
C212   C680    1.416   .     S
C213   H273    1.081   .     S
C213   C1048   1.416   1_554 S
C213   N83     1.367   1_565 S
C214   N290    1.367   .     A
C214   H274    1.081   .     S
C214   C631    1.416   .     S
C215   N291    1.367   .     A
C215   H275    1.081   .     S
C215   C1046   1.416   1_554 S
C216   H276    1.081   .     S
C216   C629    1.416   .     S
C216   N82     1.367   1_565 S
C217   C244    1.450   .     S
C217   C228    1.398   .     A
C217   C236    1.408   .     A
C218   C235    1.408   .     A
C218   C245    1.454   .     S
C218   C229    1.398   .     A
C219   C226    1.398   .     A
C219   C246    1.451   .     S
C219   C235    1.408   .     A
C220   C237    1.463   .     S
C220   O305    1.292   .     A
C220   O306    1.293   .     A
C221   C236    1.407   .     A
C221   C227    1.398   .     A
C221   C247    1.454   .     S
C222   C238    1.411   .     A
C222   C233    1.403   .     A
C222   C248    1.453   .     S
C223   C237    1.418   .     A
C223   C249    1.460   .     S
C223   C234    1.391   .     A
C224   C237    1.418   .     A
C224   C250    1.456   .     S
C224   C230    1.391   .     A
C225   C238    1.411   .     A
C225   C232    1.403   .     A
C225   C251    1.453   .     S
C226   C252    1.453   .     S
C226   C240    1.408   .     A
C227   C239    1.408   .     A
C227   C254    1.450   .     S
C228   C255    1.454   .     S
C228   C239    1.407   .     A
C229   C256    1.451   .     S
C229   C240    1.408   .     A
C230   C243    1.418   .     A
C230   C257    1.460   .     S
C231   O311    1.287   .     A
C231   O308    1.288   .     A
C231   C236    1.448   .     S
C232   C258    1.453   .     S
C232   C241    1.411   .     A
C233   C259    1.453   .     S
C233   C241    1.411   .     A
C234   C260    1.456   .     S
C234   C243    1.418   .     A
C235   C242    1.448   .     S
C239   C263    1.448   .     S
C240   C262    1.448   .     S
C241   C261    1.464   .     S
C242   O310    1.287   .     A
C242   O309    1.288   .     A
C243   C253    1.463   .     S
C244   N292    1.156   .     T
C245   N293    1.157   .     T
C246   N294    1.157   .     T
C247   N295    1.157   .     T
C248   N296    1.157   .     T
C249   N278    1.158   .     T
C250   N279    1.157   .     T
C251   N280    1.157   .     T
C252   N281    1.157   .     T
C253   O300    1.293   .     A
C253   O312    1.292   .     A
C254   N282    1.156   .     T
C255   N283    1.157   .     T
C256   N284    1.157   .     T
C257   N285    1.158   .     T
C258   N286    1.157   .     T
C259   N287    1.157   .     T
C260   N289    1.157   .     T
C261   O299    1.292   .     A
C261   O298    1.291   .     A
C262   O301    1.288   .     A
C262   O304    1.287   .     A
C263   O302    1.288   .     A
C263   O303    1.287   .     A
C264   H269    1.081   .     S
C264   C1044   1.416   1_554 S
C264   N392    1.367   .     S
Cu265  O297    1.979   .     S
Cu265  O309    1.961   .     S
Cu265  Cu266   2.678   .     S
Cu265  N277    2.013   .     S
Cu265  O410    1.982   1_455 S
Cu265  O415    1.959   1_455 S
Cu266  O310    1.959   .     S
Cu266  N288    2.013   .     S
Cu266  O307    1.982   .     S
Cu266  O409    1.979   1_455 S
Cu266  O412    1.961   1_455 S
Cu267  Cu268   2.678   .     S
Cu267  N290    2.013   .     S
Cu267  O299    1.982   .     S
Cu267  O302    1.961   .     S
Cu268  N291    2.013   .     S
Cu268  O298    1.979   .     S
Cu268  O303    1.959   .     S
N277   C316    1.367   1_455 A
N288   C368    1.367   1_455 S
O300   Cu60    1.982   1_565 S
O301   Cu60    1.961   1_565 S
O304   Cu59    1.959   1_565 S
O305   Cu370   1.979   .     S
O306   Cu369   1.982   .     S
O308   Cu370   1.961   .     S
O311   Cu369   1.959   .     S
O312   Cu59    1.979   1_565 S
C313   O411    1.292   .     A
C313   C342    1.464   .     S
C313   O401    1.291   .     A
C314   H374    1.081   .     S
C314   C731    1.416   .     S
C314   N381    1.367   .     S
C315   N392    1.367   .     A
C315   H375    1.081   .     S
C315   C1146   1.416   1_554 S
C316   N277    1.367   1_655 A
C316   H376    1.081   .     S
C316   C784    1.416   .     S
C317   H377    1.081   .     S
C317   C1152   1.416   1_554 S
C317   N187    1.367   1_565 S
C318   N394    1.367   .     A
C318   H378    1.081   .     S
C318   C735    1.416   .     S
C319   N395    1.367   .     A
C319   H379    1.081   .     S
C319   C1150   1.416   1_554 S
C320   H380    1.081   .     S
C320   C733    1.416   .     S
C320   N186    1.367   1_565 S
C321   C348    1.450   .     S
C321   C332    1.398   .     A
C321   C340    1.408   .     A
C322   C339    1.408   .     A
C322   C349    1.454   .     S
C322   C333    1.398   .     A
C323   C330    1.398   .     A
C323   C350    1.451   .     S
C323   C339    1.408   .     A
C324   C341    1.463   .     S
C324   O409    1.292   .     A
C324   O410    1.293   .     A
C325   C340    1.407   .     A
C325   C331    1.398   .     A
C325   C351    1.454   .     S
C326   C342    1.411   .     A
C326   C337    1.403   .     A
C326   C352    1.453   .     S
C327   C341    1.418   .     A
C327   C353    1.460   .     S
C327   C338    1.391   .     A
C328   C341    1.418   .     A
C328   C354    1.456   .     S
C328   C334    1.391   .     A
C329   C342    1.411   .     A
C329   C336    1.403   .     A
C329   C355    1.453   .     S
C330   C356    1.453   .     S
C330   C344    1.408   .     A
C331   C343    1.408   .     A
C331   C358    1.450   .     S
C332   C359    1.454   .     S
C332   C343    1.407   .     A
C333   C360    1.451   .     S
C333   C344    1.408   .     A
C334   C347    1.418   .     A
C334   C361    1.460   .     S
C335   O415    1.287   .     A
C335   O412    1.288   .     A
C335   C340    1.448   .     S
C336   C362    1.453   .     S
C336   C345    1.411   .     A
C337   C363    1.453   .     S
C337   C345    1.411   .     A
C338   C364    1.456   .     S
C338   C347    1.418   .     A
C339   C346    1.448   .     S
C343   C367    1.448   .     S
C344   C366    1.448   .     S
C345   C365    1.464   .     S
C346   O414    1.287   .     A
C346   O413    1.288   .     A
C347   C357    1.463   .     S
C348   N396    1.156   .     T
C349   N397    1.157   .     T
C350   N398    1.157   .     T
C351   N399    1.157   .     T
C352   N400    1.157   .     T
C353   N382    1.158   .     T
C354   N383    1.157   .     T
C355   N384    1.157   .     T
C356   N385    1.157   .     T
C357   O404    1.293   .     A
C357   O416    1.292   .     A
C358   N386    1.156   .     T
C359   N387    1.157   .     T
C360   N388    1.157   .     T
C361   N389    1.158   .     T
C362   N390    1.157   .     T
C363   N391    1.157   .     T
C364   N393    1.157   .     T
C365   O403    1.292   .     A
C365   O402    1.291   .     A
C366   O405    1.288   .     A
C366   O408    1.287   .     A
C367   O406    1.288   .     A
C367   O407    1.287   .     A
C368   H373    1.081   .     S
C368   C1148   1.416   1_554 S
C368   N288    1.367   1_655 S
Cu369  O401    1.979   .     S
Cu369  O413    1.961   .     S
Cu369  Cu370   2.678   .     S
Cu369  N381    2.013   .     S
Cu370  O414    1.959   .     S
Cu370  N392    2.013   .     S
Cu370  O411    1.982   .     S
Cu371  Cu372   2.678   .     S
Cu371  N394    2.013   .     S
Cu371  O403    1.982   .     S
Cu371  O406    1.961   .     S
Cu372  N395    2.013   .     S
Cu372  O402    1.979   .     S
Cu372  O407    1.959   .     S
O404   Cu164   1.982   1_565 S
O405   Cu164   1.961   1_565 S
O408   Cu163   1.959   1_565 S
O409   Cu266   1.979   1_655 S
O410   Cu265   1.982   1_655 S
O412   Cu266   1.961   1_655 S
O415   Cu265   1.959   1_655 S
O416   Cu163   1.979   1_565 S
C417   O515    1.292   .     A
C417   C446    1.464   .     S
C417   O505    1.291   .     A
C418   H478    1.081   .     S
C418   C835    1.416   .     S
C418   N485    1.367   .     S
C419   N496    1.367   .     A
C419   H479    1.081   .     S
C420   N589    1.367   .     A
C420   H480    1.081   .     S
C420   C888    1.416   .     S
C421   H481    1.081   .     S
C421   N707    1.367   .     S
C422   N498    1.367   .     A
C422   H482    1.081   .     S
C422   C839    1.416   .     S
C423   N499    1.367   .     A
C423   H483    1.081   .     S
C424   H484    1.081   .     S
C424   C837    1.416   .     S
C424   N706    1.367   .     S
C425   C452    1.450   .     S
C425   C436    1.398   .     A
C425   C444    1.408   .     A
C426   C443    1.408   .     A
C426   C453    1.454   .     S
C426   C437    1.398   .     A
C427   C434    1.398   .     A
C427   C454    1.451   .     S
C427   C443    1.408   .     A
C428   C445    1.463   .     S
C428   O513    1.292   .     A
C428   O514    1.293   .     A
C429   C444    1.407   .     A
C429   C435    1.398   .     A
C429   C455    1.454   .     S
C430   C446    1.411   .     A
C430   C441    1.403   .     A
C430   C456    1.453   .     S
C431   C445    1.418   .     A
C431   C457    1.460   .     S
C431   C442    1.391   .     A
C432   C445    1.418   .     A
C432   C458    1.456   .     S
C432   C438    1.391   .     A
C433   C446    1.411   .     A
C433   C440    1.403   .     A
C433   C459    1.453   .     S
C434   C460    1.453   .     S
C434   C448    1.408   .     A
C435   C447    1.408   .     A
C435   C462    1.450   .     S
C436   C463    1.454   .     S
C436   C447    1.407   .     A
C437   C464    1.451   .     S
C437   C448    1.408   .     A
C438   C451    1.418   .     A
C438   C465    1.460   .     S
C439   O519    1.287   .     A
C439   O516    1.288   .     A
C439   C444    1.448   .     S
C440   C466    1.453   .     S
C440   C449    1.411   .     A
C441   C467    1.453   .     S
C441   C449    1.411   .     A
C442   C468    1.456   .     S
C442   C451    1.418   .     A
C443   C450    1.448   .     S
C447   C471    1.448   .     S
C448   C470    1.448   .     S
C449   C469    1.464   .     S
C450   O518    1.287   .     A
C450   O517    1.288   .     A
C451   C461    1.463   .     S
C452   N500    1.156   .     T
C453   N501    1.157   .     T
C454   N502    1.157   .     T
C455   N503    1.157   .     T
C456   N504    1.157   .     T
C457   N486    1.158   .     T
C458   N487    1.157   .     T
C459   N488    1.157   .     T
C460   N489    1.157   .     T
C461   O508    1.293   .     A
C461   O520    1.292   .     A
C462   N490    1.156   .     T
C463   N491    1.157   .     T
C464   N492    1.157   .     T
C465   N493    1.158   .     T
C466   N494    1.157   .     T
C467   N495    1.157   .     T
C468   N497    1.157   .     T
C469   O507    1.292   .     A
C469   O506    1.291   .     A
C470   O509    1.288   .     A
C470   O512    1.287   .     A
C471   O510    1.288   .     A
C471   O511    1.287   .     A
C472   H477    1.081   .     S
C472   N600    1.367   .     S
Cu473  O505    1.979   .     S
Cu473  O517    1.961   .     S
Cu473  Cu474   2.678   .     S
Cu473  N485    2.013   .     S
Cu473  O618    1.982   1_455 S
Cu473  O623    1.959   1_455 S
Cu474  O518    1.959   .     S
Cu474  N496    2.013   .     S
Cu474  O515    1.982   .     S
Cu474  O617    1.979   1_455 S
Cu474  O620    1.961   1_455 S
Cu475  O728    1.979   1_545 S
Cu475  O720    1.959   1_545 S
Cu475  Cu476   2.678   .     S
Cu475  N498    2.013   .     S
Cu475  O507    1.982   .     S
Cu475  O510    1.961   .     S
Cu476  N499    2.013   .     S
Cu476  O506    1.979   .     S
Cu476  O511    1.959   .     S
Cu476  O716    1.982   1_545 S
Cu476  O717    1.961   1_545 S
N485   C524    1.367   1_455 A
N496   C576    1.367   1_455 S
N498   C632    1.367   1_545 S
N499   C629    1.367   1_545 S
O508   Cu684   1.982   .     S
O509   Cu684   1.961   .     S
O512   Cu683   1.959   .     S
O513   Cu578   1.979   .     S
O514   Cu577   1.982   .     S
O516   Cu578   1.961   .     S
O519   Cu577   1.959   .     S
O520   Cu683   1.979   .     S
C521   O619    1.292   .     A
C521   C550    1.464   .     S
C521   O609    1.291   .     A
C522   H582    1.081   .     S
C522   C939    1.416   .     S
C522   N589    1.367   .     S
C523   N600    1.367   .     A
C523   H583    1.081   .     S
C524   N485    1.367   1_655 A
C524   H584    1.081   .     S
C524   C992    1.416   .     S
C525   H585    1.081   .     S
C525   N811    1.367   .     S
C526   N602    1.367   .     A
C526   H586    1.081   .     S
C526   C943    1.416   .     S
C527   N603    1.367   .     A
C527   H587    1.081   .     S
C528   H588    1.081   .     S
C528   C941    1.416   .     S
C528   N810    1.367   .     S
C529   C556    1.450   .     S
C529   C540    1.398   .     A
C529   C548    1.408   .     A
C530   C547    1.408   .     A
C530   C557    1.454   .     S
C530   C541    1.398   .     A
C531   C538    1.398   .     A
C531   C558    1.451   .     S
C531   C547    1.408   .     A
C532   C549    1.463   .     S
C532   O617    1.292   .     A
C532   O618    1.293   .     A
C533   C548    1.407   .     A
C533   C539    1.398   .     A
C533   C559    1.454   .     S
C534   C550    1.411   .     A
C534   C545    1.403   .     A
C534   C560    1.453   .     S
C535   C549    1.418   .     A
C535   C561    1.460   .     S
C535   C546    1.391   .     A
C536   C549    1.418   .     A
C536   C562    1.456   .     S
C536   C542    1.391   .     A
C537   C550    1.411   .     A
C537   C544    1.403   .     A
C537   C563    1.453   .     S
C538   C564    1.453   .     S
C538   C552    1.408   .     A
C539   C551    1.408   .     A
C539   C566    1.450   .     S
C540   C567    1.454   .     S
C540   C551    1.407   .     A
C541   C568    1.451   .     S
C541   C552    1.408   .     A
C542   C555    1.418   .     A
C542   C569    1.460   .     S
C543   O623    1.287   .     A
C543   O620    1.288   .     A
C543   C548    1.448   .     S
C544   C570    1.453   .     S
C544   C553    1.411   .     A
C545   C571    1.453   .     S
C545   C553    1.411   .     A
C546   C572    1.456   .     S
C546   C555    1.418   .     A
C547   C554    1.448   .     S
C551   C575    1.448   .     S
C552   C574    1.448   .     S
C553   C573    1.464   .     S
C554   O622    1.287   .     A
C554   O621    1.288   .     A
C555   C565    1.463   .     S
C556   N604    1.156   .     T
C557   N605    1.157   .     T
C558   N606    1.157   .     T
C559   N607    1.157   .     T
C560   N608    1.157   .     T
C561   N590    1.158   .     T
C562   N591    1.157   .     T
C563   N592    1.157   .     T
C564   N593    1.157   .     T
C565   O612    1.293   .     A
C565   O624    1.292   .     A
C566   N594    1.156   .     T
C567   N595    1.157   .     T
C568   N596    1.157   .     T
C569   N597    1.158   .     T
C570   N598    1.157   .     T
C571   N599    1.157   .     T
C572   N601    1.157   .     T
C573   O611    1.292   .     A
C573   O610    1.291   .     A
C574   O613    1.288   .     A
C574   O616    1.287   .     A
C575   O614    1.288   .     A
C575   O615    1.287   .     A
C576   H581    1.081   .     S
C576   N496    1.367   1_655 S
Cu577  O609    1.979   .     S
Cu577  O621    1.961   .     S
Cu577  Cu578   2.678   .     S
Cu577  N589    2.013   .     S
Cu578  O622    1.959   .     S
Cu578  N600    2.013   .     S
Cu578  O619    1.982   .     S
Cu579  O832    1.979   1_545 S
Cu579  O824    1.959   1_545 S
Cu579  Cu580   2.678   .     S
Cu579  N602    2.013   .     S
Cu579  O611    1.982   .     S
Cu579  O614    1.961   .     S
Cu580  N603    2.013   .     S
Cu580  O610    1.979   .     S
Cu580  O615    1.959   .     S
Cu580  O820    1.982   1_545 S
Cu580  O821    1.961   1_545 S
N602   C736    1.367   1_545 S
N603   C733    1.367   1_545 S
O612   Cu788   1.982   .     S
O613   Cu788   1.961   .     S
O616   Cu787   1.959   .     S
O617   Cu474   1.979   1_655 S
O618   Cu473   1.982   1_655 S
O620   Cu474   1.961   1_655 S
O623   Cu473   1.959   1_655 S
O624   Cu787   1.979   .     S
C625   O723    1.292   .     A
C625   C654    1.464   .     S
C625   O713    1.291   .     A
C626   H686    1.081   .     S
C626   C1043   1.416   .     S
C626   N693    1.367   .     S
C627   N704    1.367   .     A
C627   H687    1.081   .     S
C628   N797    1.367   .     A
C628   H688    1.081   .     S
C628   C1096   1.416   .     S
C629   H689    1.081   .     S
C629   N499    1.367   1_565 S
C630   N706    1.367   .     A
C630   H690    1.081   .     S
C630   C1047   1.416   .     S
C631   N707    1.367   .     A
C631   H691    1.081   .     S
C632   H692    1.081   .     S
C632   C1045   1.416   .     S
C632   N498    1.367   1_565 S
C633   C660    1.450   .     S
C633   C644    1.398   .     A
C633   C652    1.408   .     A
C634   C651    1.408   .     A
C634   C661    1.454   .     S
C634   C645    1.398   .     A
C635   C642    1.398   .     A
C635   C662    1.451   .     S
C635   C651    1.408   .     A
C636   C653    1.463   .     S
C636   O721    1.292   .     A
C636   O722    1.293   .     A
C637   C652    1.407   .     A
C637   C643    1.398   .     A
C637   C663    1.454   .     S
C638   C654    1.411   .     A
C638   C649    1.403   .     A
C638   C664    1.453   .     S
C639   C653    1.418   .     A
C639   C665    1.460   .     S
C639   C650    1.391   .     A
C640   C653    1.418   .     A
C640   C666    1.456   .     S
C640   C646    1.391   .     A
C641   C654    1.411   .     A
C641   C648    1.403   .     A
C641   C667    1.453   .     S
C642   C668    1.453   .     S
C642   C656    1.408   .     A
C643   C655    1.408   .     A
C643   C670    1.450   .     S
C644   C671    1.454   .     S
C644   C655    1.407   .     A
C645   C672    1.451   .     S
C645   C656    1.408   .     A
C646   C659    1.418   .     A
C646   C673    1.460   .     S
C647   O727    1.287   .     A
C647   O724    1.288   .     A
C647   C652    1.448   .     S
C648   C674    1.453   .     S
C648   C657    1.411   .     A
C649   C675    1.453   .     S
C649   C657    1.411   .     A
C650   C676    1.456   .     S
C650   C659    1.418   .     A
C651   C658    1.448   .     S
C655   C679    1.448   .     S
C656   C678    1.448   .     S
C657   C677    1.464   .     S
C658   O726    1.287   .     A
C658   O725    1.288   .     A
C659   C669    1.463   .     S
C660   N708    1.156   .     T
C661   N709    1.157   .     T
C662   N710    1.157   .     T
C663   N711    1.157   .     T
C664   N712    1.157   .     T
C665   N694    1.158   .     T
C666   N695    1.157   .     T
C667   N696    1.157   .     T
C668   N697    1.157   .     T
C669   O716    1.293   .     A
C669   O728    1.292   .     A
C670   N698    1.156   .     T
C671   N699    1.157   .     T
C672   N700    1.157   .     T
C673   N701    1.158   .     T
C674   N702    1.157   .     T
C675   N703    1.157   .     T
C676   N705    1.157   .     T
C677   O715    1.292   .     A
C677   O714    1.291   .     A
C678   O717    1.288   .     A
C678   O720    1.287   .     A
C679   O718    1.288   .     A
C679   O719    1.287   .     A
C680   H685    1.081   .     S
C680   N808    1.367   .     S
Cu681  O713    1.979   .     S
Cu681  O725    1.961   .     S
Cu681  Cu682   2.678   .     S
Cu681  N693    2.013   .     S
Cu681  O826    1.982   1_455 S
Cu681  O831    1.959   1_455 S
Cu682  O726    1.959   .     S
Cu682  N704    2.013   .     S
Cu682  O723    1.982   .     S
Cu682  O825    1.979   1_455 S
Cu682  O828    1.961   1_455 S
Cu683  Cu684   2.678   .     S
Cu683  N706    2.013   .     S
Cu683  O715    1.982   .     S
Cu683  O718    1.961   .     S
Cu684  N707    2.013   .     S
Cu684  O714    1.979   .     S
Cu684  O719    1.959   .     S
N693   C732    1.367   1_455 A
N704   C784    1.367   1_455 S
O716   Cu476   1.982   1_565 S
O717   Cu476   1.961   1_565 S
O720   Cu475   1.959   1_565 S
O721   Cu786   1.979   .     S
O722   Cu785   1.982   .     S
O724   Cu786   1.961   .     S
O727   Cu785   1.959   .     S
O728   Cu475   1.979   1_565 S
C729   O827    1.292   .     A
C729   C758    1.464   .     S
C729   O817    1.291   .     A
C730   H790    1.081   .     S
C730   C1147   1.416   .     S
C730   N797    1.367   .     S
C731   N808    1.367   .     A
C731   H791    1.081   .     S
C732   N693    1.367   1_655 A
C732   H792    1.081   .     S
C732   C1200   1.416   .     S
C733   H793    1.081   .     S
C733   N603    1.367   1_565 S
C734   N810    1.367   .     A
C734   H794    1.081   .     S
C734   C1151   1.416   .     S
C735   N811    1.367   .     A
C735   H795    1.081   .     S
C736   H796    1.081   .     S
C736   C1149   1.416   .     S
C736   N602    1.367   1_565 S
C737   C764    1.450   .     S
C737   C748    1.398   .     A
C737   C756    1.408   .     A
C738   C755    1.408   .     A
C738   C765    1.454   .     S
C738   C749    1.398   .     A
C739   C746    1.398   .     A
C739   C766    1.451   .     S
C739   C755    1.408   .     A
C740   C757    1.463   .     S
C740   O825    1.292   .     A
C740   O826    1.293   .     A
C741   C756    1.407   .     A
C741   C747    1.398   .     A
C741   C767    1.454   .     S
C742   C758    1.411   .     A
C742   C753    1.403   .     A
C742   C768    1.453   .     S
C743   C757    1.418   .     A
C743   C769    1.460   .     S
C743   C754    1.391   .     A
C744   C757    1.418   .     A
C744   C770    1.456   .     S
C744   C750    1.391   .     A
C745   C758    1.411   .     A
C745   C752    1.403   .     A
C745   C771    1.453   .     S
C746   C772    1.453   .     S
C746   C760    1.408   .     A
C747   C759    1.408   .     A
C747   C774    1.450   .     S
C748   C775    1.454   .     S
C748   C759    1.407   .     A
C749   C776    1.451   .     S
C749   C760    1.408   .     A
C750   C763    1.418   .     A
C750   C777    1.460   .     S
C751   O831    1.287   .     A
C751   O828    1.288   .     A
C751   C756    1.448   .     S
C752   C778    1.453   .     S
C752   C761    1.411   .     A
C753   C779    1.453   .     S
C753   C761    1.411   .     A
C754   C780    1.456   .     S
C754   C763    1.418   .     A
C755   C762    1.448   .     S
C759   C783    1.448   .     S
C760   C782    1.448   .     S
C761   C781    1.464   .     S
C762   O830    1.287   .     A
C762   O829    1.288   .     A
C763   C773    1.463   .     S
C764   N812    1.156   .     T
C765   N813    1.157   .     T
C766   N814    1.157   .     T
C767   N815    1.157   .     T
C768   N816    1.157   .     T
C769   N798    1.158   .     T
C770   N799    1.157   .     T
C771   N800    1.157   .     T
C772   N801    1.157   .     T
C773   O820    1.293   .     A
C773   O832    1.292   .     A
C774   N802    1.156   .     T
C775   N803    1.157   .     T
C776   N804    1.157   .     T
C777   N805    1.158   .     T
C778   N806    1.157   .     T
C779   N807    1.157   .     T
C780   N809    1.157   .     T
C781   O819    1.292   .     A
C781   O818    1.291   .     A
C782   O821    1.288   .     A
C782   O824    1.287   .     A
C783   O822    1.288   .     A
C783   O823    1.287   .     A
C784   H789    1.081   .     S
C784   N704    1.367   1_655 S
Cu785  O817    1.979   .     S
Cu785  O829    1.961   .     S
Cu785  Cu786   2.678   .     S
Cu785  N797    2.013   .     S
Cu786  O830    1.959   .     S
Cu786  N808    2.013   .     S
Cu786  O827    1.982   .     S
Cu787  Cu788   2.678   .     S
Cu787  N810    2.013   .     S
Cu787  O819    1.982   .     S
Cu787  O822    1.961   .     S
Cu788  N811    2.013   .     S
Cu788  O818    1.979   .     S
Cu788  O823    1.959   .     S
O820   Cu580   1.982   1_565 S
O821   Cu580   1.961   1_565 S
O824   Cu579   1.959   1_565 S
O825   Cu682   1.979   1_655 S
O826   Cu681   1.982   1_655 S
O828   Cu682   1.961   1_655 S
O831   Cu681   1.959   1_655 S
O832   Cu579   1.979   1_565 S
C833   O931    1.292   .     A
C833   C862    1.464   .     S
C833   O921    1.291   .     A
C834   H894    1.081   .     S
C834   C3      1.416   1_556 S
C834   N901    1.367   .     S
C835   N912    1.367   .     A
C835   H895    1.081   .     S
C836   N1005   1.367   .     A
C836   H896    1.081   .     S
C836   C56     1.416   1_556 S
C837   H897    1.081   .     S
C837   N1123   1.367   .     S
C838   N914    1.367   .     A
C838   H898    1.081   .     S
C838   C7      1.416   1_556 S
C839   N915    1.367   .     A
C839   H899    1.081   .     S
C840   H900    1.081   .     S
C840   C5      1.416   1_556 S
C840   N1122   1.367   .     S
C841   C868    1.450   .     S
C841   C852    1.398   .     A
C841   C860    1.408   .     A
C842   C859    1.408   .     A
C842   C869    1.454   .     S
C842   C853    1.398   .     A
C843   C850    1.398   .     A
C843   C870    1.451   .     S
C843   C859    1.408   .     A
C844   C861    1.463   .     S
C844   O929    1.292   .     A
C844   O930    1.293   .     A
C845   C860    1.407   .     A
C845   C851    1.398   .     A
C845   C871    1.454   .     S
C846   C862    1.411   .     A
C846   C857    1.403   .     A
C846   C872    1.453   .     S
C847   C861    1.418   .     A
C847   C873    1.460   .     S
C847   C858    1.391   .     A
C848   C861    1.418   .     A
C848   C874    1.456   .     S
C848   C854    1.391   .     A
C849   C862    1.411   .     A
C849   C856    1.403   .     A
C849   C875    1.453   .     S
C850   C876    1.453   .     S
C850   C864    1.408   .     A
C851   C863    1.408   .     A
C851   C878    1.450   .     S
C852   C879    1.454   .     S
C852   C863    1.407   .     A
C853   C880    1.451   .     S
C853   C864    1.408   .     A
C854   C867    1.418   .     A
C854   C881    1.460   .     S
C855   O935    1.287   .     A
C855   O932    1.288   .     A
C855   C860    1.448   .     S
C856   C882    1.453   .     S
C856   C865    1.411   .     A
C857   C883    1.453   .     S
C857   C865    1.411   .     A
C858   C884    1.456   .     S
C858   C867    1.418   .     A
C859   C866    1.448   .     S
C863   C887    1.448   .     S
C864   C886    1.448   .     S
C865   C885    1.464   .     S
C866   O934    1.287   .     A
C866   O933    1.288   .     A
C867   C877    1.463   .     S
C868   N916    1.156   .     T
C869   N917    1.157   .     T
C870   N918    1.157   .     T
C871   N919    1.157   .     T
C872   N920    1.157   .     T
C873   N902    1.158   .     T
C874   N903    1.157   .     T
C875   N904    1.157   .     T
C876   N905    1.157   .     T
C877   O924    1.293   .     A
C877   O936    1.292   .     A
C878   N906    1.156   .     T
C879   N907    1.157   .     T
C880   N908    1.157   .     T
C881   N909    1.158   .     T
C882   N910    1.157   .     T
C883   N911    1.157   .     T
C884   N913    1.157   .     T
C885   O923    1.292   .     A
C885   O922    1.291   .     A
C886   O925    1.288   .     A
C886   O928    1.287   .     A
C887   O926    1.288   .     A
C887   O927    1.287   .     A
C888   H893    1.081   .     S
C888   N1016   1.367   .     S
Cu889  O921    1.979   .     S
Cu889  O933    1.961   .     S
Cu889  Cu890   2.678   .     S
Cu889  N901    2.013   .     S
Cu889  O1034   1.982   1_455 S
Cu889  O1039   1.959   1_455 S
Cu890  O934    1.959   .     S
Cu890  N912    2.013   .     S
Cu890  O931    1.982   .     S
Cu890  O1033   1.979   1_455 S
Cu890  O1036   1.961   1_455 S
Cu891  O1144   1.979   1_545 S
Cu891  O1136   1.959   1_545 S
Cu891  Cu892   2.678   .     S
Cu891  N914    2.013   .     S
Cu891  O923    1.982   .     S
Cu891  O926    1.961   .     S
Cu892  N915    2.013   .     S
Cu892  O922    1.979   .     S
Cu892  O927    1.959   .     S
Cu892  O1132   1.982   1_545 S
Cu892  O1133   1.961   1_545 S
N901   C940    1.367   1_455 A
N912   C992    1.367   1_455 S
N914   C1048   1.367   1_545 S
N915   C1045   1.367   1_545 S
O924   Cu1100  1.982   .     S
O925   Cu1100  1.961   .     S
O928   Cu1099  1.959   .     S
O929   Cu994   1.979   .     S
O930   Cu993   1.982   .     S
O932   Cu994   1.961   .     S
O935   Cu993   1.959   .     S
O936   Cu1099  1.979   .     S
C937   O1035   1.292   .     A
C937   C966    1.464   .     S
C937   O1025   1.291   .     A
C938   H998    1.081   .     S
C938   C107    1.416   1_556 S
C938   N1005   1.367   .     S
C939   N1016   1.367   .     A
C939   H999    1.081   .     S
C940   N901    1.367   1_655 A
C940   H1000   1.081   .     S
C940   C160    1.416   1_556 S
C941   H1001   1.081   .     S
C941   N1227   1.367   .     S
C942   N1018   1.367   .     A
C942   H1002   1.081   .     S
C942   C111    1.416   1_556 S
C943   N1019   1.367   .     A
C943   H1003   1.081   .     S
C944   H1004   1.081   .     S
C944   C109    1.416   1_556 S
C944   N1226   1.367   .     S
C945   C972    1.450   .     S
C945   C956    1.398   .     A
C945   C964    1.408   .     A
C946   C963    1.408   .     A
C946   C973    1.454   .     S
C946   C957    1.398   .     A
C947   C954    1.398   .     A
C947   C974    1.451   .     S
C947   C963    1.408   .     A
C948   C965    1.463   .     S
C948   O1033   1.292   .     A
C948   O1034   1.293   .     A
C949   C964    1.407   .     A
C949   C955    1.398   .     A
C949   C975    1.454   .     S
C950   C966    1.411   .     A
C950   C961    1.403   .     A
C950   C976    1.453   .     S
C951   C965    1.418   .     A
C951   C977    1.460   .     S
C951   C962    1.391   .     A
C952   C965    1.418   .     A
C952   C978    1.456   .     S
C952   C958    1.391   .     A
C953   C966    1.411   .     A
C953   C960    1.403   .     A
C953   C979    1.453   .     S
C954   C980    1.453   .     S
C954   C968    1.408   .     A
C955   C967    1.408   .     A
C955   C982    1.450   .     S
C956   C983    1.454   .     S
C956   C967    1.407   .     A
C957   C984    1.451   .     S
C957   C968    1.408   .     A
C958   C971    1.418   .     A
C958   C985    1.460   .     S
C959   O1039   1.287   .     A
C959   O1036   1.288   .     A
C959   C964    1.448   .     S
C960   C986    1.453   .     S
C960   C969    1.411   .     A
C961   C987    1.453   .     S
C961   C969    1.411   .     A
C962   C988    1.456   .     S
C962   C971    1.418   .     A
C963   C970    1.448   .     S
C967   C991    1.448   .     S
C968   C990    1.448   .     S
C969   C989    1.464   .     S
C970   O1038   1.287   .     A
C970   O1037   1.288   .     A
C971   C981    1.463   .     S
C972   N1020   1.156   .     T
C973   N1021   1.157   .     T
C974   N1022   1.157   .     T
C975   N1023   1.157   .     T
C976   N1024   1.157   .     T
C977   N1006   1.158   .     T
C978   N1007   1.157   .     T
C979   N1008   1.157   .     T
C980   N1009   1.157   .     T
C981   O1028   1.293   .     A
C981   O1040   1.292   .     A
C982   N1010   1.156   .     T
C983   N1011   1.157   .     T
C984   N1012   1.157   .     T
C985   N1013   1.158   .     T
C986   N1014   1.157   .     T
C987   N1015   1.157   .     T
C988   N1017   1.157   .     T
C989   O1027   1.292   .     A
C989   O1026   1.291   .     A
C990   O1029   1.288   .     A
C990   O1032   1.287   .     A
C991   O1030   1.288   .     A
C991   O1031   1.287   .     A
C992   H997    1.081   .     S
C992   N912    1.367   1_655 S
Cu993  O1025   1.979   .     S
Cu993  O1037   1.961   .     S
Cu993  Cu994   2.678   .     S
Cu993  N1005   2.013   .     S
Cu994  O1038   1.959   .     S
Cu994  N1016   2.013   .     S
Cu994  O1035   1.982   .     S
Cu995  O1248   1.979   1_545 S
Cu995  O1240   1.959   1_545 S
Cu995  Cu996   2.678   .     S
Cu995  N1018   2.013   .     S
Cu995  O1027   1.982   .     S
Cu995  O1030   1.961   .     S
Cu996  N1019   2.013   .     S
Cu996  O1026   1.979   .     S
Cu996  O1031   1.959   .     S
Cu996  O1236   1.982   1_545 S
Cu996  O1237   1.961   1_545 S
N1018  C1152   1.367   1_545 S
N1019  C1149   1.367   1_545 S
O1028  Cu1204  1.982   .     S
O1029  Cu1204  1.961   .     S
O1032  Cu1203  1.959   .     S
O1033  Cu890   1.979   1_655 S
O1034  Cu889   1.982   1_655 S
O1036  Cu890   1.961   1_655 S
O1039  Cu889   1.959   1_655 S
O1040  Cu1203  1.979   .     S
C1041  O1139   1.292   .     A
C1041  C1070   1.464   .     S
C1041  O1129   1.291   .     A
C1042  H1102   1.081   .     S
C1042  C211    1.416   1_556 S
C1042  N1109   1.367   .     S
C1043  N1120   1.367   .     A
C1043  H1103   1.081   .     S
C1044  N1213   1.367   .     A
C1044  H1104   1.081   .     S
C1044  C264    1.416   1_556 S
C1045  H1105   1.081   .     S
C1045  N915    1.367   1_565 S
C1046  N1122   1.367   .     A
C1046  H1106   1.081   .     S
C1046  C215    1.416   1_556 S
C1047  N1123   1.367   .     A
C1047  H1107   1.081   .     S
C1048  H1108   1.081   .     S
C1048  C213    1.416   1_556 S
C1048  N914    1.367   1_565 S
C1049  C1076   1.450   .     S
C1049  C1060   1.398   .     A
C1049  C1068   1.408   .     A
C1050  C1067   1.408   .     A
C1050  C1077   1.454   .     S
C1050  C1061   1.398   .     A
C1051  C1058   1.398   .     A
C1051  C1078   1.451   .     S
C1051  C1067   1.408   .     A
C1052  C1069   1.463   .     S
C1052  O1137   1.292   .     A
C1052  O1138   1.293   .     A
C1053  C1068   1.407   .     A
C1053  C1059   1.398   .     A
C1053  C1079   1.454   .     S
C1054  C1070   1.411   .     A
C1054  C1065   1.403   .     A
C1054  C1080   1.453   .     S
C1055  C1069   1.418   .     A
C1055  C1081   1.460   .     S
C1055  C1066   1.391   .     A
C1056  C1069   1.418   .     A
C1056  C1082   1.456   .     S
C1056  C1062   1.391   .     A
C1057  C1070   1.411   .     A
C1057  C1064   1.403   .     A
C1057  C1083   1.453   .     S
C1058  C1084   1.453   .     S
C1058  C1072   1.408   .     A
C1059  C1071   1.408   .     A
C1059  C1086   1.450   .     S
C1060  C1087   1.454   .     S
C1060  C1071   1.407   .     A
C1061  C1088   1.451   .     S
C1061  C1072   1.408   .     A
C1062  C1075   1.418   .     A
C1062  C1089   1.460   .     S
C1063  O1143   1.287   .     A
C1063  O1140   1.288   .     A
C1063  C1068   1.448   .     S
C1064  C1090   1.453   .     S
C1064  C1073   1.411   .     A
C1065  C1091   1.453   .     S
C1065  C1073   1.411   .     A
C1066  C1092   1.456   .     S
C1066  C1075   1.418   .     A
C1067  C1074   1.448   .     S
C1071  C1095   1.448   .     S
C1072  C1094   1.448   .     S
C1073  C1093   1.464   .     S
C1074  O1142   1.287   .     A
C1074  O1141   1.288   .     A
C1075  C1085   1.463   .     S
C1076  N1124   1.156   .     T
C1077  N1125   1.157   .     T
C1078  N1126   1.157   .     T
C1079  N1127   1.157   .     T
C1080  N1128   1.157   .     T
C1081  N1110   1.158   .     T
C1082  N1111   1.157   .     T
C1083  N1112   1.157   .     T
C1084  N1113   1.157   .     T
C1085  O1132   1.293   .     A
C1085  O1144   1.292   .     A
C1086  N1114   1.156   .     T
C1087  N1115   1.157   .     T
C1088  N1116   1.157   .     T
C1089  N1117   1.158   .     T
C1090  N1118   1.157   .     T
C1091  N1119   1.157   .     T
C1092  N1121   1.157   .     T
C1093  O1131   1.292   .     A
C1093  O1130   1.291   .     A
C1094  O1133   1.288   .     A
C1094  O1136   1.287   .     A
C1095  O1134   1.288   .     A
C1095  O1135   1.287   .     A
C1096  H1101   1.081   .     S
C1096  N1224   1.367   .     S
Cu1097 O1129   1.979   .     S
Cu1097 O1141   1.961   .     S
Cu1097 Cu1098  2.678   .     S
Cu1097 N1109   2.013   .     S
Cu1097 O1242   1.982   1_455 S
Cu1097 O1247   1.959   1_455 S
Cu1098 O1142   1.959   .     S
Cu1098 N1120   2.013   .     S
Cu1098 O1139   1.982   .     S
Cu1098 O1241   1.979   1_455 S
Cu1098 O1244   1.961   1_455 S
Cu1099 Cu1100  2.678   .     S
Cu1099 N1122   2.013   .     S
Cu1099 O1131   1.982   .     S
Cu1099 O1134   1.961   .     S
Cu1100 N1123   2.013   .     S
Cu1100 O1130   1.979   .     S
Cu1100 O1135   1.959   .     S
N1109  C1148   1.367   1_455 A
N1120  C1200   1.367   1_455 S
O1132  Cu892   1.982   1_565 S
O1133  Cu892   1.961   1_565 S
O1136  Cu891   1.959   1_565 S
O1137  Cu1202  1.979   .     S
O1138  Cu1201  1.982   .     S
O1140  Cu1202  1.961   .     S
O1143  Cu1201  1.959   .     S
O1144  Cu891   1.979   1_565 S
C1145  O1243   1.292   .     A
C1145  C1174   1.464   .     S
C1145  O1233   1.291   .     A
C1146  H1206   1.081   .     S
C1146  C315    1.416   1_556 S
C1146  N1213   1.367   .     S
C1147  N1224   1.367   .     A
C1147  H1207   1.081   .     S
C1148  N1109   1.367   1_655 A
C1148  H1208   1.081   .     S
C1148  C368    1.416   1_556 S
C1149  H1209   1.081   .     S
C1149  N1019   1.367   1_565 S
C1150  N1226   1.367   .     A
C1150  H1210   1.081   .     S
C1150  C319    1.416   1_556 S
C1151  N1227   1.367   .     A
C1151  H1211   1.081   .     S
C1152  H1212   1.081   .     S
C1152  C317    1.416   1_556 S
C1152  N1018   1.367   1_565 S
C1153  C1180   1.450   .     S
C1153  C1164   1.398   .     A
C1153  C1172   1.408   .     A
C1154  C1171   1.408   .     A
C1154  C1181   1.454   .     S
C1154  C1165   1.398   .     A
C1155  C1162   1.398   .     A
C1155  C1182   1.451   .     S
C1155  C1171   1.408   .     A
C1156  C1173   1.463   .     S
C1156  O1241   1.292   .     A
C1156  O1242   1.293   .     A
C1157  C1172   1.407   .     A
C1157  C1163   1.398   .     A
C1157  C1183   1.454   .     S
C1158  C1174   1.411   .     A
C1158  C1169   1.403   .     A
C1158  C1184   1.453   .     S
C1159  C1173   1.418   .     A
C1159  C1185   1.460   .     S
C1159  C1170   1.391   .     A
C1160  C1173   1.418   .     A
C1160  C1186   1.456   .     S
C1160  C1166   1.391   .     A
C1161  C1174   1.411   .     A
C1161  C1168   1.403   .     A
C1161  C1187   1.453   .     S
C1162  C1188   1.453   .     S
C1162  C1176   1.408   .     A
C1163  C1175   1.408   .     A
C1163  C1190   1.450   .     S
C1164  C1191   1.454   .     S
C1164  C1175   1.407   .     A
C1165  C1192   1.451   .     S
C1165  C1176   1.408   .     A
C1166  C1179   1.418   .     A
C1166  C1193   1.460   .     S
C1167  O1247   1.287   .     A
C1167  O1244   1.288   .     A
C1167  C1172   1.448   .     S
C1168  C1194   1.453   .     S
C1168  C1177   1.411   .     A
C1169  C1195   1.453   .     S
C1169  C1177   1.411   .     A
C1170  C1196   1.456   .     S
C1170  C1179   1.418   .     A
C1171  C1178   1.448   .     S
C1175  C1199   1.448   .     S
C1176  C1198   1.448   .     S
C1177  C1197   1.464   .     S
C1178  O1246   1.287   .     A
C1178  O1245   1.288   .     A
C1179  C1189   1.463   .     S
C1180  N1228   1.156   .     T
C1181  N1229   1.157   .     T
C1182  N1230   1.157   .     T
C1183  N1231   1.157   .     T
C1184  N1232   1.157   .     T
C1185  N1214   1.158   .     T
C1186  N1215   1.157   .     T
C1187  N1216   1.157   .     T
C1188  N1217   1.157   .     T
C1189  O1236   1.293   .     A
C1189  O1248   1.292   .     A
C1190  N1218   1.156   .     T
C1191  N1219   1.157   .     T
C1192  N1220   1.157   .     T
C1193  N1221   1.158   .     T
C1194  N1222   1.157   .     T
C1195  N1223   1.157   .     T
C1196  N1225   1.157   .     T
C1197  O1235   1.292   .     A
C1197  O1234   1.291   .     A
C1198  O1237   1.288   .     A
C1198  O1240   1.287   .     A
C1199  O1238   1.288   .     A
C1199  O1239   1.287   .     A
C1200  H1205   1.081   .     S
C1200  N1120   1.367   1_655 S
Cu1201 O1233   1.979   .     S
Cu1201 O1245   1.961   .     S
Cu1201 Cu1202  2.678   .     S
Cu1201 N1213   2.013   .     S
Cu1202 O1246   1.959   .     S
Cu1202 N1224   2.013   .     S
Cu1202 O1243   1.982   .     S
Cu1203 Cu1204  2.678   .     S
Cu1203 N1226   2.013   .     S
Cu1203 O1235   1.982   .     S
Cu1203 O1238   1.961   .     S
Cu1204 N1227   2.013   .     S
Cu1204 O1234   1.979   .     S
Cu1204 O1239   1.959   .     S
O1236  Cu996   1.982   1_565 S
O1237  Cu996   1.961   1_565 S
O1240  Cu995   1.959   1_565 S
O1241  Cu1098  1.979   1_655 S
O1242  Cu1097  1.982   1_655 S
O1244  Cu1098  1.961   1_655 S
O1247  Cu1097  1.959   1_655 S
O1248  Cu995   1.979   1_565 S
