data_str_m2_o1_o16_pcu_sym.146
_audit_creation_date              2020-01-03
_audit_creation_method            'Materials Studio'
_symmetry_space_group_name_H-M    'P1'
_symmetry_Int_Tables_number       1
_symmetry_cell_setting            triclinic
loop_
_symmetry_equiv_pos_as_xyz
  x,y,z
_cell_length_a                    28.5051
_cell_length_b                    32.5672
_cell_length_c                    26.9497
_cell_angle_alpha                 89.8403
_cell_angle_beta                  72.3143
_cell_angle_gamma                 89.5035
loop_
_atom_site_label
_atom_site_type_symbol
_atom_site_fract_x
_atom_site_fract_y
_atom_site_fract_z
_atom_site_U_iso_or_equiv
_atom_site_adp_type
_atom_site_occupancy
O1     O     0.12708   0.22678   0.25000   0.00000  Uiso   1.00
O2     O     0.20627   0.22679   0.25000   0.00000  Uiso   1.00
C3     C     0.16641   0.24590   0.25034   0.00000  Uiso   1.00
O4     O     0.10775   0.16665   0.32549   0.00000  Uiso   1.00
O5     O     0.18694   0.16666   0.32549   0.00000  Uiso   1.00
C6     C     0.14035   0.16489   0.35012   0.00000  Uiso   1.00
Cu7    Cu    0.11978   0.16666   0.25000   0.00000  Uiso   1.00
Cu8    Cu    0.21355   0.16667   0.25000   0.00000  Uiso   1.00
O9     O     0.12706   0.10654   0.24999   0.00000  Uiso   1.00
O10    O     0.20625   0.10655   0.24999   0.00000  Uiso   1.00
O11    O     0.14640   0.16667   0.17451   0.00000  Uiso   1.00
O12    O     0.22559   0.16668   0.17451   0.00000  Uiso   1.00
C13    C     0.16673   0.08728   0.25114   0.00000  Uiso   1.00
C14    C     0.19321   0.16625   0.14977   0.00000  Uiso   1.00
C15    C     0.26336   0.13303   0.01269   0.00000  Uiso   1.00
H16    H     0.26841   0.10691   0.41832   0.00000  Uiso   1.00
H17    H     0.29873   0.11984   0.49111   0.00000  Uiso   1.00
C18    C     0.20892   0.16158   0.09268   0.00000  Uiso   1.00
C19    C     0.07765   0.18082   0.43380   0.00000  Uiso   1.00
C20    C     0.06396   0.18743   0.48708   0.00000  Uiso   1.00
C21    C     0.09697   0.17935   0.01481   0.00000  Uiso   1.00
C22    C     0.14440   0.16272   0.48978   0.00000  Uiso   1.00
C23    C     0.15628   0.15220   0.43624   0.00000  Uiso   1.00
C24    C     0.18064   0.15640   0.01578   0.00000  Uiso   1.00
C25    C     0.22631   0.13759   0.48886   0.00000  Uiso   1.00
C26    C     0.23462   0.12314   0.43838   0.00000  Uiso   1.00
C27    C     0.19974   0.12952   0.41290   0.00000  Uiso   1.00
C28    C     0.17318   0.16848   0.06754   0.00000  Uiso   1.00
C29    C     0.25559   0.14556   0.06409   0.00000  Uiso   1.00
C30    C     0.12419   0.16446   0.40753   0.00000  Uiso   1.00
H31    H     0.13932   0.18298   0.08981   0.00000  Uiso   1.00
H32    H     0.05222   0.18983   0.41286   0.00000  Uiso   1.00
H33    H     0.08381   0.18609   0.05581   0.00000  Uiso   1.00
H34    H     0.02801   0.20035   0.00672   0.00000  Uiso   1.00
H35    H     0.20726   0.11588   0.37487   0.00000  Uiso   1.00
C36    C     0.20316   0.31056   0.26549   0.00000  Uiso   1.00
H37    H     0.23127   0.29299   0.27588   0.00000  Uiso   1.00
C38    C     0.20444   0.01985   0.26643   0.00000  Uiso   1.00
C39    C     0.16735   0.04246   0.25258   0.00000  Uiso   1.00
C40    C     0.12973   0.02166   0.23963   0.00000  Uiso   1.00
H41    H     0.10104   0.03820   0.22903   0.00000  Uiso   1.00
C42    C     0.12897   0.31254   0.23930   0.00000  Uiso   1.00
H43    H     0.09990   0.29716   0.22861   0.00000  Uiso   1.00
C44    C     0.16599   0.29032   0.25167   0.00000  Uiso   1.00
C45    C     0.29894   0.19205   0.28253   0.00000  Uiso   1.00
H46    H     0.27255   0.21239   0.30855   0.00000  Uiso   1.00
C47    C     0.01525   0.19198   0.28258   0.00000  Uiso   1.00
H48    H     0.02635   0.21224   0.30865   0.00000  Uiso   1.00
N49    N     0.04931   0.16666   0.24998   0.00000  Uiso   1.00
C50    C     0.03436   0.14123   0.21753   0.00000  Uiso   1.00
H51    H     0.06073   0.12085   0.19155   0.00000  Uiso   1.00
C52    C     0.31803   0.14119   0.21763   0.00000  Uiso   1.00
H53    H     0.30687   0.12075   0.19181   0.00000  Uiso   1.00
N54    N     0.28402   0.16669   0.24999   0.00000  Uiso   1.00
N55    N     0.29523   0.14143   0.08625   0.00000  Uiso   1.00
O56    O     0.31164   0.17386   0.10348   0.00000  Uiso   1.00
O57    O     0.32176   0.10797   0.07844   0.00000  Uiso   1.00
C58    C     0.24513   0.03942   0.28309   0.00000  Uiso   1.00
H59    H     0.22922   0.06072   0.31601   0.00000  Uiso   1.00
H60    H     0.26743   0.01632   0.29665   0.00000  Uiso   1.00
H61    H     0.27072   0.05590   0.24982   0.00000  Uiso   1.00
O62    O     0.46042   0.22678   0.25000   0.00000  Uiso   1.00
O63    O     0.53961   0.22679   0.25000   0.00000  Uiso   1.00
C64    C     0.49974   0.24590   0.25034   0.00000  Uiso   1.00
O65    O     0.44108   0.16665   0.32549   0.00000  Uiso   1.00
O66    O     0.52027   0.16666   0.32549   0.00000  Uiso   1.00
C67    C     0.47368   0.16489   0.35012   0.00000  Uiso   1.00
Cu68   Cu    0.45311   0.16666   0.25000   0.00000  Uiso   1.00
Cu69   Cu    0.54689   0.16667   0.25000   0.00000  Uiso   1.00
O70    O     0.46039   0.10654   0.24999   0.00000  Uiso   1.00
O71    O     0.53958   0.10655   0.24999   0.00000  Uiso   1.00
O72    O     0.47973   0.16667   0.17451   0.00000  Uiso   1.00
O73    O     0.55892   0.16668   0.17451   0.00000  Uiso   1.00
C74    C     0.50006   0.08728   0.25114   0.00000  Uiso   1.00
C75    C     0.52655   0.16625   0.14977   0.00000  Uiso   1.00
C76    C     0.59669   0.13303   0.01269   0.00000  Uiso   1.00
H77    H     0.60175   0.10691   0.41832   0.00000  Uiso   1.00
H78    H     0.63207   0.11984   0.49111   0.00000  Uiso   1.00
C79    C     0.54225   0.16158   0.09268   0.00000  Uiso   1.00
C80    C     0.41098   0.18082   0.43380   0.00000  Uiso   1.00
C81    C     0.39729   0.18743   0.48708   0.00000  Uiso   1.00
C82    C     0.43030   0.17935   0.01481   0.00000  Uiso   1.00
C83    C     0.47773   0.16272   0.48978   0.00000  Uiso   1.00
C84    C     0.48961   0.15220   0.43624   0.00000  Uiso   1.00
C85    C     0.51397   0.15640   0.01578   0.00000  Uiso   1.00
C86    C     0.55965   0.13759   0.48886   0.00000  Uiso   1.00
C87    C     0.56796   0.12314   0.43838   0.00000  Uiso   1.00
C88    C     0.53308   0.12952   0.41290   0.00000  Uiso   1.00
C89    C     0.50651   0.16848   0.06754   0.00000  Uiso   1.00
C90    C     0.58892   0.14556   0.06409   0.00000  Uiso   1.00
C91    C     0.45752   0.16446   0.40753   0.00000  Uiso   1.00
H92    H     0.47265   0.18298   0.08981   0.00000  Uiso   1.00
H93    H     0.38555   0.18983   0.41286   0.00000  Uiso   1.00
H94    H     0.41715   0.18609   0.05581   0.00000  Uiso   1.00
H95    H     0.36134   0.20035   0.00672   0.00000  Uiso   1.00
H96    H     0.54059   0.11588   0.37487   0.00000  Uiso   1.00
C97    C     0.53649   0.31056   0.26549   0.00000  Uiso   1.00
H98    H     0.56460   0.29299   0.27588   0.00000  Uiso   1.00
C99    C     0.53777   0.01985   0.26643   0.00000  Uiso   1.00
C100   C     0.50068   0.04246   0.25258   0.00000  Uiso   1.00
C101   C     0.46306   0.02166   0.23963   0.00000  Uiso   1.00
H102   H     0.43437   0.03820   0.22903   0.00000  Uiso   1.00
C103   C     0.46231   0.31254   0.23930   0.00000  Uiso   1.00
H104   H     0.43323   0.29716   0.22861   0.00000  Uiso   1.00
C105   C     0.49933   0.29032   0.25167   0.00000  Uiso   1.00
C106   C     0.63228   0.19205   0.28253   0.00000  Uiso   1.00
H107   H     0.60588   0.21239   0.30855   0.00000  Uiso   1.00
C108   C     0.34858   0.19198   0.28258   0.00000  Uiso   1.00
H109   H     0.35968   0.21224   0.30865   0.00000  Uiso   1.00
N110   N     0.38265   0.16666   0.24998   0.00000  Uiso   1.00
C111   C     0.36769   0.14123   0.21753   0.00000  Uiso   1.00
H112   H     0.39406   0.12085   0.19155   0.00000  Uiso   1.00
C113   C     0.65136   0.14119   0.21763   0.00000  Uiso   1.00
H114   H     0.64020   0.12075   0.19181   0.00000  Uiso   1.00
N115   N     0.61735   0.16669   0.24999   0.00000  Uiso   1.00
N116   N     0.62856   0.14143   0.08625   0.00000  Uiso   1.00
O117   O     0.64497   0.17386   0.10348   0.00000  Uiso   1.00
O118   O     0.65510   0.10797   0.07844   0.00000  Uiso   1.00
C119   C     0.57846   0.03942   0.28309   0.00000  Uiso   1.00
H120   H     0.56255   0.06072   0.31601   0.00000  Uiso   1.00
H121   H     0.60076   0.01632   0.29665   0.00000  Uiso   1.00
H122   H     0.60405   0.05590   0.24982   0.00000  Uiso   1.00
O123   O     0.79375   0.22678   0.25000   0.00000  Uiso   1.00
O124   O     0.87294   0.22679   0.25000   0.00000  Uiso   1.00
C125   C     0.83307   0.24590   0.25034   0.00000  Uiso   1.00
O126   O     0.77441   0.16665   0.32549   0.00000  Uiso   1.00
O127   O     0.85360   0.16666   0.32549   0.00000  Uiso   1.00
C128   C     0.80702   0.16489   0.35012   0.00000  Uiso   1.00
Cu129  Cu    0.78645   0.16666   0.25000   0.00000  Uiso   1.00
Cu130  Cu    0.88022   0.16667   0.25000   0.00000  Uiso   1.00
O131   O     0.79373   0.10654   0.24999   0.00000  Uiso   1.00
O132   O     0.87292   0.10655   0.24999   0.00000  Uiso   1.00
O133   O     0.81306   0.16667   0.17451   0.00000  Uiso   1.00
O134   O     0.89225   0.16668   0.17451   0.00000  Uiso   1.00
C135   C     0.83340   0.08728   0.25114   0.00000  Uiso   1.00
C136   C     0.85988   0.16625   0.14977   0.00000  Uiso   1.00
C137   C     0.93003   0.13303   0.01269   0.00000  Uiso   1.00
H138   H     0.93508   0.10691   0.41832   0.00000  Uiso   1.00
H139   H     0.96540   0.11984   0.49111   0.00000  Uiso   1.00
C140   C     0.87559   0.16158   0.09268   0.00000  Uiso   1.00
C141   C     0.74431   0.18082   0.43380   0.00000  Uiso   1.00
C142   C     0.73062   0.18743   0.48708   0.00000  Uiso   1.00
C143   C     0.76364   0.17935   0.01481   0.00000  Uiso   1.00
C144   C     0.81107   0.16272   0.48978   0.00000  Uiso   1.00
C145   C     0.82294   0.15220   0.43624   0.00000  Uiso   1.00
C146   C     0.84730   0.15640   0.01578   0.00000  Uiso   1.00
C147   C     0.89298   0.13759   0.48886   0.00000  Uiso   1.00
C148   C     0.90129   0.12314   0.43838   0.00000  Uiso   1.00
C149   C     0.86641   0.12952   0.41290   0.00000  Uiso   1.00
C150   C     0.83985   0.16848   0.06754   0.00000  Uiso   1.00
C151   C     0.92225   0.14556   0.06409   0.00000  Uiso   1.00
C152   C     0.79086   0.16446   0.40753   0.00000  Uiso   1.00
H153   H     0.80599   0.18298   0.08981   0.00000  Uiso   1.00
H154   H     0.71889   0.18983   0.41286   0.00000  Uiso   1.00
H155   H     0.75048   0.18609   0.05581   0.00000  Uiso   1.00
H156   H     0.69468   0.20035   0.00672   0.00000  Uiso   1.00
H157   H     0.87392   0.11588   0.37487   0.00000  Uiso   1.00
C158   C     0.86982   0.31056   0.26549   0.00000  Uiso   1.00
H159   H     0.89794   0.29299   0.27588   0.00000  Uiso   1.00
C160   C     0.87110   0.01985   0.26643   0.00000  Uiso   1.00
C161   C     0.83401   0.04246   0.25258   0.00000  Uiso   1.00
C162   C     0.79639   0.02166   0.23963   0.00000  Uiso   1.00
H163   H     0.76770   0.03820   0.22903   0.00000  Uiso   1.00
C164   C     0.79564   0.31254   0.23930   0.00000  Uiso   1.00
H165   H     0.76657   0.29716   0.22861   0.00000  Uiso   1.00
C166   C     0.83266   0.29032   0.25167   0.00000  Uiso   1.00
C167   C     0.96561   0.19205   0.28253   0.00000  Uiso   1.00
H168   H     0.93922   0.21239   0.30855   0.00000  Uiso   1.00
C169   C     0.68191   0.19198   0.28258   0.00000  Uiso   1.00
H170   H     0.69301   0.21224   0.30865   0.00000  Uiso   1.00
N171   N     0.71598   0.16666   0.24998   0.00000  Uiso   1.00
C172   C     0.70103   0.14123   0.21753   0.00000  Uiso   1.00
H173   H     0.72739   0.12085   0.19155   0.00000  Uiso   1.00
C174   C     0.98469   0.14119   0.21763   0.00000  Uiso   1.00
H175   H     0.97354   0.12075   0.19181   0.00000  Uiso   1.00
N176   N     0.95069   0.16669   0.24999   0.00000  Uiso   1.00
N177   N     0.96189   0.14143   0.08625   0.00000  Uiso   1.00
O178   O     0.97831   0.17386   0.10348   0.00000  Uiso   1.00
O179   O     0.98843   0.10797   0.07844   0.00000  Uiso   1.00
C180   C     0.91180   0.03942   0.28309   0.00000  Uiso   1.00
H181   H     0.89588   0.06072   0.31601   0.00000  Uiso   1.00
H182   H     0.93409   0.01632   0.29665   0.00000  Uiso   1.00
H183   H     0.93738   0.05590   0.24982   0.00000  Uiso   1.00
O184   O     0.12708   0.56011   0.25000   0.00000  Uiso   1.00
O185   O     0.20627   0.56012   0.25000   0.00000  Uiso   1.00
C186   C     0.16641   0.57924   0.25034   0.00000  Uiso   1.00
O187   O     0.10775   0.49998   0.32549   0.00000  Uiso   1.00
O188   O     0.18694   0.49999   0.32549   0.00000  Uiso   1.00
C189   C     0.14035   0.49822   0.35012   0.00000  Uiso   1.00
Cu190  Cu    0.11978   0.49999   0.25000   0.00000  Uiso   1.00
Cu191  Cu    0.21355   0.50001   0.25000   0.00000  Uiso   1.00
O192   O     0.12706   0.43988   0.24999   0.00000  Uiso   1.00
O193   O     0.20625   0.43989   0.24999   0.00000  Uiso   1.00
O194   O     0.14640   0.50001   0.17451   0.00000  Uiso   1.00
O195   O     0.22559   0.50002   0.17451   0.00000  Uiso   1.00
C196   C     0.16673   0.42061   0.25114   0.00000  Uiso   1.00
C197   C     0.19321   0.49958   0.14977   0.00000  Uiso   1.00
C198   C     0.26336   0.46636   0.01269   0.00000  Uiso   1.00
H199   H     0.26841   0.44025   0.41832   0.00000  Uiso   1.00
H200   H     0.29873   0.45318   0.49111   0.00000  Uiso   1.00
C201   C     0.20892   0.49491   0.09268   0.00000  Uiso   1.00
C202   C     0.07765   0.51415   0.43380   0.00000  Uiso   1.00
C203   C     0.06396   0.52076   0.48708   0.00000  Uiso   1.00
C204   C     0.09697   0.51268   0.01481   0.00000  Uiso   1.00
C205   C     0.14440   0.49605   0.48978   0.00000  Uiso   1.00
C206   C     0.15628   0.48554   0.43624   0.00000  Uiso   1.00
C207   C     0.18064   0.48973   0.01578   0.00000  Uiso   1.00
C208   C     0.22631   0.47092   0.48886   0.00000  Uiso   1.00
C209   C     0.23462   0.45647   0.43838   0.00000  Uiso   1.00
C210   C     0.19974   0.46286   0.41290   0.00000  Uiso   1.00
C211   C     0.17318   0.50181   0.06754   0.00000  Uiso   1.00
C212   C     0.25559   0.47889   0.06409   0.00000  Uiso   1.00
C213   C     0.12419   0.49779   0.40753   0.00000  Uiso   1.00
H214   H     0.13932   0.51631   0.08981   0.00000  Uiso   1.00
H215   H     0.05222   0.52316   0.41286   0.00000  Uiso   1.00
H216   H     0.08381   0.51942   0.05581   0.00000  Uiso   1.00
H217   H     0.02801   0.53368   0.00672   0.00000  Uiso   1.00
H218   H     0.20726   0.44922   0.37487   0.00000  Uiso   1.00
C219   C     0.20316   0.64390   0.26549   0.00000  Uiso   1.00
H220   H     0.23127   0.62633   0.27588   0.00000  Uiso   1.00
C221   C     0.20444   0.35318   0.26643   0.00000  Uiso   1.00
C222   C     0.16735   0.37580   0.25258   0.00000  Uiso   1.00
C223   C     0.12973   0.35500   0.23963   0.00000  Uiso   1.00
H224   H     0.10104   0.37153   0.22903   0.00000  Uiso   1.00
C225   C     0.12897   0.64588   0.23930   0.00000  Uiso   1.00
H226   H     0.09990   0.63050   0.22861   0.00000  Uiso   1.00
C227   C     0.16599   0.62365   0.25167   0.00000  Uiso   1.00
C228   C     0.29894   0.52538   0.28253   0.00000  Uiso   1.00
H229   H     0.27255   0.54572   0.30855   0.00000  Uiso   1.00
C230   C     0.01525   0.52532   0.28258   0.00000  Uiso   1.00
H231   H     0.02635   0.54558   0.30865   0.00000  Uiso   1.00
N232   N     0.04931   0.49999   0.24998   0.00000  Uiso   1.00
C233   C     0.03436   0.47457   0.21753   0.00000  Uiso   1.00
H234   H     0.06073   0.45418   0.19155   0.00000  Uiso   1.00
C235   C     0.31803   0.47453   0.21763   0.00000  Uiso   1.00
H236   H     0.30687   0.45409   0.19181   0.00000  Uiso   1.00
N237   N     0.28402   0.50002   0.24999   0.00000  Uiso   1.00
N238   N     0.29523   0.47476   0.08625   0.00000  Uiso   1.00
O239   O     0.31164   0.50719   0.10348   0.00000  Uiso   1.00
O240   O     0.32176   0.44131   0.07844   0.00000  Uiso   1.00
C241   C     0.24513   0.37275   0.28309   0.00000  Uiso   1.00
H242   H     0.22922   0.39405   0.31601   0.00000  Uiso   1.00
H243   H     0.26743   0.34965   0.29665   0.00000  Uiso   1.00
H244   H     0.27072   0.38923   0.24982   0.00000  Uiso   1.00
O245   O     0.46042   0.56011   0.25000   0.00000  Uiso   1.00
O246   O     0.53961   0.56012   0.25000   0.00000  Uiso   1.00
C247   C     0.49974   0.57924   0.25034   0.00000  Uiso   1.00
O248   O     0.44108   0.49998   0.32549   0.00000  Uiso   1.00
O249   O     0.52027   0.49999   0.32549   0.00000  Uiso   1.00
C250   C     0.47368   0.49822   0.35012   0.00000  Uiso   1.00
Cu251  Cu    0.45311   0.49999   0.25000   0.00000  Uiso   1.00
Cu252  Cu    0.54689   0.50001   0.25000   0.00000  Uiso   1.00
O253   O     0.46039   0.43988   0.24999   0.00000  Uiso   1.00
O254   O     0.53958   0.43989   0.24999   0.00000  Uiso   1.00
O255   O     0.47973   0.50001   0.17451   0.00000  Uiso   1.00
O256   O     0.55892   0.50002   0.17451   0.00000  Uiso   1.00
C257   C     0.50006   0.42061   0.25114   0.00000  Uiso   1.00
C258   C     0.52655   0.49958   0.14977   0.00000  Uiso   1.00
C259   C     0.59669   0.46636   0.01269   0.00000  Uiso   1.00
H260   H     0.60175   0.44025   0.41832   0.00000  Uiso   1.00
H261   H     0.63207   0.45318   0.49111   0.00000  Uiso   1.00
C262   C     0.54225   0.49491   0.09268   0.00000  Uiso   1.00
C263   C     0.41098   0.51415   0.43380   0.00000  Uiso   1.00
C264   C     0.39729   0.52076   0.48708   0.00000  Uiso   1.00
C265   C     0.43030   0.51268   0.01481   0.00000  Uiso   1.00
C266   C     0.47773   0.49605   0.48978   0.00000  Uiso   1.00
C267   C     0.48961   0.48554   0.43624   0.00000  Uiso   1.00
C268   C     0.51397   0.48973   0.01578   0.00000  Uiso   1.00
C269   C     0.55965   0.47092   0.48886   0.00000  Uiso   1.00
C270   C     0.56796   0.45647   0.43838   0.00000  Uiso   1.00
C271   C     0.53308   0.46286   0.41290   0.00000  Uiso   1.00
C272   C     0.50651   0.50181   0.06754   0.00000  Uiso   1.00
C273   C     0.58892   0.47889   0.06409   0.00000  Uiso   1.00
C274   C     0.45752   0.49779   0.40753   0.00000  Uiso   1.00
H275   H     0.47265   0.51631   0.08981   0.00000  Uiso   1.00
H276   H     0.38555   0.52316   0.41286   0.00000  Uiso   1.00
H277   H     0.41715   0.51942   0.05581   0.00000  Uiso   1.00
H278   H     0.36134   0.53368   0.00672   0.00000  Uiso   1.00
H279   H     0.54059   0.44922   0.37487   0.00000  Uiso   1.00
C280   C     0.53649   0.64390   0.26549   0.00000  Uiso   1.00
H281   H     0.56460   0.62633   0.27588   0.00000  Uiso   1.00
C282   C     0.53777   0.35318   0.26643   0.00000  Uiso   1.00
C283   C     0.50068   0.37580   0.25258   0.00000  Uiso   1.00
C284   C     0.46306   0.35500   0.23963   0.00000  Uiso   1.00
H285   H     0.43437   0.37153   0.22903   0.00000  Uiso   1.00
C286   C     0.46231   0.64588   0.23930   0.00000  Uiso   1.00
H287   H     0.43323   0.63050   0.22861   0.00000  Uiso   1.00
C288   C     0.49933   0.62365   0.25167   0.00000  Uiso   1.00
C289   C     0.63228   0.52538   0.28253   0.00000  Uiso   1.00
H290   H     0.60588   0.54572   0.30855   0.00000  Uiso   1.00
C291   C     0.34858   0.52532   0.28258   0.00000  Uiso   1.00
H292   H     0.35968   0.54558   0.30865   0.00000  Uiso   1.00
N293   N     0.38265   0.49999   0.24998   0.00000  Uiso   1.00
C294   C     0.36769   0.47457   0.21753   0.00000  Uiso   1.00
H295   H     0.39406   0.45418   0.19155   0.00000  Uiso   1.00
C296   C     0.65136   0.47453   0.21763   0.00000  Uiso   1.00
H297   H     0.64020   0.45409   0.19181   0.00000  Uiso   1.00
N298   N     0.61735   0.50002   0.24999   0.00000  Uiso   1.00
N299   N     0.62856   0.47476   0.08625   0.00000  Uiso   1.00
O300   O     0.64497   0.50719   0.10348   0.00000  Uiso   1.00
O301   O     0.65510   0.44131   0.07844   0.00000  Uiso   1.00
C302   C     0.57846   0.37275   0.28309   0.00000  Uiso   1.00
H303   H     0.56255   0.39405   0.31601   0.00000  Uiso   1.00
H304   H     0.60076   0.34965   0.29665   0.00000  Uiso   1.00
H305   H     0.60405   0.38923   0.24982   0.00000  Uiso   1.00
O306   O     0.79375   0.56011   0.25000   0.00000  Uiso   1.00
O307   O     0.87294   0.56012   0.25000   0.00000  Uiso   1.00
C308   C     0.83307   0.57924   0.25034   0.00000  Uiso   1.00
O309   O     0.77441   0.49998   0.32549   0.00000  Uiso   1.00
O310   O     0.85360   0.49999   0.32549   0.00000  Uiso   1.00
C311   C     0.80702   0.49822   0.35012   0.00000  Uiso   1.00
Cu312  Cu    0.78645   0.49999   0.25000   0.00000  Uiso   1.00
Cu313  Cu    0.88022   0.50001   0.25000   0.00000  Uiso   1.00
O314   O     0.79373   0.43988   0.24999   0.00000  Uiso   1.00
O315   O     0.87292   0.43989   0.24999   0.00000  Uiso   1.00
O316   O     0.81306   0.50001   0.17451   0.00000  Uiso   1.00
O317   O     0.89225   0.50002   0.17451   0.00000  Uiso   1.00
C318   C     0.83340   0.42061   0.25114   0.00000  Uiso   1.00
C319   C     0.85988   0.49958   0.14977   0.00000  Uiso   1.00
C320   C     0.93003   0.46636   0.01269   0.00000  Uiso   1.00
H321   H     0.93508   0.44025   0.41832   0.00000  Uiso   1.00
H322   H     0.96540   0.45318   0.49111   0.00000  Uiso   1.00
C323   C     0.87559   0.49491   0.09268   0.00000  Uiso   1.00
C324   C     0.74431   0.51415   0.43380   0.00000  Uiso   1.00
C325   C     0.73062   0.52076   0.48708   0.00000  Uiso   1.00
C326   C     0.76364   0.51268   0.01481   0.00000  Uiso   1.00
C327   C     0.81107   0.49605   0.48978   0.00000  Uiso   1.00
C328   C     0.82294   0.48554   0.43624   0.00000  Uiso   1.00
C329   C     0.84730   0.48973   0.01578   0.00000  Uiso   1.00
C330   C     0.89298   0.47092   0.48886   0.00000  Uiso   1.00
C331   C     0.90129   0.45647   0.43838   0.00000  Uiso   1.00
C332   C     0.86641   0.46286   0.41290   0.00000  Uiso   1.00
C333   C     0.83985   0.50181   0.06754   0.00000  Uiso   1.00
C334   C     0.92225   0.47889   0.06409   0.00000  Uiso   1.00
C335   C     0.79086   0.49779   0.40753   0.00000  Uiso   1.00
H336   H     0.80599   0.51631   0.08981   0.00000  Uiso   1.00
H337   H     0.71889   0.52316   0.41286   0.00000  Uiso   1.00
H338   H     0.75048   0.51942   0.05581   0.00000  Uiso   1.00
H339   H     0.69468   0.53368   0.00672   0.00000  Uiso   1.00
H340   H     0.87392   0.44922   0.37487   0.00000  Uiso   1.00
C341   C     0.86982   0.64390   0.26549   0.00000  Uiso   1.00
H342   H     0.89794   0.62633   0.27588   0.00000  Uiso   1.00
C343   C     0.87110   0.35318   0.26643   0.00000  Uiso   1.00
C344   C     0.83401   0.37580   0.25258   0.00000  Uiso   1.00
C345   C     0.79639   0.35500   0.23963   0.00000  Uiso   1.00
H346   H     0.76770   0.37153   0.22903   0.00000  Uiso   1.00
C347   C     0.79564   0.64588   0.23930   0.00000  Uiso   1.00
H348   H     0.76657   0.63050   0.22861   0.00000  Uiso   1.00
C349   C     0.83266   0.62365   0.25167   0.00000  Uiso   1.00
C350   C     0.96561   0.52538   0.28253   0.00000  Uiso   1.00
H351   H     0.93922   0.54572   0.30855   0.00000  Uiso   1.00
C352   C     0.68191   0.52532   0.28258   0.00000  Uiso   1.00
H353   H     0.69301   0.54558   0.30865   0.00000  Uiso   1.00
N354   N     0.71598   0.49999   0.24998   0.00000  Uiso   1.00
C355   C     0.70103   0.47457   0.21753   0.00000  Uiso   1.00
H356   H     0.72739   0.45418   0.19155   0.00000  Uiso   1.00
C357   C     0.98469   0.47453   0.21763   0.00000  Uiso   1.00
H358   H     0.97354   0.45409   0.19181   0.00000  Uiso   1.00
N359   N     0.95069   0.50002   0.24999   0.00000  Uiso   1.00
N360   N     0.96189   0.47476   0.08625   0.00000  Uiso   1.00
O361   O     0.97831   0.50719   0.10348   0.00000  Uiso   1.00
O362   O     0.98843   0.44131   0.07844   0.00000  Uiso   1.00
C363   C     0.91180   0.37275   0.28309   0.00000  Uiso   1.00
H364   H     0.89588   0.39405   0.31601   0.00000  Uiso   1.00
H365   H     0.93409   0.34965   0.29665   0.00000  Uiso   1.00
H366   H     0.93738   0.38923   0.24982   0.00000  Uiso   1.00
O367   O     0.12708   0.89345   0.25000   0.00000  Uiso   1.00
O368   O     0.20627   0.89346   0.25000   0.00000  Uiso   1.00
C369   C     0.16641   0.91257   0.25034   0.00000  Uiso   1.00
O370   O     0.10775   0.83332   0.32549   0.00000  Uiso   1.00
O371   O     0.18694   0.83333   0.32549   0.00000  Uiso   1.00
C372   C     0.14035   0.83156   0.35012   0.00000  Uiso   1.00
Cu373  Cu    0.11978   0.83333   0.25000   0.00000  Uiso   1.00
Cu374  Cu    0.21355   0.83334   0.25000   0.00000  Uiso   1.00
O375   O     0.12706   0.77321   0.24999   0.00000  Uiso   1.00
O376   O     0.20625   0.77322   0.24999   0.00000  Uiso   1.00
O377   O     0.14640   0.83334   0.17451   0.00000  Uiso   1.00
O378   O     0.22559   0.83335   0.17451   0.00000  Uiso   1.00
C379   C     0.16673   0.75394   0.25114   0.00000  Uiso   1.00
C380   C     0.19321   0.83292   0.14977   0.00000  Uiso   1.00
C381   C     0.26336   0.79969   0.01269   0.00000  Uiso   1.00
H382   H     0.26841   0.77358   0.41832   0.00000  Uiso   1.00
H383   H     0.29873   0.78651   0.49111   0.00000  Uiso   1.00
C384   C     0.20892   0.82825   0.09268   0.00000  Uiso   1.00
C385   C     0.07765   0.84748   0.43380   0.00000  Uiso   1.00
C386   C     0.06396   0.85410   0.48708   0.00000  Uiso   1.00
C387   C     0.09697   0.84601   0.01481   0.00000  Uiso   1.00
C388   C     0.14440   0.82939   0.48978   0.00000  Uiso   1.00
C389   C     0.15628   0.81887   0.43624   0.00000  Uiso   1.00
C390   C     0.18064   0.82306   0.01578   0.00000  Uiso   1.00
C391   C     0.22631   0.80425   0.48886   0.00000  Uiso   1.00
C392   C     0.23462   0.78981   0.43838   0.00000  Uiso   1.00
C393   C     0.19974   0.79619   0.41290   0.00000  Uiso   1.00
C394   C     0.17318   0.83515   0.06754   0.00000  Uiso   1.00
C395   C     0.25559   0.81222   0.06409   0.00000  Uiso   1.00
C396   C     0.12419   0.83112   0.40753   0.00000  Uiso   1.00
H397   H     0.13932   0.84965   0.08981   0.00000  Uiso   1.00
H398   H     0.05222   0.85649   0.41286   0.00000  Uiso   1.00
H399   H     0.08381   0.85276   0.05581   0.00000  Uiso   1.00
H400   H     0.02801   0.86702   0.00672   0.00000  Uiso   1.00
H401   H     0.20726   0.78255   0.37487   0.00000  Uiso   1.00
C402   C     0.20316   0.97723   0.26549   0.00000  Uiso   1.00
H403   H     0.23127   0.95966   0.27588   0.00000  Uiso   1.00
C404   C     0.20444   0.68651   0.26643   0.00000  Uiso   1.00
C405   C     0.16735   0.70913   0.25258   0.00000  Uiso   1.00
C406   C     0.12973   0.68833   0.23963   0.00000  Uiso   1.00
H407   H     0.10104   0.70487   0.22903   0.00000  Uiso   1.00
C408   C     0.12897   0.97921   0.23930   0.00000  Uiso   1.00
H409   H     0.09990   0.96383   0.22861   0.00000  Uiso   1.00
C410   C     0.16599   0.95699   0.25167   0.00000  Uiso   1.00
C411   C     0.29894   0.85871   0.28253   0.00000  Uiso   1.00
H412   H     0.27255   0.87906   0.30855   0.00000  Uiso   1.00
C413   C     0.01525   0.85865   0.28258   0.00000  Uiso   1.00
H414   H     0.02635   0.87891   0.30865   0.00000  Uiso   1.00
N415   N     0.04931   0.83332   0.24998   0.00000  Uiso   1.00
C416   C     0.03436   0.80790   0.21753   0.00000  Uiso   1.00
H417   H     0.06073   0.78752   0.19155   0.00000  Uiso   1.00
C418   C     0.31803   0.80786   0.21763   0.00000  Uiso   1.00
H419   H     0.30687   0.78742   0.19181   0.00000  Uiso   1.00
N420   N     0.28402   0.83335   0.24999   0.00000  Uiso   1.00
N421   N     0.29523   0.80810   0.08625   0.00000  Uiso   1.00
O422   O     0.31164   0.84053   0.10348   0.00000  Uiso   1.00
O423   O     0.32176   0.77464   0.07844   0.00000  Uiso   1.00
C424   C     0.24513   0.70608   0.28309   0.00000  Uiso   1.00
H425   H     0.22922   0.72739   0.31601   0.00000  Uiso   1.00
H426   H     0.26743   0.68299   0.29665   0.00000  Uiso   1.00
H427   H     0.27072   0.72256   0.24982   0.00000  Uiso   1.00
O428   O     0.46042   0.89345   0.25000   0.00000  Uiso   1.00
O429   O     0.53961   0.89346   0.25000   0.00000  Uiso   1.00
C430   C     0.49974   0.91257   0.25034   0.00000  Uiso   1.00
O431   O     0.44108   0.83332   0.32549   0.00000  Uiso   1.00
O432   O     0.52027   0.83333   0.32549   0.00000  Uiso   1.00
C433   C     0.47368   0.83156   0.35012   0.00000  Uiso   1.00
Cu434  Cu    0.45311   0.83333   0.25000   0.00000  Uiso   1.00
Cu435  Cu    0.54689   0.83334   0.25000   0.00000  Uiso   1.00
O436   O     0.46039   0.77321   0.24999   0.00000  Uiso   1.00
O437   O     0.53958   0.77322   0.24999   0.00000  Uiso   1.00
O438   O     0.47973   0.83334   0.17451   0.00000  Uiso   1.00
O439   O     0.55892   0.83335   0.17451   0.00000  Uiso   1.00
C440   C     0.50006   0.75394   0.25114   0.00000  Uiso   1.00
C441   C     0.52655   0.83292   0.14977   0.00000  Uiso   1.00
C442   C     0.59669   0.79969   0.01269   0.00000  Uiso   1.00
H443   H     0.60175   0.77358   0.41832   0.00000  Uiso   1.00
H444   H     0.63207   0.78651   0.49111   0.00000  Uiso   1.00
C445   C     0.54225   0.82825   0.09268   0.00000  Uiso   1.00
C446   C     0.41098   0.84748   0.43380   0.00000  Uiso   1.00
C447   C     0.39729   0.85410   0.48708   0.00000  Uiso   1.00
C448   C     0.43030   0.84601   0.01481   0.00000  Uiso   1.00
C449   C     0.47773   0.82939   0.48978   0.00000  Uiso   1.00
C450   C     0.48961   0.81887   0.43624   0.00000  Uiso   1.00
C451   C     0.51397   0.82306   0.01578   0.00000  Uiso   1.00
C452   C     0.55965   0.80425   0.48886   0.00000  Uiso   1.00
C453   C     0.56796   0.78981   0.43838   0.00000  Uiso   1.00
C454   C     0.53308   0.79619   0.41290   0.00000  Uiso   1.00
C455   C     0.50651   0.83515   0.06754   0.00000  Uiso   1.00
C456   C     0.58892   0.81222   0.06409   0.00000  Uiso   1.00
C457   C     0.45752   0.83112   0.40753   0.00000  Uiso   1.00
H458   H     0.47265   0.84965   0.08981   0.00000  Uiso   1.00
H459   H     0.38555   0.85649   0.41286   0.00000  Uiso   1.00
H460   H     0.41715   0.85276   0.05581   0.00000  Uiso   1.00
H461   H     0.36134   0.86702   0.00672   0.00000  Uiso   1.00
H462   H     0.54059   0.78255   0.37487   0.00000  Uiso   1.00
C463   C     0.53649   0.97723   0.26549   0.00000  Uiso   1.00
H464   H     0.56460   0.95966   0.27588   0.00000  Uiso   1.00
C465   C     0.53777   0.68651   0.26643   0.00000  Uiso   1.00
C466   C     0.50068   0.70913   0.25258   0.00000  Uiso   1.00
C467   C     0.46306   0.68833   0.23963   0.00000  Uiso   1.00
H468   H     0.43437   0.70487   0.22903   0.00000  Uiso   1.00
C469   C     0.46231   0.97921   0.23930   0.00000  Uiso   1.00
H470   H     0.43323   0.96383   0.22861   0.00000  Uiso   1.00
C471   C     0.49933   0.95699   0.25167   0.00000  Uiso   1.00
C472   C     0.63228   0.85871   0.28253   0.00000  Uiso   1.00
H473   H     0.60588   0.87906   0.30855   0.00000  Uiso   1.00
C474   C     0.34858   0.85865   0.28258   0.00000  Uiso   1.00
H475   H     0.35968   0.87891   0.30865   0.00000  Uiso   1.00
N476   N     0.38265   0.83332   0.24998   0.00000  Uiso   1.00
C477   C     0.36769   0.80790   0.21753   0.00000  Uiso   1.00
H478   H     0.39406   0.78752   0.19155   0.00000  Uiso   1.00
C479   C     0.65136   0.80786   0.21763   0.00000  Uiso   1.00
H480   H     0.64020   0.78742   0.19181   0.00000  Uiso   1.00
N481   N     0.61735   0.83335   0.24999   0.00000  Uiso   1.00
N482   N     0.62856   0.80810   0.08625   0.00000  Uiso   1.00
O483   O     0.64497   0.84053   0.10348   0.00000  Uiso   1.00
O484   O     0.65510   0.77464   0.07844   0.00000  Uiso   1.00
C485   C     0.57846   0.70608   0.28309   0.00000  Uiso   1.00
H486   H     0.56255   0.72739   0.31601   0.00000  Uiso   1.00
H487   H     0.60076   0.68299   0.29665   0.00000  Uiso   1.00
H488   H     0.60405   0.72256   0.24982   0.00000  Uiso   1.00
O489   O     0.79375   0.89345   0.25000   0.00000  Uiso   1.00
O490   O     0.87294   0.89346   0.25000   0.00000  Uiso   1.00
C491   C     0.83307   0.91257   0.25034   0.00000  Uiso   1.00
O492   O     0.77441   0.83332   0.32549   0.00000  Uiso   1.00
O493   O     0.85360   0.83333   0.32549   0.00000  Uiso   1.00
C494   C     0.80702   0.83156   0.35012   0.00000  Uiso   1.00
Cu495  Cu    0.78645   0.83333   0.25000   0.00000  Uiso   1.00
Cu496  Cu    0.88022   0.83334   0.25000   0.00000  Uiso   1.00
O497   O     0.79373   0.77321   0.24999   0.00000  Uiso   1.00
O498   O     0.87292   0.77322   0.24999   0.00000  Uiso   1.00
O499   O     0.81306   0.83334   0.17451   0.00000  Uiso   1.00
O500   O     0.89225   0.83335   0.17451   0.00000  Uiso   1.00
C501   C     0.83340   0.75394   0.25114   0.00000  Uiso   1.00
C502   C     0.85988   0.83292   0.14977   0.00000  Uiso   1.00
C503   C     0.93003   0.79969   0.01269   0.00000  Uiso   1.00
H504   H     0.93508   0.77358   0.41832   0.00000  Uiso   1.00
H505   H     0.96540   0.78651   0.49111   0.00000  Uiso   1.00
C506   C     0.87559   0.82825   0.09268   0.00000  Uiso   1.00
C507   C     0.74431   0.84748   0.43380   0.00000  Uiso   1.00
C508   C     0.73062   0.85410   0.48708   0.00000  Uiso   1.00
C509   C     0.76364   0.84601   0.01481   0.00000  Uiso   1.00
C510   C     0.81107   0.82939   0.48978   0.00000  Uiso   1.00
C511   C     0.82294   0.81887   0.43624   0.00000  Uiso   1.00
C512   C     0.84730   0.82306   0.01578   0.00000  Uiso   1.00
C513   C     0.89298   0.80425   0.48886   0.00000  Uiso   1.00
C514   C     0.90129   0.78981   0.43838   0.00000  Uiso   1.00
C515   C     0.86641   0.79619   0.41290   0.00000  Uiso   1.00
C516   C     0.83985   0.83515   0.06754   0.00000  Uiso   1.00
C517   C     0.92225   0.81222   0.06409   0.00000  Uiso   1.00
C518   C     0.79086   0.83112   0.40753   0.00000  Uiso   1.00
H519   H     0.80599   0.84965   0.08981   0.00000  Uiso   1.00
H520   H     0.71889   0.85649   0.41286   0.00000  Uiso   1.00
H521   H     0.75048   0.85276   0.05581   0.00000  Uiso   1.00
H522   H     0.69468   0.86702   0.00672   0.00000  Uiso   1.00
H523   H     0.87392   0.78255   0.37487   0.00000  Uiso   1.00
C524   C     0.86982   0.97723   0.26549   0.00000  Uiso   1.00
H525   H     0.89794   0.95966   0.27588   0.00000  Uiso   1.00
C526   C     0.87110   0.68651   0.26643   0.00000  Uiso   1.00
C527   C     0.83401   0.70913   0.25258   0.00000  Uiso   1.00
C528   C     0.79639   0.68833   0.23963   0.00000  Uiso   1.00
H529   H     0.76770   0.70487   0.22903   0.00000  Uiso   1.00
C530   C     0.79564   0.97921   0.23930   0.00000  Uiso   1.00
H531   H     0.76657   0.96383   0.22861   0.00000  Uiso   1.00
C532   C     0.83266   0.95699   0.25167   0.00000  Uiso   1.00
C533   C     0.96561   0.85871   0.28253   0.00000  Uiso   1.00
H534   H     0.93922   0.87906   0.30855   0.00000  Uiso   1.00
C535   C     0.68191   0.85865   0.28258   0.00000  Uiso   1.00
H536   H     0.69301   0.87891   0.30865   0.00000  Uiso   1.00
N537   N     0.71598   0.83332   0.24998   0.00000  Uiso   1.00
C538   C     0.70103   0.80790   0.21753   0.00000  Uiso   1.00
H539   H     0.72739   0.78752   0.19155   0.00000  Uiso   1.00
C540   C     0.98469   0.80786   0.21763   0.00000  Uiso   1.00
H541   H     0.97354   0.78742   0.19181   0.00000  Uiso   1.00
N542   N     0.95069   0.83335   0.24999   0.00000  Uiso   1.00
N543   N     0.96189   0.80810   0.08625   0.00000  Uiso   1.00
O544   O     0.97831   0.84053   0.10348   0.00000  Uiso   1.00
O545   O     0.98843   0.77464   0.07844   0.00000  Uiso   1.00
C546   C     0.91180   0.70608   0.28309   0.00000  Uiso   1.00
H547   H     0.89588   0.72739   0.31601   0.00000  Uiso   1.00
H548   H     0.93409   0.68299   0.29665   0.00000  Uiso   1.00
H549   H     0.93738   0.72256   0.24982   0.00000  Uiso   1.00
O550   O     0.12708   0.22678   0.75000   0.00000  Uiso   1.00
O551   O     0.20627   0.22679   0.75000   0.00000  Uiso   1.00
C552   C     0.16641   0.24590   0.75034   0.00000  Uiso   1.00
O553   O     0.10775   0.16665   0.82549   0.00000  Uiso   1.00
O554   O     0.18694   0.16666   0.82549   0.00000  Uiso   1.00
C555   C     0.14035   0.16489   0.85012   0.00000  Uiso   1.00
Cu556  Cu    0.11978   0.16666   0.75000   0.00000  Uiso   1.00
Cu557  Cu    0.21355   0.16667   0.75000   0.00000  Uiso   1.00
O558   O     0.12706   0.10654   0.74999   0.00000  Uiso   1.00
O559   O     0.20625   0.10655   0.74999   0.00000  Uiso   1.00
O560   O     0.14640   0.16667   0.67451   0.00000  Uiso   1.00
O561   O     0.22559   0.16668   0.67451   0.00000  Uiso   1.00
C562   C     0.16673   0.08728   0.75114   0.00000  Uiso   1.00
C563   C     0.19321   0.16625   0.64977   0.00000  Uiso   1.00
C564   C     0.26336   0.13303   0.51269   0.00000  Uiso   1.00
H565   H     0.26841   0.10691   0.91832   0.00000  Uiso   1.00
H566   H     0.29873   0.11984   0.99111   0.00000  Uiso   1.00
C567   C     0.20892   0.16158   0.59268   0.00000  Uiso   1.00
C568   C     0.07765   0.18082   0.93380   0.00000  Uiso   1.00
C569   C     0.06396   0.18743   0.98708   0.00000  Uiso   1.00
C570   C     0.09697   0.17935   0.51481   0.00000  Uiso   1.00
C571   C     0.14440   0.16272   0.98978   0.00000  Uiso   1.00
C572   C     0.15628   0.15220   0.93624   0.00000  Uiso   1.00
C573   C     0.18064   0.15640   0.51578   0.00000  Uiso   1.00
C574   C     0.22631   0.13759   0.98886   0.00000  Uiso   1.00
C575   C     0.23462   0.12314   0.93838   0.00000  Uiso   1.00
C576   C     0.19974   0.12952   0.91290   0.00000  Uiso   1.00
C577   C     0.17318   0.16848   0.56754   0.00000  Uiso   1.00
C578   C     0.25559   0.14556   0.56409   0.00000  Uiso   1.00
C579   C     0.12419   0.16446   0.90753   0.00000  Uiso   1.00
H580   H     0.13932   0.18298   0.58981   0.00000  Uiso   1.00
H581   H     0.05222   0.18983   0.91286   0.00000  Uiso   1.00
H582   H     0.08381   0.18609   0.55581   0.00000  Uiso   1.00
H583   H     0.02801   0.20035   0.50672   0.00000  Uiso   1.00
H584   H     0.20726   0.11588   0.87487   0.00000  Uiso   1.00
C585   C     0.20316   0.31056   0.76549   0.00000  Uiso   1.00
H586   H     0.23127   0.29299   0.77588   0.00000  Uiso   1.00
C587   C     0.20444   0.01985   0.76643   0.00000  Uiso   1.00
C588   C     0.16735   0.04246   0.75258   0.00000  Uiso   1.00
C589   C     0.12973   0.02166   0.73963   0.00000  Uiso   1.00
H590   H     0.10104   0.03820   0.72903   0.00000  Uiso   1.00
C591   C     0.12897   0.31254   0.73930   0.00000  Uiso   1.00
H592   H     0.09990   0.29716   0.72861   0.00000  Uiso   1.00
C593   C     0.16599   0.29032   0.75167   0.00000  Uiso   1.00
C594   C     0.29894   0.19205   0.78253   0.00000  Uiso   1.00
H595   H     0.27255   0.21239   0.80855   0.00000  Uiso   1.00
C596   C     0.01525   0.19198   0.78258   0.00000  Uiso   1.00
H597   H     0.02635   0.21224   0.80865   0.00000  Uiso   1.00
N598   N     0.04931   0.16666   0.74998   0.00000  Uiso   1.00
C599   C     0.03436   0.14123   0.71753   0.00000  Uiso   1.00
H600   H     0.06073   0.12085   0.69155   0.00000  Uiso   1.00
C601   C     0.31803   0.14119   0.71763   0.00000  Uiso   1.00
H602   H     0.30687   0.12075   0.69181   0.00000  Uiso   1.00
N603   N     0.28402   0.16669   0.74999   0.00000  Uiso   1.00
N604   N     0.29523   0.14143   0.58625   0.00000  Uiso   1.00
O605   O     0.31164   0.17386   0.60348   0.00000  Uiso   1.00
O606   O     0.32176   0.10797   0.57844   0.00000  Uiso   1.00
C607   C     0.24513   0.03942   0.78309   0.00000  Uiso   1.00
H608   H     0.22922   0.06072   0.81601   0.00000  Uiso   1.00
H609   H     0.26743   0.01632   0.79665   0.00000  Uiso   1.00
H610   H     0.27072   0.05590   0.74982   0.00000  Uiso   1.00
O611   O     0.46042   0.22678   0.75000   0.00000  Uiso   1.00
O612   O     0.53961   0.22679   0.75000   0.00000  Uiso   1.00
C613   C     0.49974   0.24590   0.75034   0.00000  Uiso   1.00
O614   O     0.44108   0.16665   0.82549   0.00000  Uiso   1.00
O615   O     0.52027   0.16666   0.82549   0.00000  Uiso   1.00
C616   C     0.47368   0.16489   0.85012   0.00000  Uiso   1.00
Cu617  Cu    0.45311   0.16666   0.75000   0.00000  Uiso   1.00
Cu618  Cu    0.54689   0.16667   0.75000   0.00000  Uiso   1.00
O619   O     0.46039   0.10654   0.74999   0.00000  Uiso   1.00
O620   O     0.53958   0.10655   0.74999   0.00000  Uiso   1.00
O621   O     0.47973   0.16667   0.67451   0.00000  Uiso   1.00
O622   O     0.55892   0.16668   0.67451   0.00000  Uiso   1.00
C623   C     0.50006   0.08728   0.75114   0.00000  Uiso   1.00
C624   C     0.52655   0.16625   0.64977   0.00000  Uiso   1.00
C625   C     0.59669   0.13303   0.51269   0.00000  Uiso   1.00
H626   H     0.60175   0.10691   0.91832   0.00000  Uiso   1.00
H627   H     0.63207   0.11984   0.99111   0.00000  Uiso   1.00
C628   C     0.54225   0.16158   0.59268   0.00000  Uiso   1.00
C629   C     0.41098   0.18082   0.93380   0.00000  Uiso   1.00
C630   C     0.39729   0.18743   0.98708   0.00000  Uiso   1.00
C631   C     0.43030   0.17935   0.51481   0.00000  Uiso   1.00
C632   C     0.47773   0.16272   0.98978   0.00000  Uiso   1.00
C633   C     0.48961   0.15220   0.93624   0.00000  Uiso   1.00
C634   C     0.51397   0.15640   0.51578   0.00000  Uiso   1.00
C635   C     0.55965   0.13759   0.98886   0.00000  Uiso   1.00
C636   C     0.56796   0.12314   0.93838   0.00000  Uiso   1.00
C637   C     0.53308   0.12952   0.91290   0.00000  Uiso   1.00
C638   C     0.50651   0.16848   0.56754   0.00000  Uiso   1.00
C639   C     0.58892   0.14556   0.56409   0.00000  Uiso   1.00
C640   C     0.45752   0.16446   0.90753   0.00000  Uiso   1.00
H641   H     0.47265   0.18298   0.58981   0.00000  Uiso   1.00
H642   H     0.38555   0.18983   0.91286   0.00000  Uiso   1.00
H643   H     0.41715   0.18609   0.55581   0.00000  Uiso   1.00
H644   H     0.36134   0.20035   0.50672   0.00000  Uiso   1.00
H645   H     0.54059   0.11588   0.87487   0.00000  Uiso   1.00
C646   C     0.53649   0.31056   0.76549   0.00000  Uiso   1.00
H647   H     0.56460   0.29299   0.77588   0.00000  Uiso   1.00
C648   C     0.53777   0.01985   0.76643   0.00000  Uiso   1.00
C649   C     0.50068   0.04246   0.75258   0.00000  Uiso   1.00
C650   C     0.46306   0.02166   0.73963   0.00000  Uiso   1.00
H651   H     0.43437   0.03820   0.72903   0.00000  Uiso   1.00
C652   C     0.46231   0.31254   0.73930   0.00000  Uiso   1.00
H653   H     0.43323   0.29716   0.72861   0.00000  Uiso   1.00
C654   C     0.49933   0.29032   0.75167   0.00000  Uiso   1.00
C655   C     0.63228   0.19205   0.78253   0.00000  Uiso   1.00
H656   H     0.60588   0.21239   0.80855   0.00000  Uiso   1.00
C657   C     0.34858   0.19198   0.78258   0.00000  Uiso   1.00
H658   H     0.35968   0.21224   0.80865   0.00000  Uiso   1.00
N659   N     0.38265   0.16666   0.74998   0.00000  Uiso   1.00
C660   C     0.36769   0.14123   0.71753   0.00000  Uiso   1.00
H661   H     0.39406   0.12085   0.69155   0.00000  Uiso   1.00
C662   C     0.65136   0.14119   0.71763   0.00000  Uiso   1.00
H663   H     0.64020   0.12075   0.69181   0.00000  Uiso   1.00
N664   N     0.61735   0.16669   0.74999   0.00000  Uiso   1.00
N665   N     0.62856   0.14143   0.58625   0.00000  Uiso   1.00
O666   O     0.64497   0.17386   0.60348   0.00000  Uiso   1.00
O667   O     0.65510   0.10797   0.57844   0.00000  Uiso   1.00
C668   C     0.57846   0.03942   0.78309   0.00000  Uiso   1.00
H669   H     0.56255   0.06072   0.81601   0.00000  Uiso   1.00
H670   H     0.60076   0.01632   0.79665   0.00000  Uiso   1.00
H671   H     0.60405   0.05590   0.74982   0.00000  Uiso   1.00
O672   O     0.79375   0.22678   0.75000   0.00000  Uiso   1.00
O673   O     0.87294   0.22679   0.75000   0.00000  Uiso   1.00
C674   C     0.83307   0.24590   0.75034   0.00000  Uiso   1.00
O675   O     0.77441   0.16665   0.82549   0.00000  Uiso   1.00
O676   O     0.85360   0.16666   0.82549   0.00000  Uiso   1.00
C677   C     0.80702   0.16489   0.85012   0.00000  Uiso   1.00
Cu678  Cu    0.78645   0.16666   0.75000   0.00000  Uiso   1.00
Cu679  Cu    0.88022   0.16667   0.75000   0.00000  Uiso   1.00
O680   O     0.79373   0.10654   0.74999   0.00000  Uiso   1.00
O681   O     0.87292   0.10655   0.74999   0.00000  Uiso   1.00
O682   O     0.81306   0.16667   0.67451   0.00000  Uiso   1.00
O683   O     0.89225   0.16668   0.67451   0.00000  Uiso   1.00
C684   C     0.83340   0.08728   0.75114   0.00000  Uiso   1.00
C685   C     0.85988   0.16625   0.64977   0.00000  Uiso   1.00
C686   C     0.93003   0.13303   0.51269   0.00000  Uiso   1.00
H687   H     0.93508   0.10691   0.91832   0.00000  Uiso   1.00
H688   H     0.96540   0.11984   0.99111   0.00000  Uiso   1.00
C689   C     0.87559   0.16158   0.59268   0.00000  Uiso   1.00
C690   C     0.74431   0.18082   0.93380   0.00000  Uiso   1.00
C691   C     0.73062   0.18743   0.98708   0.00000  Uiso   1.00
C692   C     0.76364   0.17935   0.51481   0.00000  Uiso   1.00
C693   C     0.81107   0.16272   0.98978   0.00000  Uiso   1.00
C694   C     0.82294   0.15220   0.93624   0.00000  Uiso   1.00
C695   C     0.84730   0.15640   0.51578   0.00000  Uiso   1.00
C696   C     0.89298   0.13759   0.98886   0.00000  Uiso   1.00
C697   C     0.90129   0.12314   0.93838   0.00000  Uiso   1.00
C698   C     0.86641   0.12952   0.91290   0.00000  Uiso   1.00
C699   C     0.83985   0.16848   0.56754   0.00000  Uiso   1.00
C700   C     0.92225   0.14556   0.56409   0.00000  Uiso   1.00
C701   C     0.79086   0.16446   0.90753   0.00000  Uiso   1.00
H702   H     0.80599   0.18298   0.58981   0.00000  Uiso   1.00
H703   H     0.71889   0.18983   0.91286   0.00000  Uiso   1.00
H704   H     0.75048   0.18609   0.55581   0.00000  Uiso   1.00
H705   H     0.69468   0.20035   0.50672   0.00000  Uiso   1.00
H706   H     0.87392   0.11588   0.87487   0.00000  Uiso   1.00
C707   C     0.86982   0.31056   0.76549   0.00000  Uiso   1.00
H708   H     0.89794   0.29299   0.77588   0.00000  Uiso   1.00
C709   C     0.87110   0.01985   0.76643   0.00000  Uiso   1.00
C710   C     0.83401   0.04246   0.75258   0.00000  Uiso   1.00
C711   C     0.79639   0.02166   0.73963   0.00000  Uiso   1.00
H712   H     0.76770   0.03820   0.72903   0.00000  Uiso   1.00
C713   C     0.79564   0.31254   0.73930   0.00000  Uiso   1.00
H714   H     0.76657   0.29716   0.72861   0.00000  Uiso   1.00
C715   C     0.83266   0.29032   0.75167   0.00000  Uiso   1.00
C716   C     0.96561   0.19205   0.78253   0.00000  Uiso   1.00
H717   H     0.93922   0.21239   0.80855   0.00000  Uiso   1.00
C718   C     0.68191   0.19198   0.78258   0.00000  Uiso   1.00
H719   H     0.69301   0.21224   0.80865   0.00000  Uiso   1.00
N720   N     0.71598   0.16666   0.74998   0.00000  Uiso   1.00
C721   C     0.70103   0.14123   0.71753   0.00000  Uiso   1.00
H722   H     0.72739   0.12085   0.69155   0.00000  Uiso   1.00
C723   C     0.98469   0.14119   0.71763   0.00000  Uiso   1.00
H724   H     0.97354   0.12075   0.69181   0.00000  Uiso   1.00
N725   N     0.95069   0.16669   0.74999   0.00000  Uiso   1.00
N726   N     0.96189   0.14143   0.58625   0.00000  Uiso   1.00
O727   O     0.97831   0.17386   0.60348   0.00000  Uiso   1.00
O728   O     0.98843   0.10797   0.57844   0.00000  Uiso   1.00
C729   C     0.91180   0.03942   0.78309   0.00000  Uiso   1.00
H730   H     0.89588   0.06072   0.81601   0.00000  Uiso   1.00
H731   H     0.93409   0.01632   0.79665   0.00000  Uiso   1.00
H732   H     0.93738   0.05590   0.74982   0.00000  Uiso   1.00
O733   O     0.12708   0.56011   0.75000   0.00000  Uiso   1.00
O734   O     0.20627   0.56012   0.75000   0.00000  Uiso   1.00
C735   C     0.16641   0.57924   0.75034   0.00000  Uiso   1.00
O736   O     0.10775   0.49998   0.82549   0.00000  Uiso   1.00
O737   O     0.18694   0.49999   0.82549   0.00000  Uiso   1.00
C738   C     0.14035   0.49822   0.85012   0.00000  Uiso   1.00
Cu739  Cu    0.11978   0.49999   0.75000   0.00000  Uiso   1.00
Cu740  Cu    0.21355   0.50001   0.75000   0.00000  Uiso   1.00
O741   O     0.12706   0.43988   0.74999   0.00000  Uiso   1.00
O742   O     0.20625   0.43989   0.74999   0.00000  Uiso   1.00
O743   O     0.14640   0.50001   0.67451   0.00000  Uiso   1.00
O744   O     0.22559   0.50002   0.67451   0.00000  Uiso   1.00
C745   C     0.16673   0.42061   0.75114   0.00000  Uiso   1.00
C746   C     0.19321   0.49958   0.64977   0.00000  Uiso   1.00
C747   C     0.26336   0.46636   0.51269   0.00000  Uiso   1.00
H748   H     0.26841   0.44025   0.91832   0.00000  Uiso   1.00
H749   H     0.29873   0.45318   0.99111   0.00000  Uiso   1.00
C750   C     0.20892   0.49491   0.59268   0.00000  Uiso   1.00
C751   C     0.07765   0.51415   0.93380   0.00000  Uiso   1.00
C752   C     0.06396   0.52076   0.98708   0.00000  Uiso   1.00
C753   C     0.09697   0.51268   0.51481   0.00000  Uiso   1.00
C754   C     0.14440   0.49605   0.98978   0.00000  Uiso   1.00
C755   C     0.15628   0.48554   0.93624   0.00000  Uiso   1.00
C756   C     0.18064   0.48973   0.51578   0.00000  Uiso   1.00
C757   C     0.22631   0.47092   0.98886   0.00000  Uiso   1.00
C758   C     0.23462   0.45647   0.93838   0.00000  Uiso   1.00
C759   C     0.19974   0.46286   0.91290   0.00000  Uiso   1.00
C760   C     0.17318   0.50181   0.56754   0.00000  Uiso   1.00
C761   C     0.25559   0.47889   0.56409   0.00000  Uiso   1.00
C762   C     0.12419   0.49779   0.90753   0.00000  Uiso   1.00
H763   H     0.13932   0.51631   0.58981   0.00000  Uiso   1.00
H764   H     0.05222   0.52316   0.91286   0.00000  Uiso   1.00
H765   H     0.08381   0.51942   0.55581   0.00000  Uiso   1.00
H766   H     0.02801   0.53368   0.50672   0.00000  Uiso   1.00
H767   H     0.20726   0.44922   0.87487   0.00000  Uiso   1.00
C768   C     0.20316   0.64390   0.76549   0.00000  Uiso   1.00
H769   H     0.23127   0.62633   0.77588   0.00000  Uiso   1.00
C770   C     0.20444   0.35318   0.76643   0.00000  Uiso   1.00
C771   C     0.16735   0.37580   0.75258   0.00000  Uiso   1.00
C772   C     0.12973   0.35500   0.73963   0.00000  Uiso   1.00
H773   H     0.10104   0.37153   0.72903   0.00000  Uiso   1.00
C774   C     0.12897   0.64588   0.73930   0.00000  Uiso   1.00
H775   H     0.09990   0.63050   0.72861   0.00000  Uiso   1.00
C776   C     0.16599   0.62365   0.75167   0.00000  Uiso   1.00
C777   C     0.29894   0.52538   0.78253   0.00000  Uiso   1.00
H778   H     0.27255   0.54572   0.80855   0.00000  Uiso   1.00
C779   C     0.01525   0.52532   0.78258   0.00000  Uiso   1.00
H780   H     0.02635   0.54558   0.80865   0.00000  Uiso   1.00
N781   N     0.04931   0.49999   0.74998   0.00000  Uiso   1.00
C782   C     0.03436   0.47457   0.71753   0.00000  Uiso   1.00
H783   H     0.06073   0.45418   0.69155   0.00000  Uiso   1.00
C784   C     0.31803   0.47453   0.71763   0.00000  Uiso   1.00
H785   H     0.30687   0.45409   0.69181   0.00000  Uiso   1.00
N786   N     0.28402   0.50002   0.74999   0.00000  Uiso   1.00
N787   N     0.29523   0.47476   0.58625   0.00000  Uiso   1.00
O788   O     0.31164   0.50719   0.60348   0.00000  Uiso   1.00
O789   O     0.32176   0.44131   0.57844   0.00000  Uiso   1.00
C790   C     0.24513   0.37275   0.78309   0.00000  Uiso   1.00
H791   H     0.22922   0.39405   0.81601   0.00000  Uiso   1.00
H792   H     0.26743   0.34965   0.79665   0.00000  Uiso   1.00
H793   H     0.27072   0.38923   0.74982   0.00000  Uiso   1.00
O794   O     0.46042   0.56011   0.75000   0.00000  Uiso   1.00
O795   O     0.53961   0.56012   0.75000   0.00000  Uiso   1.00
C796   C     0.49974   0.57924   0.75034   0.00000  Uiso   1.00
O797   O     0.44108   0.49998   0.82549   0.00000  Uiso   1.00
O798   O     0.52027   0.49999   0.82549   0.00000  Uiso   1.00
C799   C     0.47368   0.49822   0.85012   0.00000  Uiso   1.00
Cu800  Cu    0.45311   0.49999   0.75000   0.00000  Uiso   1.00
Cu801  Cu    0.54689   0.50001   0.75000   0.00000  Uiso   1.00
O802   O     0.46039   0.43988   0.74999   0.00000  Uiso   1.00
O803   O     0.53958   0.43989   0.74999   0.00000  Uiso   1.00
O804   O     0.47973   0.50001   0.67451   0.00000  Uiso   1.00
O805   O     0.55892   0.50002   0.67451   0.00000  Uiso   1.00
C806   C     0.50006   0.42061   0.75114   0.00000  Uiso   1.00
C807   C     0.52655   0.49958   0.64977   0.00000  Uiso   1.00
C808   C     0.59669   0.46636   0.51269   0.00000  Uiso   1.00
H809   H     0.60175   0.44025   0.91832   0.00000  Uiso   1.00
H810   H     0.63207   0.45318   0.99111   0.00000  Uiso   1.00
C811   C     0.54225   0.49491   0.59268   0.00000  Uiso   1.00
C812   C     0.41098   0.51415   0.93380   0.00000  Uiso   1.00
C813   C     0.39729   0.52076   0.98708   0.00000  Uiso   1.00
C814   C     0.43030   0.51268   0.51481   0.00000  Uiso   1.00
C815   C     0.47773   0.49605   0.98978   0.00000  Uiso   1.00
C816   C     0.48961   0.48554   0.93624   0.00000  Uiso   1.00
C817   C     0.51397   0.48973   0.51578   0.00000  Uiso   1.00
C818   C     0.55965   0.47092   0.98886   0.00000  Uiso   1.00
C819   C     0.56796   0.45647   0.93838   0.00000  Uiso   1.00
C820   C     0.53308   0.46286   0.91290   0.00000  Uiso   1.00
C821   C     0.50651   0.50181   0.56754   0.00000  Uiso   1.00
C822   C     0.58892   0.47889   0.56409   0.00000  Uiso   1.00
C823   C     0.45752   0.49779   0.90753   0.00000  Uiso   1.00
H824   H     0.47265   0.51631   0.58981   0.00000  Uiso   1.00
H825   H     0.38555   0.52316   0.91286   0.00000  Uiso   1.00
H826   H     0.41715   0.51942   0.55581   0.00000  Uiso   1.00
H827   H     0.36134   0.53368   0.50672   0.00000  Uiso   1.00
H828   H     0.54059   0.44922   0.87487   0.00000  Uiso   1.00
C829   C     0.53649   0.64390   0.76549   0.00000  Uiso   1.00
H830   H     0.56460   0.62633   0.77588   0.00000  Uiso   1.00
C831   C     0.53777   0.35318   0.76643   0.00000  Uiso   1.00
C832   C     0.50068   0.37580   0.75258   0.00000  Uiso   1.00
C833   C     0.46306   0.35500   0.73963   0.00000  Uiso   1.00
H834   H     0.43437   0.37153   0.72903   0.00000  Uiso   1.00
C835   C     0.46231   0.64588   0.73930   0.00000  Uiso   1.00
H836   H     0.43323   0.63050   0.72861   0.00000  Uiso   1.00
C837   C     0.49933   0.62365   0.75167   0.00000  Uiso   1.00
C838   C     0.63228   0.52538   0.78253   0.00000  Uiso   1.00
H839   H     0.60588   0.54572   0.80855   0.00000  Uiso   1.00
C840   C     0.34858   0.52532   0.78258   0.00000  Uiso   1.00
H841   H     0.35968   0.54558   0.80865   0.00000  Uiso   1.00
N842   N     0.38265   0.49999   0.74998   0.00000  Uiso   1.00
C843   C     0.36769   0.47457   0.71753   0.00000  Uiso   1.00
H844   H     0.39406   0.45418   0.69155   0.00000  Uiso   1.00
C845   C     0.65136   0.47453   0.71763   0.00000  Uiso   1.00
H846   H     0.64020   0.45409   0.69181   0.00000  Uiso   1.00
N847   N     0.61735   0.50002   0.74999   0.00000  Uiso   1.00
N848   N     0.62856   0.47476   0.58625   0.00000  Uiso   1.00
O849   O     0.64497   0.50719   0.60348   0.00000  Uiso   1.00
O850   O     0.65510   0.44131   0.57844   0.00000  Uiso   1.00
C851   C     0.57846   0.37275   0.78309   0.00000  Uiso   1.00
H852   H     0.56255   0.39405   0.81601   0.00000  Uiso   1.00
H853   H     0.60076   0.34965   0.79665   0.00000  Uiso   1.00
H854   H     0.60405   0.38923   0.74982   0.00000  Uiso   1.00
O855   O     0.79375   0.56011   0.75000   0.00000  Uiso   1.00
O856   O     0.87294   0.56012   0.75000   0.00000  Uiso   1.00
C857   C     0.83307   0.57924   0.75034   0.00000  Uiso   1.00
O858   O     0.77441   0.49998   0.82549   0.00000  Uiso   1.00
O859   O     0.85360   0.49999   0.82549   0.00000  Uiso   1.00
C860   C     0.80702   0.49822   0.85012   0.00000  Uiso   1.00
Cu861  Cu    0.78645   0.49999   0.75000   0.00000  Uiso   1.00
Cu862  Cu    0.88022   0.50001   0.75000   0.00000  Uiso   1.00
O863   O     0.79373   0.43988   0.74999   0.00000  Uiso   1.00
O864   O     0.87292   0.43989   0.74999   0.00000  Uiso   1.00
O865   O     0.81306   0.50001   0.67451   0.00000  Uiso   1.00
O866   O     0.89225   0.50002   0.67451   0.00000  Uiso   1.00
C867   C     0.83340   0.42061   0.75114   0.00000  Uiso   1.00
C868   C     0.85988   0.49958   0.64977   0.00000  Uiso   1.00
C869   C     0.93003   0.46636   0.51269   0.00000  Uiso   1.00
H870   H     0.93508   0.44025   0.91832   0.00000  Uiso   1.00
H871   H     0.96540   0.45318   0.99111   0.00000  Uiso   1.00
C872   C     0.87559   0.49491   0.59268   0.00000  Uiso   1.00
C873   C     0.74431   0.51415   0.93380   0.00000  Uiso   1.00
C874   C     0.73062   0.52076   0.98708   0.00000  Uiso   1.00
C875   C     0.76364   0.51268   0.51481   0.00000  Uiso   1.00
C876   C     0.81107   0.49605   0.98978   0.00000  Uiso   1.00
C877   C     0.82294   0.48554   0.93624   0.00000  Uiso   1.00
C878   C     0.84730   0.48973   0.51578   0.00000  Uiso   1.00
C879   C     0.89298   0.47092   0.98886   0.00000  Uiso   1.00
C880   C     0.90129   0.45647   0.93838   0.00000  Uiso   1.00
C881   C     0.86641   0.46286   0.91290   0.00000  Uiso   1.00
C882   C     0.83985   0.50181   0.56754   0.00000  Uiso   1.00
C883   C     0.92225   0.47889   0.56409   0.00000  Uiso   1.00
C884   C     0.79086   0.49779   0.90753   0.00000  Uiso   1.00
H885   H     0.80599   0.51631   0.58981   0.00000  Uiso   1.00
H886   H     0.71889   0.52316   0.91286   0.00000  Uiso   1.00
H887   H     0.75048   0.51942   0.55581   0.00000  Uiso   1.00
H888   H     0.69468   0.53368   0.50672   0.00000  Uiso   1.00
H889   H     0.87392   0.44922   0.87487   0.00000  Uiso   1.00
C890   C     0.86982   0.64390   0.76549   0.00000  Uiso   1.00
H891   H     0.89794   0.62633   0.77588   0.00000  Uiso   1.00
C892   C     0.87110   0.35318   0.76643   0.00000  Uiso   1.00
C893   C     0.83401   0.37580   0.75258   0.00000  Uiso   1.00
C894   C     0.79639   0.35500   0.73963   0.00000  Uiso   1.00
H895   H     0.76770   0.37153   0.72903   0.00000  Uiso   1.00
C896   C     0.79564   0.64588   0.73930   0.00000  Uiso   1.00
H897   H     0.76657   0.63050   0.72861   0.00000  Uiso   1.00
C898   C     0.83266   0.62365   0.75167   0.00000  Uiso   1.00
C899   C     0.96561   0.52538   0.78253   0.00000  Uiso   1.00
H900   H     0.93922   0.54572   0.80855   0.00000  Uiso   1.00
C901   C     0.68191   0.52532   0.78258   0.00000  Uiso   1.00
H902   H     0.69301   0.54558   0.80865   0.00000  Uiso   1.00
N903   N     0.71598   0.49999   0.74998   0.00000  Uiso   1.00
C904   C     0.70103   0.47457   0.71753   0.00000  Uiso   1.00
H905   H     0.72739   0.45418   0.69155   0.00000  Uiso   1.00
C906   C     0.98469   0.47453   0.71763   0.00000  Uiso   1.00
H907   H     0.97354   0.45409   0.69181   0.00000  Uiso   1.00
N908   N     0.95069   0.50002   0.74999   0.00000  Uiso   1.00
N909   N     0.96189   0.47476   0.58625   0.00000  Uiso   1.00
O910   O     0.97831   0.50719   0.60348   0.00000  Uiso   1.00
O911   O     0.98843   0.44131   0.57844   0.00000  Uiso   1.00
C912   C     0.91180   0.37275   0.78309   0.00000  Uiso   1.00
H913   H     0.89588   0.39405   0.81601   0.00000  Uiso   1.00
H914   H     0.93409   0.34965   0.79665   0.00000  Uiso   1.00
H915   H     0.93738   0.38923   0.74982   0.00000  Uiso   1.00
O916   O     0.12708   0.89345   0.75000   0.00000  Uiso   1.00
O917   O     0.20627   0.89346   0.75000   0.00000  Uiso   1.00
C918   C     0.16641   0.91257   0.75034   0.00000  Uiso   1.00
O919   O     0.10775   0.83332   0.82549   0.00000  Uiso   1.00
O920   O     0.18694   0.83333   0.82549   0.00000  Uiso   1.00
C921   C     0.14035   0.83156   0.85012   0.00000  Uiso   1.00
Cu922  Cu    0.11978   0.83333   0.75000   0.00000  Uiso   1.00
Cu923  Cu    0.21355   0.83334   0.75000   0.00000  Uiso   1.00
O924   O     0.12706   0.77321   0.74999   0.00000  Uiso   1.00
O925   O     0.20625   0.77322   0.74999   0.00000  Uiso   1.00
O926   O     0.14640   0.83334   0.67451   0.00000  Uiso   1.00
O927   O     0.22559   0.83335   0.67451   0.00000  Uiso   1.00
C928   C     0.16673   0.75394   0.75114   0.00000  Uiso   1.00
C929   C     0.19321   0.83292   0.64977   0.00000  Uiso   1.00
C930   C     0.26336   0.79969   0.51269   0.00000  Uiso   1.00
H931   H     0.26841   0.77358   0.91832   0.00000  Uiso   1.00
H932   H     0.29873   0.78651   0.99111   0.00000  Uiso   1.00
C933   C     0.20892   0.82825   0.59268   0.00000  Uiso   1.00
C934   C     0.07765   0.84748   0.93380   0.00000  Uiso   1.00
C935   C     0.06396   0.85410   0.98708   0.00000  Uiso   1.00
C936   C     0.09697   0.84601   0.51481   0.00000  Uiso   1.00
C937   C     0.14440   0.82939   0.98978   0.00000  Uiso   1.00
C938   C     0.15628   0.81887   0.93624   0.00000  Uiso   1.00
C939   C     0.18064   0.82306   0.51578   0.00000  Uiso   1.00
C940   C     0.22631   0.80425   0.98886   0.00000  Uiso   1.00
C941   C     0.23462   0.78981   0.93838   0.00000  Uiso   1.00
C942   C     0.19974   0.79619   0.91290   0.00000  Uiso   1.00
C943   C     0.17318   0.83515   0.56754   0.00000  Uiso   1.00
C944   C     0.25559   0.81222   0.56409   0.00000  Uiso   1.00
C945   C     0.12419   0.83112   0.90753   0.00000  Uiso   1.00
H946   H     0.13932   0.84965   0.58981   0.00000  Uiso   1.00
H947   H     0.05222   0.85649   0.91286   0.00000  Uiso   1.00
H948   H     0.08381   0.85276   0.55581   0.00000  Uiso   1.00
H949   H     0.02801   0.86702   0.50672   0.00000  Uiso   1.00
H950   H     0.20726   0.78255   0.87487   0.00000  Uiso   1.00
C951   C     0.20316   0.97723   0.76549   0.00000  Uiso   1.00
H952   H     0.23127   0.95966   0.77588   0.00000  Uiso   1.00
C953   C     0.20444   0.68651   0.76643   0.00000  Uiso   1.00
C954   C     0.16735   0.70913   0.75258   0.00000  Uiso   1.00
C955   C     0.12973   0.68833   0.73963   0.00000  Uiso   1.00
H956   H     0.10104   0.70487   0.72903   0.00000  Uiso   1.00
C957   C     0.12897   0.97921   0.73930   0.00000  Uiso   1.00
H958   H     0.09990   0.96383   0.72861   0.00000  Uiso   1.00
C959   C     0.16599   0.95699   0.75167   0.00000  Uiso   1.00
C960   C     0.29894   0.85871   0.78253   0.00000  Uiso   1.00
H961   H     0.27255   0.87906   0.80855   0.00000  Uiso   1.00
C962   C     0.01525   0.85865   0.78258   0.00000  Uiso   1.00
H963   H     0.02635   0.87891   0.80865   0.00000  Uiso   1.00
N964   N     0.04931   0.83332   0.74998   0.00000  Uiso   1.00
C965   C     0.03436   0.80790   0.71753   0.00000  Uiso   1.00
H966   H     0.06073   0.78752   0.69155   0.00000  Uiso   1.00
C967   C     0.31803   0.80786   0.71763   0.00000  Uiso   1.00
H968   H     0.30687   0.78742   0.69181   0.00000  Uiso   1.00
N969   N     0.28402   0.83335   0.74999   0.00000  Uiso   1.00
N970   N     0.29523   0.80810   0.58625   0.00000  Uiso   1.00
O971   O     0.31164   0.84053   0.60348   0.00000  Uiso   1.00
O972   O     0.32176   0.77464   0.57844   0.00000  Uiso   1.00
C973   C     0.24513   0.70608   0.78309   0.00000  Uiso   1.00
H974   H     0.22922   0.72739   0.81601   0.00000  Uiso   1.00
H975   H     0.26743   0.68299   0.79665   0.00000  Uiso   1.00
H976   H     0.27072   0.72256   0.74982   0.00000  Uiso   1.00
O977   O     0.46042   0.89345   0.75000   0.00000  Uiso   1.00
O978   O     0.53961   0.89346   0.75000   0.00000  Uiso   1.00
C979   C     0.49974   0.91257   0.75034   0.00000  Uiso   1.00
O980   O     0.44108   0.83332   0.82549   0.00000  Uiso   1.00
O981   O     0.52027   0.83333   0.82549   0.00000  Uiso   1.00
C982   C     0.47368   0.83156   0.85012   0.00000  Uiso   1.00
Cu983  Cu    0.45311   0.83333   0.75000   0.00000  Uiso   1.00
Cu984  Cu    0.54689   0.83334   0.75000   0.00000  Uiso   1.00
O985   O     0.46039   0.77321   0.74999   0.00000  Uiso   1.00
O986   O     0.53958   0.77322   0.74999   0.00000  Uiso   1.00
O987   O     0.47973   0.83334   0.67451   0.00000  Uiso   1.00
O988   O     0.55892   0.83335   0.67451   0.00000  Uiso   1.00
C989   C     0.50006   0.75394   0.75114   0.00000  Uiso   1.00
C990   C     0.52655   0.83292   0.64977   0.00000  Uiso   1.00
C991   C     0.59669   0.79969   0.51269   0.00000  Uiso   1.00
H992   H     0.60175   0.77358   0.91832   0.00000  Uiso   1.00
H993   H     0.63207   0.78651   0.99111   0.00000  Uiso   1.00
C994   C     0.54225   0.82825   0.59268   0.00000  Uiso   1.00
C995   C     0.41098   0.84748   0.93380   0.00000  Uiso   1.00
C996   C     0.39729   0.85410   0.98708   0.00000  Uiso   1.00
C997   C     0.43030   0.84601   0.51481   0.00000  Uiso   1.00
C998   C     0.47773   0.82939   0.98978   0.00000  Uiso   1.00
C999   C     0.48961   0.81887   0.93624   0.00000  Uiso   1.00
C1000  C     0.51397   0.82306   0.51578   0.00000  Uiso   1.00
C1001  C     0.55965   0.80425   0.98886   0.00000  Uiso   1.00
C1002  C     0.56796   0.78981   0.93838   0.00000  Uiso   1.00
C1003  C     0.53308   0.79619   0.91290   0.00000  Uiso   1.00
C1004  C     0.50651   0.83515   0.56754   0.00000  Uiso   1.00
C1005  C     0.58892   0.81222   0.56409   0.00000  Uiso   1.00
C1006  C     0.45752   0.83112   0.90753   0.00000  Uiso   1.00
H1007  H     0.47265   0.84965   0.58981   0.00000  Uiso   1.00
H1008  H     0.38555   0.85649   0.91286   0.00000  Uiso   1.00
H1009  H     0.41715   0.85276   0.55581   0.00000  Uiso   1.00
H1010  H     0.36134   0.86702   0.50672   0.00000  Uiso   1.00
H1011  H     0.54059   0.78255   0.87487   0.00000  Uiso   1.00
C1012  C     0.53649   0.97723   0.76549   0.00000  Uiso   1.00
H1013  H     0.56460   0.95966   0.77588   0.00000  Uiso   1.00
C1014  C     0.53777   0.68651   0.76643   0.00000  Uiso   1.00
C1015  C     0.50068   0.70913   0.75258   0.00000  Uiso   1.00
C1016  C     0.46306   0.68833   0.73963   0.00000  Uiso   1.00
H1017  H     0.43437   0.70487   0.72903   0.00000  Uiso   1.00
C1018  C     0.46231   0.97921   0.73930   0.00000  Uiso   1.00
H1019  H     0.43323   0.96383   0.72861   0.00000  Uiso   1.00
C1020  C     0.49933   0.95699   0.75167   0.00000  Uiso   1.00
C1021  C     0.63228   0.85871   0.78253   0.00000  Uiso   1.00
H1022  H     0.60588   0.87906   0.80855   0.00000  Uiso   1.00
C1023  C     0.34858   0.85865   0.78258   0.00000  Uiso   1.00
H1024  H     0.35968   0.87891   0.80865   0.00000  Uiso   1.00
N1025  N     0.38265   0.83332   0.74998   0.00000  Uiso   1.00
C1026  C     0.36769   0.80790   0.71753   0.00000  Uiso   1.00
H1027  H     0.39406   0.78752   0.69155   0.00000  Uiso   1.00
C1028  C     0.65136   0.80786   0.71763   0.00000  Uiso   1.00
H1029  H     0.64020   0.78742   0.69181   0.00000  Uiso   1.00
N1030  N     0.61735   0.83335   0.74999   0.00000  Uiso   1.00
N1031  N     0.62856   0.80810   0.58625   0.00000  Uiso   1.00
O1032  O     0.64497   0.84053   0.60348   0.00000  Uiso   1.00
O1033  O     0.65510   0.77464   0.57844   0.00000  Uiso   1.00
C1034  C     0.57846   0.70608   0.78309   0.00000  Uiso   1.00
H1035  H     0.56255   0.72739   0.81601   0.00000  Uiso   1.00
H1036  H     0.60076   0.68299   0.79665   0.00000  Uiso   1.00
H1037  H     0.60405   0.72256   0.74982   0.00000  Uiso   1.00
O1038  O     0.79375   0.89345   0.75000   0.00000  Uiso   1.00
O1039  O     0.87294   0.89346   0.75000   0.00000  Uiso   1.00
C1040  C     0.83307   0.91257   0.75034   0.00000  Uiso   1.00
O1041  O     0.77441   0.83332   0.82549   0.00000  Uiso   1.00
O1042  O     0.85360   0.83333   0.82549   0.00000  Uiso   1.00
C1043  C     0.80702   0.83156   0.85012   0.00000  Uiso   1.00
Cu1044 Cu    0.78645   0.83333   0.75000   0.00000  Uiso   1.00
Cu1045 Cu    0.88022   0.83334   0.75000   0.00000  Uiso   1.00
O1046  O     0.79373   0.77321   0.74999   0.00000  Uiso   1.00
O1047  O     0.87292   0.77322   0.74999   0.00000  Uiso   1.00
O1048  O     0.81306   0.83334   0.67451   0.00000  Uiso   1.00
O1049  O     0.89225   0.83335   0.67451   0.00000  Uiso   1.00
C1050  C     0.83340   0.75394   0.75114   0.00000  Uiso   1.00
C1051  C     0.85988   0.83292   0.64977   0.00000  Uiso   1.00
C1052  C     0.93003   0.79969   0.51269   0.00000  Uiso   1.00
H1053  H     0.93508   0.77358   0.91832   0.00000  Uiso   1.00
H1054  H     0.96540   0.78651   0.99111   0.00000  Uiso   1.00
C1055  C     0.87559   0.82825   0.59268   0.00000  Uiso   1.00
C1056  C     0.74431   0.84748   0.93380   0.00000  Uiso   1.00
C1057  C     0.73062   0.85410   0.98708   0.00000  Uiso   1.00
C1058  C     0.76364   0.84601   0.51481   0.00000  Uiso   1.00
C1059  C     0.81107   0.82939   0.98978   0.00000  Uiso   1.00
C1060  C     0.82294   0.81887   0.93624   0.00000  Uiso   1.00
C1061  C     0.84730   0.82306   0.51578   0.00000  Uiso   1.00
C1062  C     0.89298   0.80425   0.98886   0.00000  Uiso   1.00
C1063  C     0.90129   0.78981   0.93838   0.00000  Uiso   1.00
C1064  C     0.86641   0.79619   0.91290   0.00000  Uiso   1.00
C1065  C     0.83985   0.83515   0.56754   0.00000  Uiso   1.00
C1066  C     0.92225   0.81222   0.56409   0.00000  Uiso   1.00
C1067  C     0.79086   0.83112   0.90753   0.00000  Uiso   1.00
H1068  H     0.80599   0.84965   0.58981   0.00000  Uiso   1.00
H1069  H     0.71889   0.85649   0.91286   0.00000  Uiso   1.00
H1070  H     0.75048   0.85276   0.55581   0.00000  Uiso   1.00
H1071  H     0.69468   0.86702   0.50672   0.00000  Uiso   1.00
H1072  H     0.87392   0.78255   0.87487   0.00000  Uiso   1.00
C1073  C     0.86982   0.97723   0.76549   0.00000  Uiso   1.00
H1074  H     0.89794   0.95966   0.77588   0.00000  Uiso   1.00
C1075  C     0.87110   0.68651   0.76643   0.00000  Uiso   1.00
C1076  C     0.83401   0.70913   0.75258   0.00000  Uiso   1.00
C1077  C     0.79639   0.68833   0.73963   0.00000  Uiso   1.00
H1078  H     0.76770   0.70487   0.72903   0.00000  Uiso   1.00
C1079  C     0.79564   0.97921   0.73930   0.00000  Uiso   1.00
H1080  H     0.76657   0.96383   0.72861   0.00000  Uiso   1.00
C1081  C     0.83266   0.95699   0.75167   0.00000  Uiso   1.00
C1082  C     0.96561   0.85871   0.78253   0.00000  Uiso   1.00
H1083  H     0.93922   0.87906   0.80855   0.00000  Uiso   1.00
C1084  C     0.68191   0.85865   0.78258   0.00000  Uiso   1.00
H1085  H     0.69301   0.87891   0.80865   0.00000  Uiso   1.00
N1086  N     0.71598   0.83332   0.74998   0.00000  Uiso   1.00
C1087  C     0.70103   0.80790   0.71753   0.00000  Uiso   1.00
H1088  H     0.72739   0.78752   0.69155   0.00000  Uiso   1.00
C1089  C     0.98469   0.80786   0.71763   0.00000  Uiso   1.00
H1090  H     0.97354   0.78742   0.69181   0.00000  Uiso   1.00
N1091  N     0.95069   0.83335   0.74999   0.00000  Uiso   1.00
N1092  N     0.96189   0.80810   0.58625   0.00000  Uiso   1.00
O1093  O     0.97831   0.84053   0.60348   0.00000  Uiso   1.00
O1094  O     0.98843   0.77464   0.57844   0.00000  Uiso   1.00
C1095  C     0.91180   0.70608   0.78309   0.00000  Uiso   1.00
H1096  H     0.89588   0.72739   0.81601   0.00000  Uiso   1.00
H1097  H     0.93409   0.68299   0.79665   0.00000  Uiso   1.00
H1098  H     0.93738   0.72256   0.74982   0.00000  Uiso   1.00
loop_
_geom_bond_atom_site_label_1
_geom_bond_atom_site_label_2
_geom_bond_distance
_geom_bond_site_symmetry_2
_ccdc_geom_bond_type
O1     Cu7     1.971   .     S
O1     C3      1.289   .     A
O2     C3      1.289   .     A
O2     Cu8     1.967   .     S
C3     C44     1.447   .     S
O4     Cu7     1.958   .     S
O4     C6      1.297   .     A
O5     Cu8     1.943   .     S
O5     C6      1.293   .     A
C6     C30     1.474   .     S
Cu7    Cu8     2.673   .     S
Cu7    O11     1.943   .     S
Cu7    N49     2.009   .     S
Cu7    O9      1.967   .     S
Cu8    O12     1.958   .     S
Cu8    O10     1.971   .     S
Cu8    N54     2.009   .     S
O9     C13     1.297   .     A
O10    C13     1.287   .     A
O11    C14     1.298   .     A
O12    C14     1.292   .     A
C13    C39     1.460   .     S
C14    C18     1.474   .     S
C15    C29     1.396   .     A
C15    H566    1.085   1_554 S
C15    C574    1.400   1_554 S
H16    C26     1.084   .     S
H17    C564    1.085   .     S
C18    C28     1.401   .     A
C18    C29     1.415   .     A
C19    C20     1.386   .     A
C19    H32     1.083   .     S
C19    C30     1.402   .     A
C20    C570    1.391   .     S
C20    H583    1.082   .     S
C21    H33     1.076   .     S
C21    C569    1.391   1_554 S
C21    C571    1.418   1_554 S
C22    C23     1.420   .     A
C22    C570    1.418   .     S
C22    C573    1.427   .     S
C23    C27     1.411   .     A
C23    C30     1.420   .     A
C24    C28     1.403   .     A
C24    C571    1.427   1_554 S
C24    C574    1.418   1_554 S
C25    C26     1.391   .     A
C25    C564    1.400   .     S
C25    C573    1.418   .     S
C26    C27     1.383   .     A
C27    H35     1.077   .     S
C28    H31     1.075   .     S
C29    N55     1.435   .     S
H34    C569    1.082   1_554 S
C36    H37     1.084   .     S
C36    C44     1.396   .     A
C36    C221    1.389   .     S
C38    C39     1.423   .     A
C38    C58     1.511   .     S
C38    C402    1.389   1_545 S
C39    C40     1.404   .     A
C40    H41     1.084   .     S
C40    C408    1.383   1_545 S
C42    C44     1.396   .     A
C42    H43     1.083   .     S
C42    C223    1.383   .     S
C45    N54     1.367   .     A
C45    H46     1.082   .     S
C45    C108    1.415   .     S
C47    N49     1.366   .     A
C47    H48     1.082   .     S
C47    C167    1.415   1_455 S
N49    C50     1.367   .     A
C50    H51     1.082   .     S
C50    C174    1.415   1_455 S
C52    N54     1.366   .     A
C52    H53     1.081   .     S
C52    C111    1.415   .     S
N55    O56     1.301   .     A
N55    O57     1.301   .     A
C58    H61     1.109   .     S
C58    H60     1.111   .     S
C58    H59     1.108   .     S
O62    Cu68    1.971   .     S
O62    C64     1.289   .     A
O63    C64     1.289   .     A
O63    Cu69    1.967   .     S
C64    C105    1.447   .     S
O65    Cu68    1.958   .     S
O65    C67     1.297   .     A
O66    Cu69    1.943   .     S
O66    C67     1.293   .     A
C67    C91     1.474   .     S
Cu68   Cu69    2.673   .     S
Cu68   O72     1.943   .     S
Cu68   N110    2.009   .     S
Cu68   O70     1.967   .     S
Cu69   O73     1.958   .     S
Cu69   O71     1.971   .     S
Cu69   N115    2.009   .     S
O70    C74     1.297   .     A
O71    C74     1.287   .     A
O72    C75     1.298   .     A
O73    C75     1.292   .     A
C74    C100    1.460   .     S
C75    C79     1.474   .     S
C76    C90     1.396   .     A
C76    H627    1.085   1_554 S
C76    C635    1.400   1_554 S
H77    C87     1.084   .     S
H78    C625    1.085   .     S
C79    C89     1.401   .     A
C79    C90     1.415   .     A
C80    C81     1.386   .     A
C80    H93     1.083   .     S
C80    C91     1.402   .     A
C81    C631    1.391   .     S
C81    H644    1.082   .     S
C82    H94     1.076   .     S
C82    C630    1.391   1_554 S
C82    C632    1.418   1_554 S
C83    C84     1.420   .     A
C83    C631    1.418   .     S
C83    C634    1.427   .     S
C84    C88     1.411   .     A
C84    C91     1.420   .     A
C85    C89     1.403   .     A
C85    C632    1.427   1_554 S
C85    C635    1.418   1_554 S
C86    C87     1.391   .     A
C86    C625    1.400   .     S
C86    C634    1.418   .     S
C87    C88     1.383   .     A
C88    H96     1.077   .     S
C89    H92     1.075   .     S
C90    N116    1.435   .     S
H95    C630    1.082   1_554 S
C97    H98     1.084   .     S
C97    C105    1.396   .     A
C97    C282    1.389   .     S
C99    C100    1.423   .     A
C99    C119    1.511   .     S
C99    C463    1.389   1_545 S
C100   C101    1.404   .     A
C101   H102    1.084   .     S
C101   C469    1.383   1_545 S
C103   C105    1.396   .     A
C103   H104    1.083   .     S
C103   C284    1.383   .     S
C106   N115    1.367   .     A
C106   H107    1.082   .     S
C106   C169    1.415   .     S
C108   N110    1.366   .     A
C108   H109    1.082   .     S
N110   C111    1.367   .     A
C111   H112    1.082   .     S
C113   N115    1.366   .     A
C113   H114    1.081   .     S
C113   C172    1.415   .     S
N116   O117    1.301   .     A
N116   O118    1.301   .     A
C119   H122    1.109   .     S
C119   H121    1.111   .     S
C119   H120    1.108   .     S
O123   Cu129   1.971   .     S
O123   C125    1.289   .     A
O124   C125    1.289   .     A
O124   Cu130   1.967   .     S
C125   C166    1.447   .     S
O126   Cu129   1.958   .     S
O126   C128    1.297   .     A
O127   Cu130   1.943   .     S
O127   C128    1.293   .     A
C128   C152    1.474   .     S
Cu129  Cu130   2.673   .     S
Cu129  O133    1.943   .     S
Cu129  N171    2.009   .     S
Cu129  O131    1.967   .     S
Cu130  O134    1.958   .     S
Cu130  O132    1.971   .     S
Cu130  N176    2.009   .     S
O131   C135    1.297   .     A
O132   C135    1.287   .     A
O133   C136    1.298   .     A
O134   C136    1.292   .     A
C135   C161    1.460   .     S
C136   C140    1.474   .     S
C137   C151    1.396   .     A
C137   H688    1.085   1_554 S
C137   C696    1.400   1_554 S
H138   C148    1.084   .     S
H139   C686    1.085   .     S
C140   C150    1.401   .     A
C140   C151    1.415   .     A
C141   C142    1.386   .     A
C141   H154    1.083   .     S
C141   C152    1.402   .     A
C142   C692    1.391   .     S
C142   H705    1.082   .     S
C143   H155    1.076   .     S
C143   C691    1.391   1_554 S
C143   C693    1.418   1_554 S
C144   C145    1.420   .     A
C144   C692    1.418   .     S
C144   C695    1.427   .     S
C145   C149    1.411   .     A
C145   C152    1.420   .     A
C146   C150    1.403   .     A
C146   C693    1.427   1_554 S
C146   C696    1.418   1_554 S
C147   C148    1.391   .     A
C147   C686    1.400   .     S
C147   C695    1.418   .     S
C148   C149    1.383   .     A
C149   H157    1.077   .     S
C150   H153    1.075   .     S
C151   N177    1.435   .     S
H156   C691    1.082   1_554 S
C158   H159    1.084   .     S
C158   C166    1.396   .     A
C158   C343    1.389   .     S
C160   C161    1.423   .     A
C160   C180    1.511   .     S
C160   C524    1.389   1_545 S
C161   C162    1.404   .     A
C162   H163    1.084   .     S
C162   C530    1.383   1_545 S
C164   C166    1.396   .     A
C164   H165    1.083   .     S
C164   C345    1.383   .     S
C167   N176    1.367   .     A
C167   H168    1.082   .     S
C167   C47     1.415   1_655 S
C169   N171    1.366   .     A
C169   H170    1.082   .     S
N171   C172    1.367   .     A
C172   H173    1.082   .     S
C174   N176    1.366   .     A
C174   H175    1.081   .     S
C174   C50     1.415   1_655 S
N177   O178    1.301   .     A
N177   O179    1.301   .     A
C180   H183    1.109   .     S
C180   H182    1.111   .     S
C180   H181    1.108   .     S
O184   Cu190   1.971   .     S
O184   C186    1.289   .     A
O185   C186    1.289   .     A
O185   Cu191   1.967   .     S
C186   C227    1.447   .     S
O187   Cu190   1.958   .     S
O187   C189    1.297   .     A
O188   Cu191   1.943   .     S
O188   C189    1.293   .     A
C189   C213    1.474   .     S
Cu190  Cu191   2.673   .     S
Cu190  O194    1.943   .     S
Cu190  N232    2.009   .     S
Cu190  O192    1.967   .     S
Cu191  O195    1.958   .     S
Cu191  O193    1.971   .     S
Cu191  N237    2.009   .     S
O192   C196    1.297   .     A
O193   C196    1.287   .     A
O194   C197    1.298   .     A
O195   C197    1.292   .     A
C196   C222    1.460   .     S
C197   C201    1.474   .     S
C198   C212    1.396   .     A
C198   H749    1.085   1_554 S
C198   C757    1.400   1_554 S
H199   C209    1.084   .     S
H200   C747    1.085   .     S
C201   C211    1.401   .     A
C201   C212    1.415   .     A
C202   C203    1.386   .     A
C202   H215    1.083   .     S
C202   C213    1.402   .     A
C203   C753    1.391   .     S
C203   H766    1.082   .     S
C204   H216    1.076   .     S
C204   C752    1.391   1_554 S
C204   C754    1.418   1_554 S
C205   C206    1.420   .     A
C205   C753    1.418   .     S
C205   C756    1.427   .     S
C206   C210    1.411   .     A
C206   C213    1.420   .     A
C207   C211    1.403   .     A
C207   C754    1.427   1_554 S
C207   C757    1.418   1_554 S
C208   C209    1.391   .     A
C208   C747    1.400   .     S
C208   C756    1.418   .     S
C209   C210    1.383   .     A
C210   H218    1.077   .     S
C211   H214    1.075   .     S
C212   N238    1.435   .     S
H217   C752    1.082   1_554 S
C219   H220    1.084   .     S
C219   C227    1.396   .     A
C219   C404    1.389   .     S
C221   C222    1.423   .     A
C221   C241    1.511   .     S
C222   C223    1.404   .     A
C223   H224    1.084   .     S
C225   C227    1.396   .     A
C225   H226    1.083   .     S
C225   C406    1.383   .     S
C228   N237    1.367   .     A
C228   H229    1.082   .     S
C228   C291    1.415   .     S
C230   N232    1.366   .     A
C230   H231    1.082   .     S
C230   C350    1.415   1_455 S
N232   C233    1.367   .     A
C233   H234    1.082   .     S
C233   C357    1.415   1_455 S
C235   N237    1.366   .     A
C235   H236    1.081   .     S
C235   C294    1.415   .     S
N238   O239    1.301   .     A
N238   O240    1.301   .     A
C241   H244    1.109   .     S
C241   H243    1.111   .     S
C241   H242    1.108   .     S
O245   Cu251   1.971   .     S
O245   C247    1.289   .     A
O246   C247    1.289   .     A
O246   Cu252   1.967   .     S
C247   C288    1.447   .     S
O248   Cu251   1.958   .     S
O248   C250    1.297   .     A
O249   Cu252   1.943   .     S
O249   C250    1.293   .     A
C250   C274    1.474   .     S
Cu251  Cu252   2.673   .     S
Cu251  O255    1.943   .     S
Cu251  N293    2.009   .     S
Cu251  O253    1.967   .     S
Cu252  O256    1.958   .     S
Cu252  O254    1.971   .     S
Cu252  N298    2.009   .     S
O253   C257    1.297   .     A
O254   C257    1.287   .     A
O255   C258    1.298   .     A
O256   C258    1.292   .     A
C257   C283    1.460   .     S
C258   C262    1.474   .     S
C259   C273    1.396   .     A
C259   H810    1.085   1_554 S
C259   C818    1.400   1_554 S
H260   C270    1.084   .     S
H261   C808    1.085   .     S
C262   C272    1.401   .     A
C262   C273    1.415   .     A
C263   C264    1.386   .     A
C263   H276    1.083   .     S
C263   C274    1.402   .     A
C264   C814    1.391   .     S
C264   H827    1.082   .     S
C265   H277    1.076   .     S
C265   C813    1.391   1_554 S
C265   C815    1.418   1_554 S
C266   C267    1.420   .     A
C266   C814    1.418   .     S
C266   C817    1.427   .     S
C267   C271    1.411   .     A
C267   C274    1.420   .     A
C268   C272    1.403   .     A
C268   C815    1.427   1_554 S
C268   C818    1.418   1_554 S
C269   C270    1.391   .     A
C269   C808    1.400   .     S
C269   C817    1.418   .     S
C270   C271    1.383   .     A
C271   H279    1.077   .     S
C272   H275    1.075   .     S
C273   N299    1.435   .     S
H278   C813    1.082   1_554 S
C280   H281    1.084   .     S
C280   C288    1.396   .     A
C280   C465    1.389   .     S
C282   C283    1.423   .     A
C282   C302    1.511   .     S
C283   C284    1.404   .     A
C284   H285    1.084   .     S
C286   C288    1.396   .     A
C286   H287    1.083   .     S
C286   C467    1.383   .     S
C289   N298    1.367   .     A
C289   H290    1.082   .     S
C289   C352    1.415   .     S
C291   N293    1.366   .     A
C291   H292    1.082   .     S
N293   C294    1.367   .     A
C294   H295    1.082   .     S
C296   N298    1.366   .     A
C296   H297    1.081   .     S
C296   C355    1.415   .     S
N299   O300    1.301   .     A
N299   O301    1.301   .     A
C302   H305    1.109   .     S
C302   H304    1.111   .     S
C302   H303    1.108   .     S
O306   Cu312   1.971   .     S
O306   C308    1.289   .     A
O307   C308    1.289   .     A
O307   Cu313   1.967   .     S
C308   C349    1.447   .     S
O309   Cu312   1.958   .     S
O309   C311    1.297   .     A
O310   Cu313   1.943   .     S
O310   C311    1.293   .     A
C311   C335    1.474   .     S
Cu312  Cu313   2.673   .     S
Cu312  O316    1.943   .     S
Cu312  N354    2.009   .     S
Cu312  O314    1.967   .     S
Cu313  O317    1.958   .     S
Cu313  O315    1.971   .     S
Cu313  N359    2.009   .     S
O314   C318    1.297   .     A
O315   C318    1.287   .     A
O316   C319    1.298   .     A
O317   C319    1.292   .     A
C318   C344    1.460   .     S
C319   C323    1.474   .     S
C320   C334    1.396   .     A
C320   H871    1.085   1_554 S
C320   C879    1.400   1_554 S
H321   C331    1.084   .     S
H322   C869    1.085   .     S
C323   C333    1.401   .     A
C323   C334    1.415   .     A
C324   C325    1.386   .     A
C324   H337    1.083   .     S
C324   C335    1.402   .     A
C325   C875    1.391   .     S
C325   H888    1.082   .     S
C326   H338    1.076   .     S
C326   C874    1.391   1_554 S
C326   C876    1.418   1_554 S
C327   C328    1.420   .     A
C327   C875    1.418   .     S
C327   C878    1.427   .     S
C328   C332    1.411   .     A
C328   C335    1.420   .     A
C329   C333    1.403   .     A
C329   C876    1.427   1_554 S
C329   C879    1.418   1_554 S
C330   C331    1.391   .     A
C330   C869    1.400   .     S
C330   C878    1.418   .     S
C331   C332    1.383   .     A
C332   H340    1.077   .     S
C333   H336    1.075   .     S
C334   N360    1.435   .     S
H339   C874    1.082   1_554 S
C341   H342    1.084   .     S
C341   C349    1.396   .     A
C341   C526    1.389   .     S
C343   C344    1.423   .     A
C343   C363    1.511   .     S
C344   C345    1.404   .     A
C345   H346    1.084   .     S
C347   C349    1.396   .     A
C347   H348    1.083   .     S
C347   C528    1.383   .     S
C350   N359    1.367   .     A
C350   H351    1.082   .     S
C350   C230    1.415   1_655 S
C352   N354    1.366   .     A
C352   H353    1.082   .     S
N354   C355    1.367   .     A
C355   H356    1.082   .     S
C357   N359    1.366   .     A
C357   H358    1.081   .     S
C357   C233    1.415   1_655 S
N360   O361    1.301   .     A
N360   O362    1.301   .     A
C363   H366    1.109   .     S
C363   H365    1.111   .     S
C363   H364    1.108   .     S
O367   Cu373   1.971   .     S
O367   C369    1.289   .     A
O368   C369    1.289   .     A
O368   Cu374   1.967   .     S
C369   C410    1.447   .     S
O370   Cu373   1.958   .     S
O370   C372    1.297   .     A
O371   Cu374   1.943   .     S
O371   C372    1.293   .     A
C372   C396    1.474   .     S
Cu373  Cu374   2.673   .     S
Cu373  O377    1.943   .     S
Cu373  N415    2.009   .     S
Cu373  O375    1.967   .     S
Cu374  O378    1.958   .     S
Cu374  O376    1.971   .     S
Cu374  N420    2.009   .     S
O375   C379    1.297   .     A
O376   C379    1.287   .     A
O377   C380    1.298   .     A
O378   C380    1.292   .     A
C379   C405    1.460   .     S
C380   C384    1.474   .     S
C381   C395    1.396   .     A
C381   H932    1.085   1_554 S
C381   C940    1.400   1_554 S
H382   C392    1.084   .     S
H383   C930    1.085   .     S
C384   C394    1.401   .     A
C384   C395    1.415   .     A
C385   C386    1.386   .     A
C385   H398    1.083   .     S
C385   C396    1.402   .     A
C386   C936    1.391   .     S
C386   H949    1.082   .     S
C387   H399    1.076   .     S
C387   C935    1.391   1_554 S
C387   C937    1.418   1_554 S
C388   C389    1.420   .     A
C388   C936    1.418   .     S
C388   C939    1.427   .     S
C389   C393    1.411   .     A
C389   C396    1.420   .     A
C390   C394    1.403   .     A
C390   C937    1.427   1_554 S
C390   C940    1.418   1_554 S
C391   C392    1.391   .     A
C391   C930    1.400   .     S
C391   C939    1.418   .     S
C392   C393    1.383   .     A
C393   H401    1.077   .     S
C394   H397    1.075   .     S
C395   N421    1.435   .     S
H400   C935    1.082   1_554 S
C402   H403    1.084   .     S
C402   C410    1.396   .     A
C402   C38     1.389   1_565 S
C404   C405    1.423   .     A
C404   C424    1.511   .     S
C405   C406    1.404   .     A
C406   H407    1.084   .     S
C408   C410    1.396   .     A
C408   H409    1.083   .     S
C408   C40     1.383   1_565 S
C411   N420    1.367   .     A
C411   H412    1.082   .     S
C411   C474    1.415   .     S
C413   N415    1.366   .     A
C413   H414    1.082   .     S
C413   C533    1.415   1_455 S
N415   C416    1.367   .     A
C416   H417    1.082   .     S
C416   C540    1.415   1_455 S
C418   N420    1.366   .     A
C418   H419    1.081   .     S
C418   C477    1.415   .     S
N421   O422    1.301   .     A
N421   O423    1.301   .     A
C424   H427    1.109   .     S
C424   H426    1.111   .     S
C424   H425    1.108   .     S
O428   Cu434   1.971   .     S
O428   C430    1.289   .     A
O429   C430    1.289   .     A
O429   Cu435   1.967   .     S
C430   C471    1.447   .     S
O431   Cu434   1.958   .     S
O431   C433    1.297   .     A
O432   Cu435   1.943   .     S
O432   C433    1.293   .     A
C433   C457    1.474   .     S
Cu434  Cu435   2.673   .     S
Cu434  O438    1.943   .     S
Cu434  N476    2.009   .     S
Cu434  O436    1.967   .     S
Cu435  O439    1.958   .     S
Cu435  O437    1.971   .     S
Cu435  N481    2.009   .     S
O436   C440    1.297   .     A
O437   C440    1.287   .     A
O438   C441    1.298   .     A
O439   C441    1.292   .     A
C440   C466    1.460   .     S
C441   C445    1.474   .     S
C442   C456    1.396   .     A
C442   H993    1.085   1_554 S
C442   C1001   1.400   1_554 S
H443   C453    1.084   .     S
H444   C991    1.085   .     S
C445   C455    1.401   .     A
C445   C456    1.415   .     A
C446   C447    1.386   .     A
C446   H459    1.083   .     S
C446   C457    1.402   .     A
C447   C997    1.391   .     S
C447   H1010   1.082   .     S
C448   H460    1.076   .     S
C448   C996    1.391   1_554 S
C448   C998    1.418   1_554 S
C449   C450    1.420   .     A
C449   C997    1.418   .     S
C449   C1000   1.427   .     S
C450   C454    1.411   .     A
C450   C457    1.420   .     A
C451   C455    1.403   .     A
C451   C998    1.427   1_554 S
C451   C1001   1.418   1_554 S
C452   C453    1.391   .     A
C452   C991    1.400   .     S
C452   C1000   1.418   .     S
C453   C454    1.383   .     A
C454   H462    1.077   .     S
C455   H458    1.075   .     S
C456   N482    1.435   .     S
H461   C996    1.082   1_554 S
C463   H464    1.084   .     S
C463   C471    1.396   .     A
C463   C99     1.389   1_565 S
C465   C466    1.423   .     A
C465   C485    1.511   .     S
C466   C467    1.404   .     A
C467   H468    1.084   .     S
C469   C471    1.396   .     A
C469   H470    1.083   .     S
C469   C101    1.383   1_565 S
C472   N481    1.367   .     A
C472   H473    1.082   .     S
C472   C535    1.415   .     S
C474   N476    1.366   .     A
C474   H475    1.082   .     S
N476   C477    1.367   .     A
C477   H478    1.082   .     S
C479   N481    1.366   .     A
C479   H480    1.081   .     S
C479   C538    1.415   .     S
N482   O483    1.301   .     A
N482   O484    1.301   .     A
C485   H488    1.109   .     S
C485   H487    1.111   .     S
C485   H486    1.108   .     S
O489   Cu495   1.971   .     S
O489   C491    1.289   .     A
O490   C491    1.289   .     A
O490   Cu496   1.967   .     S
C491   C532    1.447   .     S
O492   Cu495   1.958   .     S
O492   C494    1.297   .     A
O493   Cu496   1.943   .     S
O493   C494    1.293   .     A
C494   C518    1.474   .     S
Cu495  Cu496   2.673   .     S
Cu495  O499    1.943   .     S
Cu495  N537    2.009   .     S
Cu495  O497    1.967   .     S
Cu496  O500    1.958   .     S
Cu496  O498    1.971   .     S
Cu496  N542    2.009   .     S
O497   C501    1.297   .     A
O498   C501    1.287   .     A
O499   C502    1.298   .     A
O500   C502    1.292   .     A
C501   C527    1.460   .     S
C502   C506    1.474   .     S
C503   C517    1.396   .     A
C503   H1054   1.085   1_554 S
C503   C1062   1.400   1_554 S
H504   C514    1.084   .     S
H505   C1052   1.085   .     S
C506   C516    1.401   .     A
C506   C517    1.415   .     A
C507   C508    1.386   .     A
C507   H520    1.083   .     S
C507   C518    1.402   .     A
C508   C1058   1.391   .     S
C508   H1071   1.082   .     S
C509   H521    1.076   .     S
C509   C1057   1.391   1_554 S
C509   C1059   1.418   1_554 S
C510   C511    1.420   .     A
C510   C1058   1.418   .     S
C510   C1061   1.427   .     S
C511   C515    1.411   .     A
C511   C518    1.420   .     A
C512   C516    1.403   .     A
C512   C1059   1.427   1_554 S
C512   C1062   1.418   1_554 S
C513   C514    1.391   .     A
C513   C1052   1.400   .     S
C513   C1061   1.418   .     S
C514   C515    1.383   .     A
C515   H523    1.077   .     S
C516   H519    1.075   .     S
C517   N543    1.435   .     S
H522   C1057   1.082   1_554 S
C524   H525    1.084   .     S
C524   C532    1.396   .     A
C524   C160    1.389   1_565 S
C526   C527    1.423   .     A
C526   C546    1.511   .     S
C527   C528    1.404   .     A
C528   H529    1.084   .     S
C530   C532    1.396   .     A
C530   H531    1.083   .     S
C530   C162    1.383   1_565 S
C533   N542    1.367   .     A
C533   H534    1.082   .     S
C533   C413    1.415   1_655 S
C535   N537    1.366   .     A
C535   H536    1.082   .     S
N537   C538    1.367   .     A
C538   H539    1.082   .     S
C540   N542    1.366   .     A
C540   H541    1.081   .     S
C540   C416    1.415   1_655 S
N543   O544    1.301   .     A
N543   O545    1.301   .     A
C546   H549    1.109   .     S
C546   H548    1.111   .     S
C546   H547    1.108   .     S
O550   Cu556   1.971   .     S
O550   C552    1.289   .     A
O551   C552    1.289   .     A
O551   Cu557   1.967   .     S
C552   C593    1.447   .     S
O553   Cu556   1.958   .     S
O553   C555    1.297   .     A
O554   Cu557   1.943   .     S
O554   C555    1.293   .     A
C555   C579    1.474   .     S
Cu556  Cu557   2.673   .     S
Cu556  O560    1.943   .     S
Cu556  N598    2.009   .     S
Cu556  O558    1.967   .     S
Cu557  O561    1.958   .     S
Cu557  O559    1.971   .     S
Cu557  N603    2.009   .     S
O558   C562    1.297   .     A
O559   C562    1.287   .     A
O560   C563    1.298   .     A
O561   C563    1.292   .     A
C562   C588    1.460   .     S
C563   C567    1.474   .     S
C564   C578    1.396   .     A
H565   C575    1.084   .     S
H566   C15     1.085   1_556 S
C567   C577    1.401   .     A
C567   C578    1.415   .     A
C568   C569    1.386   .     A
C568   H581    1.083   .     S
C568   C579    1.402   .     A
C569   C21     1.391   1_556 S
C569   H34     1.082   1_556 S
C570   H582    1.076   .     S
C571   C572    1.420   .     A
C571   C21     1.418   1_556 S
C571   C24     1.427   1_556 S
C572   C576    1.411   .     A
C572   C579    1.420   .     A
C573   C577    1.403   .     A
C574   C575    1.391   .     A
C574   C15     1.400   1_556 S
C574   C24     1.418   1_556 S
C575   C576    1.383   .     A
C576   H584    1.077   .     S
C577   H580    1.075   .     S
C578   N604    1.435   .     S
C585   H586    1.084   .     S
C585   C593    1.396   .     A
C585   C770    1.389   .     S
C587   C588    1.423   .     A
C587   C607    1.511   .     S
C587   C951    1.389   1_545 S
C588   C589    1.404   .     A
C589   H590    1.084   .     S
C589   C957    1.383   1_545 S
C591   C593    1.396   .     A
C591   H592    1.083   .     S
C591   C772    1.383   .     S
C594   N603    1.367   .     A
C594   H595    1.082   .     S
C594   C657    1.415   .     S
C596   N598    1.366   .     A
C596   H597    1.082   .     S
C596   C716    1.415   1_455 S
N598   C599    1.367   .     A
C599   H600    1.082   .     S
C599   C723    1.415   1_455 S
C601   N603    1.366   .     A
C601   H602    1.081   .     S
C601   C660    1.415   .     S
N604   O605    1.301   .     A
N604   O606    1.301   .     A
C607   H610    1.109   .     S
C607   H609    1.111   .     S
C607   H608    1.108   .     S
O611   Cu617   1.971   .     S
O611   C613    1.289   .     A
O612   C613    1.289   .     A
O612   Cu618   1.967   .     S
C613   C654    1.447   .     S
O614   Cu617   1.958   .     S
O614   C616    1.297   .     A
O615   Cu618   1.943   .     S
O615   C616    1.293   .     A
C616   C640    1.474   .     S
Cu617  Cu618   2.673   .     S
Cu617  O621    1.943   .     S
Cu617  N659    2.009   .     S
Cu617  O619    1.967   .     S
Cu618  O622    1.958   .     S
Cu618  O620    1.971   .     S
Cu618  N664    2.009   .     S
O619   C623    1.297   .     A
O620   C623    1.287   .     A
O621   C624    1.298   .     A
O622   C624    1.292   .     A
C623   C649    1.460   .     S
C624   C628    1.474   .     S
C625   C639    1.396   .     A
H626   C636    1.084   .     S
H627   C76     1.085   1_556 S
C628   C638    1.401   .     A
C628   C639    1.415   .     A
C629   C630    1.386   .     A
C629   H642    1.083   .     S
C629   C640    1.402   .     A
C630   C82     1.391   1_556 S
C630   H95     1.082   1_556 S
C631   H643    1.076   .     S
C632   C633    1.420   .     A
C632   C82     1.418   1_556 S
C632   C85     1.427   1_556 S
C633   C637    1.411   .     A
C633   C640    1.420   .     A
C634   C638    1.403   .     A
C635   C636    1.391   .     A
C635   C76     1.400   1_556 S
C635   C85     1.418   1_556 S
C636   C637    1.383   .     A
C637   H645    1.077   .     S
C638   H641    1.075   .     S
C639   N665    1.435   .     S
C646   H647    1.084   .     S
C646   C654    1.396   .     A
C646   C831    1.389   .     S
C648   C649    1.423   .     A
C648   C668    1.511   .     S
C648   C1012   1.389   1_545 S
C649   C650    1.404   .     A
C650   H651    1.084   .     S
C650   C1018   1.383   1_545 S
C652   C654    1.396   .     A
C652   H653    1.083   .     S
C652   C833    1.383   .     S
C655   N664    1.367   .     A
C655   H656    1.082   .     S
C655   C718    1.415   .     S
C657   N659    1.366   .     A
C657   H658    1.082   .     S
N659   C660    1.367   .     A
C660   H661    1.082   .     S
C662   N664    1.366   .     A
C662   H663    1.081   .     S
C662   C721    1.415   .     S
N665   O666    1.301   .     A
N665   O667    1.301   .     A
C668   H671    1.109   .     S
C668   H670    1.111   .     S
C668   H669    1.108   .     S
O672   Cu678   1.971   .     S
O672   C674    1.289   .     A
O673   C674    1.289   .     A
O673   Cu679   1.967   .     S
C674   C715    1.447   .     S
O675   Cu678   1.958   .     S
O675   C677    1.297   .     A
O676   Cu679   1.943   .     S
O676   C677    1.293   .     A
C677   C701    1.474   .     S
Cu678  Cu679   2.673   .     S
Cu678  O682    1.943   .     S
Cu678  N720    2.009   .     S
Cu678  O680    1.967   .     S
Cu679  O683    1.958   .     S
Cu679  O681    1.971   .     S
Cu679  N725    2.009   .     S
O680   C684    1.297   .     A
O681   C684    1.287   .     A
O682   C685    1.298   .     A
O683   C685    1.292   .     A
C684   C710    1.460   .     S
C685   C689    1.474   .     S
C686   C700    1.396   .     A
H687   C697    1.084   .     S
H688   C137    1.085   1_556 S
C689   C699    1.401   .     A
C689   C700    1.415   .     A
C690   C691    1.386   .     A
C690   H703    1.083   .     S
C690   C701    1.402   .     A
C691   C143    1.391   1_556 S
C691   H156    1.082   1_556 S
C692   H704    1.076   .     S
C693   C694    1.420   .     A
C693   C143    1.418   1_556 S
C693   C146    1.427   1_556 S
C694   C698    1.411   .     A
C694   C701    1.420   .     A
C695   C699    1.403   .     A
C696   C697    1.391   .     A
C696   C137    1.400   1_556 S
C696   C146    1.418   1_556 S
C697   C698    1.383   .     A
C698   H706    1.077   .     S
C699   H702    1.075   .     S
C700   N726    1.435   .     S
C707   H708    1.084   .     S
C707   C715    1.396   .     A
C707   C892    1.389   .     S
C709   C710    1.423   .     A
C709   C729    1.511   .     S
C709   C1073   1.389   1_545 S
C710   C711    1.404   .     A
C711   H712    1.084   .     S
C711   C1079   1.383   1_545 S
C713   C715    1.396   .     A
C713   H714    1.083   .     S
C713   C894    1.383   .     S
C716   N725    1.367   .     A
C716   H717    1.082   .     S
C716   C596    1.415   1_655 S
C718   N720    1.366   .     A
C718   H719    1.082   .     S
N720   C721    1.367   .     A
C721   H722    1.082   .     S
C723   N725    1.366   .     A
C723   H724    1.081   .     S
C723   C599    1.415   1_655 S
N726   O727    1.301   .     A
N726   O728    1.301   .     A
C729   H732    1.109   .     S
C729   H731    1.111   .     S
C729   H730    1.108   .     S
O733   Cu739   1.971   .     S
O733   C735    1.289   .     A
O734   C735    1.289   .     A
O734   Cu740   1.967   .     S
C735   C776    1.447   .     S
O736   Cu739   1.958   .     S
O736   C738    1.297   .     A
O737   Cu740   1.943   .     S
O737   C738    1.293   .     A
C738   C762    1.474   .     S
Cu739  Cu740   2.673   .     S
Cu739  O743    1.943   .     S
Cu739  N781    2.009   .     S
Cu739  O741    1.967   .     S
Cu740  O744    1.958   .     S
Cu740  O742    1.971   .     S
Cu740  N786    2.009   .     S
O741   C745    1.297   .     A
O742   C745    1.287   .     A
O743   C746    1.298   .     A
O744   C746    1.292   .     A
C745   C771    1.460   .     S
C746   C750    1.474   .     S
C747   C761    1.396   .     A
H748   C758    1.084   .     S
H749   C198    1.085   1_556 S
C750   C760    1.401   .     A
C750   C761    1.415   .     A
C751   C752    1.386   .     A
C751   H764    1.083   .     S
C751   C762    1.402   .     A
C752   C204    1.391   1_556 S
C752   H217    1.082   1_556 S
C753   H765    1.076   .     S
C754   C755    1.420   .     A
C754   C204    1.418   1_556 S
C754   C207    1.427   1_556 S
C755   C759    1.411   .     A
C755   C762    1.420   .     A
C756   C760    1.403   .     A
C757   C758    1.391   .     A
C757   C198    1.400   1_556 S
C757   C207    1.418   1_556 S
C758   C759    1.383   .     A
C759   H767    1.077   .     S
C760   H763    1.075   .     S
C761   N787    1.435   .     S
C768   H769    1.084   .     S
C768   C776    1.396   .     A
C768   C953    1.389   .     S
C770   C771    1.423   .     A
C770   C790    1.511   .     S
C771   C772    1.404   .     A
C772   H773    1.084   .     S
C774   C776    1.396   .     A
C774   H775    1.083   .     S
C774   C955    1.383   .     S
C777   N786    1.367   .     A
C777   H778    1.082   .     S
C777   C840    1.415   .     S
C779   N781    1.366   .     A
C779   H780    1.082   .     S
C779   C899    1.415   1_455 S
N781   C782    1.367   .     A
C782   H783    1.082   .     S
C782   C906    1.415   1_455 S
C784   N786    1.366   .     A
C784   H785    1.081   .     S
C784   C843    1.415   .     S
N787   O788    1.301   .     A
N787   O789    1.301   .     A
C790   H793    1.109   .     S
C790   H792    1.111   .     S
C790   H791    1.108   .     S
O794   Cu800   1.971   .     S
O794   C796    1.289   .     A
O795   C796    1.289   .     A
O795   Cu801   1.967   .     S
C796   C837    1.447   .     S
O797   Cu800   1.958   .     S
O797   C799    1.297   .     A
O798   Cu801   1.943   .     S
O798   C799    1.293   .     A
C799   C823    1.474   .     S
Cu800  Cu801   2.673   .     S
Cu800  O804    1.943   .     S
Cu800  N842    2.009   .     S
Cu800  O802    1.967   .     S
Cu801  O805    1.958   .     S
Cu801  O803    1.971   .     S
Cu801  N847    2.009   .     S
O802   C806    1.297   .     A
O803   C806    1.287   .     A
O804   C807    1.298   .     A
O805   C807    1.292   .     A
C806   C832    1.460   .     S
C807   C811    1.474   .     S
C808   C822    1.396   .     A
H809   C819    1.084   .     S
H810   C259    1.085   1_556 S
C811   C821    1.401   .     A
C811   C822    1.415   .     A
C812   C813    1.386   .     A
C812   H825    1.083   .     S
C812   C823    1.402   .     A
C813   C265    1.391   1_556 S
C813   H278    1.082   1_556 S
C814   H826    1.076   .     S
C815   C816    1.420   .     A
C815   C265    1.418   1_556 S
C815   C268    1.427   1_556 S
C816   C820    1.411   .     A
C816   C823    1.420   .     A
C817   C821    1.403   .     A
C818   C819    1.391   .     A
C818   C259    1.400   1_556 S
C818   C268    1.418   1_556 S
C819   C820    1.383   .     A
C820   H828    1.077   .     S
C821   H824    1.075   .     S
C822   N848    1.435   .     S
C829   H830    1.084   .     S
C829   C837    1.396   .     A
C829   C1014   1.389   .     S
C831   C832    1.423   .     A
C831   C851    1.511   .     S
C832   C833    1.404   .     A
C833   H834    1.084   .     S
C835   C837    1.396   .     A
C835   H836    1.083   .     S
C835   C1016   1.383   .     S
C838   N847    1.367   .     A
C838   H839    1.082   .     S
C838   C901    1.415   .     S
C840   N842    1.366   .     A
C840   H841    1.082   .     S
N842   C843    1.367   .     A
C843   H844    1.082   .     S
C845   N847    1.366   .     A
C845   H846    1.081   .     S
C845   C904    1.415   .     S
N848   O849    1.301   .     A
N848   O850    1.301   .     A
C851   H854    1.109   .     S
C851   H853    1.111   .     S
C851   H852    1.108   .     S
O855   Cu861   1.971   .     S
O855   C857    1.289   .     A
O856   C857    1.289   .     A
O856   Cu862   1.967   .     S
C857   C898    1.447   .     S
O858   Cu861   1.958   .     S
O858   C860    1.297   .     A
O859   Cu862   1.943   .     S
O859   C860    1.293   .     A
C860   C884    1.474   .     S
Cu861  Cu862   2.673   .     S
Cu861  O865    1.943   .     S
Cu861  N903    2.009   .     S
Cu861  O863    1.967   .     S
Cu862  O866    1.958   .     S
Cu862  O864    1.971   .     S
Cu862  N908    2.009   .     S
O863   C867    1.297   .     A
O864   C867    1.287   .     A
O865   C868    1.298   .     A
O866   C868    1.292   .     A
C867   C893    1.460   .     S
C868   C872    1.474   .     S
C869   C883    1.396   .     A
H870   C880    1.084   .     S
H871   C320    1.085   1_556 S
C872   C882    1.401   .     A
C872   C883    1.415   .     A
C873   C874    1.386   .     A
C873   H886    1.083   .     S
C873   C884    1.402   .     A
C874   C326    1.391   1_556 S
C874   H339    1.082   1_556 S
C875   H887    1.076   .     S
C876   C877    1.420   .     A
C876   C326    1.418   1_556 S
C876   C329    1.427   1_556 S
C877   C881    1.411   .     A
C877   C884    1.420   .     A
C878   C882    1.403   .     A
C879   C880    1.391   .     A
C879   C320    1.400   1_556 S
C879   C329    1.418   1_556 S
C880   C881    1.383   .     A
C881   H889    1.077   .     S
C882   H885    1.075   .     S
C883   N909    1.435   .     S
C890   H891    1.084   .     S
C890   C898    1.396   .     A
C890   C1075   1.389   .     S
C892   C893    1.423   .     A
C892   C912    1.511   .     S
C893   C894    1.404   .     A
C894   H895    1.084   .     S
C896   C898    1.396   .     A
C896   H897    1.083   .     S
C896   C1077   1.383   .     S
C899   N908    1.367   .     A
C899   H900    1.082   .     S
C899   C779    1.415   1_655 S
C901   N903    1.366   .     A
C901   H902    1.082   .     S
N903   C904    1.367   .     A
C904   H905    1.082   .     S
C906   N908    1.366   .     A
C906   H907    1.081   .     S
C906   C782    1.415   1_655 S
N909   O910    1.301   .     A
N909   O911    1.301   .     A
C912   H915    1.109   .     S
C912   H914    1.111   .     S
C912   H913    1.108   .     S
O916   Cu922   1.971   .     S
O916   C918    1.289   .     A
O917   C918    1.289   .     A
O917   Cu923   1.967   .     S
C918   C959    1.447   .     S
O919   Cu922   1.958   .     S
O919   C921    1.297   .     A
O920   Cu923   1.943   .     S
O920   C921    1.293   .     A
C921   C945    1.474   .     S
Cu922  Cu923   2.673   .     S
Cu922  O926    1.943   .     S
Cu922  N964    2.009   .     S
Cu922  O924    1.967   .     S
Cu923  O927    1.958   .     S
Cu923  O925    1.971   .     S
Cu923  N969    2.009   .     S
O924   C928    1.297   .     A
O925   C928    1.287   .     A
O926   C929    1.298   .     A
O927   C929    1.292   .     A
C928   C954    1.460   .     S
C929   C933    1.474   .     S
C930   C944    1.396   .     A
H931   C941    1.084   .     S
H932   C381    1.085   1_556 S
C933   C943    1.401   .     A
C933   C944    1.415   .     A
C934   C935    1.386   .     A
C934   H947    1.083   .     S
C934   C945    1.402   .     A
C935   C387    1.391   1_556 S
C935   H400    1.082   1_556 S
C936   H948    1.076   .     S
C937   C938    1.420   .     A
C937   C387    1.418   1_556 S
C937   C390    1.427   1_556 S
C938   C942    1.411   .     A
C938   C945    1.420   .     A
C939   C943    1.403   .     A
C940   C941    1.391   .     A
C940   C381    1.400   1_556 S
C940   C390    1.418   1_556 S
C941   C942    1.383   .     A
C942   H950    1.077   .     S
C943   H946    1.075   .     S
C944   N970    1.435   .     S
C951   H952    1.084   .     S
C951   C959    1.396   .     A
C951   C587    1.389   1_565 S
C953   C954    1.423   .     A
C953   C973    1.511   .     S
C954   C955    1.404   .     A
C955   H956    1.084   .     S
C957   C959    1.396   .     A
C957   H958    1.083   .     S
C957   C589    1.383   1_565 S
C960   N969    1.367   .     A
C960   H961    1.082   .     S
C960   C1023   1.415   .     S
C962   N964    1.366   .     A
C962   H963    1.082   .     S
C962   C1082   1.415   1_455 S
N964   C965    1.367   .     A
C965   H966    1.082   .     S
C965   C1089   1.415   1_455 S
C967   N969    1.366   .     A
C967   H968    1.081   .     S
C967   C1026   1.415   .     S
N970   O971    1.301   .     A
N970   O972    1.301   .     A
C973   H976    1.109   .     S
C973   H975    1.111   .     S
C973   H974    1.108   .     S
O977   Cu983   1.971   .     S
O977   C979    1.289   .     A
O978   C979    1.289   .     A
O978   Cu984   1.967   .     S
C979   C1020   1.447   .     S
O980   Cu983   1.958   .     S
O980   C982    1.297   .     A
O981   Cu984   1.943   .     S
O981   C982    1.293   .     A
C982   C1006   1.474   .     S
Cu983  Cu984   2.673   .     S
Cu983  O987    1.943   .     S
Cu983  N1025   2.009   .     S
Cu983  O985    1.967   .     S
Cu984  O988    1.958   .     S
Cu984  O986    1.971   .     S
Cu984  N1030   2.009   .     S
O985   C989    1.297   .     A
O986   C989    1.287   .     A
O987   C990    1.298   .     A
O988   C990    1.292   .     A
C989   C1015   1.460   .     S
C990   C994    1.474   .     S
C991   C1005   1.396   .     A
H992   C1002   1.084   .     S
H993   C442    1.085   1_556 S
C994   C1004   1.401   .     A
C994   C1005   1.415   .     A
C995   C996    1.386   .     A
C995   H1008   1.083   .     S
C995   C1006   1.402   .     A
C996   C448    1.391   1_556 S
C996   H461    1.082   1_556 S
C997   H1009   1.076   .     S
C998   C999    1.420   .     A
C998   C448    1.418   1_556 S
C998   C451    1.427   1_556 S
C999   C1003   1.411   .     A
C999   C1006   1.420   .     A
C1000  C1004   1.403   .     A
C1001  C1002   1.391   .     A
C1001  C442    1.400   1_556 S
C1001  C451    1.418   1_556 S
C1002  C1003   1.383   .     A
C1003  H1011   1.077   .     S
C1004  H1007   1.075   .     S
C1005  N1031   1.435   .     S
C1012  H1013   1.084   .     S
C1012  C1020   1.396   .     A
C1012  C648    1.389   1_565 S
C1014  C1015   1.423   .     A
C1014  C1034   1.511   .     S
C1015  C1016   1.404   .     A
C1016  H1017   1.084   .     S
C1018  C1020   1.396   .     A
C1018  H1019   1.083   .     S
C1018  C650    1.383   1_565 S
C1021  N1030   1.367   .     A
C1021  H1022   1.082   .     S
C1021  C1084   1.415   .     S
C1023  N1025   1.366   .     A
C1023  H1024   1.082   .     S
N1025  C1026   1.367   .     A
C1026  H1027   1.082   .     S
C1028  N1030   1.366   .     A
C1028  H1029   1.081   .     S
C1028  C1087   1.415   .     S
N1031  O1032   1.301   .     A
N1031  O1033   1.301   .     A
C1034  H1037   1.109   .     S
C1034  H1036   1.111   .     S
C1034  H1035   1.108   .     S
O1038  Cu1044  1.971   .     S
O1038  C1040   1.289   .     A
O1039  C1040   1.289   .     A
O1039  Cu1045  1.967   .     S
C1040  C1081   1.447   .     S
O1041  Cu1044  1.958   .     S
O1041  C1043   1.297   .     A
O1042  Cu1045  1.943   .     S
O1042  C1043   1.293   .     A
C1043  C1067   1.474   .     S
Cu1044 Cu1045  2.673   .     S
Cu1044 O1048   1.943   .     S
Cu1044 N1086   2.009   .     S
Cu1044 O1046   1.967   .     S
Cu1045 O1049   1.958   .     S
Cu1045 O1047   1.971   .     S
Cu1045 N1091   2.009   .     S
O1046  C1050   1.297   .     A
O1047  C1050   1.287   .     A
O1048  C1051   1.298   .     A
O1049  C1051   1.292   .     A
C1050  C1076   1.460   .     S
C1051  C1055   1.474   .     S
C1052  C1066   1.396   .     A
H1053  C1063   1.084   .     S
H1054  C503    1.085   1_556 S
C1055  C1065   1.401   .     A
C1055  C1066   1.415   .     A
C1056  C1057   1.386   .     A
C1056  H1069   1.083   .     S
C1056  C1067   1.402   .     A
C1057  C509    1.391   1_556 S
C1057  H522    1.082   1_556 S
C1058  H1070   1.076   .     S
C1059  C1060   1.420   .     A
C1059  C509    1.418   1_556 S
C1059  C512    1.427   1_556 S
C1060  C1064   1.411   .     A
C1060  C1067   1.420   .     A
C1061  C1065   1.403   .     A
C1062  C1063   1.391   .     A
C1062  C503    1.400   1_556 S
C1062  C512    1.418   1_556 S
C1063  C1064   1.383   .     A
C1064  H1072   1.077   .     S
C1065  H1068   1.075   .     S
C1066  N1092   1.435   .     S
C1073  H1074   1.084   .     S
C1073  C1081   1.396   .     A
C1073  C709    1.389   1_565 S
C1075  C1076   1.423   .     A
C1075  C1095   1.511   .     S
C1076  C1077   1.404   .     A
C1077  H1078   1.084   .     S
C1079  C1081   1.396   .     A
C1079  H1080   1.083   .     S
C1079  C711    1.383   1_565 S
C1082  N1091   1.367   .     A
C1082  H1083   1.082   .     S
C1082  C962    1.415   1_655 S
C1084  N1086   1.366   .     A
C1084  H1085   1.082   .     S
N1086  C1087   1.367   .     A
C1087  H1088   1.082   .     S
C1089  N1091   1.366   .     A
C1089  H1090   1.081   .     S
C1089  C965    1.415   1_655 S
N1092  O1093   1.301   .     A
N1092  O1094   1.301   .     A
C1095  H1098   1.109   .     S
C1095  H1097   1.111   .     S
C1095  H1096   1.108   .     S
