data_str_m3_o10_o17_pcu_sym.160
_audit_creation_date              2020-01-03
_audit_creation_method            'Materials Studio'
_symmetry_space_group_name_H-M    'P1'
_symmetry_Int_Tables_number       1
_symmetry_cell_setting            triclinic
loop_
_symmetry_equiv_pos_as_xyz
  x,y,z
_cell_length_a                    23.7679
_cell_length_b                    26.0416
_cell_length_c                    29.7002
_cell_angle_alpha                 92.0957
_cell_angle_beta                  84.7904
_cell_angle_gamma                 92.9540
loop_
_atom_site_label
_atom_site_type_symbol
_atom_site_fract_x
_atom_site_fract_y
_atom_site_fract_z
_atom_site_U_iso_or_equiv
_atom_site_adp_type
_atom_site_occupancy
C1     C     0.18135   0.26437   0.24920   0.00000  Uiso   1.00
C2     C     0.15197   0.06897   0.25080   0.00000  Uiso   1.00
C3     C     0.20744   0.25581   0.47511   0.00000  Uiso   1.00
C4     C     0.11722   0.08199   0.02577   0.00000  Uiso   1.00
C5     C     0.18912   0.31846   0.25108   0.00000  Uiso   1.00
C6     C     0.14417   0.01487   0.24897   0.00000  Uiso   1.00
C7     C     0.16671   0.16607   0.33607   0.00000  Uiso   1.00
C8     C     0.16663   0.16760   0.16395   0.00000  Uiso   1.00
C9     C     0.14545   0.12595   0.09440   0.00000  Uiso   1.00
C10    C     0.18544   0.20949   0.40567   0.00000  Uiso   1.00
C11    C     0.16610   0.16969   0.11640   0.00000  Uiso   1.00
C12    C     0.16672   0.16496   0.38371   0.00000  Uiso   1.00
C13    C     0.18196   0.21524   0.09399   0.00000  Uiso   1.00
C14    C     0.14623   0.12113   0.40677   0.00000  Uiso   1.00
C15    C     0.18168   0.21473   0.04687   0.00000  Uiso   1.00
C16    C     0.14298   0.12300   0.45403   0.00000  Uiso   1.00
C17    C     0.16137   0.16966   0.02400   0.00000  Uiso   1.00
C18    C     0.16312   0.16818   0.47683   0.00000  Uiso   1.00
C19    C     0.14028   0.12575   0.04833   0.00000  Uiso   1.00
C20    C     0.18599   0.21145   0.45233   0.00000  Uiso   1.00
C21    C     0.20386   0.25721   0.02212   0.00000  Uiso   1.00
C22    C     0.12007   0.08080   0.47881   0.00000  Uiso   1.00
H23    H     0.13433   0.09200   0.11389   0.00000  Uiso   1.00
H24    H     0.19848   0.24263   0.38563   0.00000  Uiso   1.00
H25    H     0.22134   0.29107   0.03911   0.00000  Uiso   1.00
H26    H     0.10312   0.04672   0.46182   0.00000  Uiso   1.00
N27    N     0.31678   0.15265   0.23783   0.00000  Uiso   1.00
N28    N     0.01656   0.18068   0.26217   0.00000  Uiso   1.00
O29    O     0.12975   0.24619   0.25299   0.00000  Uiso   1.00
O30    O     0.20358   0.08714   0.24702   0.00000  Uiso   1.00
O31    O     0.22613   0.23721   0.24519   0.00000  Uiso   1.00
O32    O     0.10720   0.09613   0.25481   0.00000  Uiso   1.00
O33    O     0.11847   0.17117   0.31997   0.00000  Uiso   1.00
O34    O     0.21486   0.16216   0.18003   0.00000  Uiso   1.00
O35    O     0.21485   0.16219   0.31218   0.00000  Uiso   1.00
O36    O     0.11848   0.17115   0.18783   0.00000  Uiso   1.00
Zn37   Zn    0.10231   0.17266   0.25521   0.00000  Uiso   1.00
Zn38   Zn    0.23102   0.16067   0.24479   0.00000  Uiso   1.00
C39    C     0.19789   0.26280   0.11997   0.00000  Uiso   1.00
O40    O     0.23822   0.26357   0.14273   0.00000  Uiso   1.00
O41    O     0.16671   0.30662   0.11801   0.00000  Uiso   1.00
H42    H     0.18135   0.00320   0.13718   0.00000  Uiso   1.00
C43    C     0.13099   0.07331   0.38113   0.00000  Uiso   1.00
O44    O     0.08129   0.05977   0.37884   0.00000  Uiso   1.00
O45    O     0.17395   0.04361   0.36046   0.00000  Uiso   1.00
H46    H     0.15882   0.01033   0.34633   0.00000  Uiso   1.00
C47    C     0.23656   0.30041   0.45135   0.00000  Uiso   1.00
O48    O     0.22782   0.01087   0.46559   0.00000  Uiso   1.00
O49    O     0.27608   0.29244   0.41421   0.00000  Uiso   1.00
H50    H     0.29329   0.32582   0.40135   0.00000  Uiso   1.00
C51    C     0.08798   0.03759   0.04981   0.00000  Uiso   1.00
O52    O     0.09368   0.32717   0.03422   0.00000  Uiso   1.00
O53    O     0.05179   0.04585   0.08896   0.00000  Uiso   1.00
H54    H     0.03412   0.01265   0.10185   0.00000  Uiso   1.00
N55    N     0.24447   0.00572   0.25803   0.00000  Uiso   1.00
H56    H     0.26193   0.32340   0.28457   0.00000  Uiso   1.00
C57    C     0.28233   0.00992   0.21723   0.00000  Uiso   1.00
H58    H     0.31656   0.03869   0.22364   0.00000  Uiso   1.00
H59    H     0.26022   0.02360   0.18884   0.00000  Uiso   1.00
H60    H     0.30072   0.30567   0.20753   0.00000  Uiso   1.00
N61    N     0.08846   0.32762   0.24334   0.00000  Uiso   1.00
H62    H     0.07014   0.00985   0.21720   0.00000  Uiso   1.00
C63    C     0.05200   0.32412   0.28499   0.00000  Uiso   1.00
H64    H     0.01636   0.29655   0.27941   0.00000  Uiso   1.00
H65    H     0.03555   0.02893   0.29559   0.00000  Uiso   1.00
H66    H     0.07467   0.30918   0.31250   0.00000  Uiso   1.00
N67    N     0.00803   0.13306   0.19750   0.00000  Uiso   1.00
H68    H     0.04226   0.11075   0.19836   0.00000  Uiso   1.00
C69    C     0.00114   0.16152   0.15757   0.00000  Uiso   1.00
H70    H     0.04236   0.16903   0.13793   0.00000  Uiso   1.00
H71    H     0.31588   0.19918   0.16665   0.00000  Uiso   1.00
H72    H     0.30721   0.13827   0.13534   0.00000  Uiso   1.00
N73    N     0.32534   0.20009   0.30257   0.00000  Uiso   1.00
H74    H     0.29121   0.22255   0.30181   0.00000  Uiso   1.00
C75    C     0.33228   0.17145   0.34241   0.00000  Uiso   1.00
H76    H     0.29100   0.16353   0.36188   0.00000  Uiso   1.00
H77    H     0.02585   0.19480   0.36486   0.00000  Uiso   1.00
H78    H     0.01804   0.13399   0.33328   0.00000  Uiso   1.00
C79    C     0.51469   0.26437   0.24920   0.00000  Uiso   1.00
C80    C     0.48530   0.06897   0.25080   0.00000  Uiso   1.00
C81    C     0.54077   0.25581   0.47511   0.00000  Uiso   1.00
C82    C     0.45055   0.08199   0.02577   0.00000  Uiso   1.00
C83    C     0.52245   0.31846   0.25108   0.00000  Uiso   1.00
C84    C     0.47751   0.01487   0.24897   0.00000  Uiso   1.00
C85    C     0.50005   0.16607   0.33607   0.00000  Uiso   1.00
C86    C     0.49997   0.16760   0.16395   0.00000  Uiso   1.00
C87    C     0.47878   0.12595   0.09440   0.00000  Uiso   1.00
C88    C     0.51877   0.20949   0.40567   0.00000  Uiso   1.00
C89    C     0.49944   0.16969   0.11640   0.00000  Uiso   1.00
C90    C     0.50005   0.16496   0.38371   0.00000  Uiso   1.00
C91    C     0.51530   0.21524   0.09399   0.00000  Uiso   1.00
C92    C     0.47956   0.12113   0.40677   0.00000  Uiso   1.00
C93    C     0.51501   0.21473   0.04687   0.00000  Uiso   1.00
C94    C     0.47632   0.12300   0.45403   0.00000  Uiso   1.00
C95    C     0.49471   0.16966   0.02400   0.00000  Uiso   1.00
C96    C     0.49645   0.16818   0.47683   0.00000  Uiso   1.00
C97    C     0.47361   0.12575   0.04833   0.00000  Uiso   1.00
C98    C     0.51932   0.21145   0.45233   0.00000  Uiso   1.00
C99    C     0.53719   0.25721   0.02212   0.00000  Uiso   1.00
C100   C     0.45341   0.08080   0.47881   0.00000  Uiso   1.00
H101   H     0.46766   0.09200   0.11389   0.00000  Uiso   1.00
H102   H     0.53182   0.24263   0.38563   0.00000  Uiso   1.00
H103   H     0.55468   0.29107   0.03911   0.00000  Uiso   1.00
H104   H     0.43646   0.04672   0.46182   0.00000  Uiso   1.00
N105   N     0.65011   0.15265   0.23783   0.00000  Uiso   1.00
N106   N     0.34989   0.18068   0.26217   0.00000  Uiso   1.00
O107   O     0.46308   0.24619   0.25299   0.00000  Uiso   1.00
O108   O     0.53692   0.08714   0.24702   0.00000  Uiso   1.00
O109   O     0.55946   0.23721   0.24519   0.00000  Uiso   1.00
O110   O     0.44054   0.09613   0.25481   0.00000  Uiso   1.00
O111   O     0.45181   0.17117   0.31997   0.00000  Uiso   1.00
O112   O     0.54819   0.16216   0.18003   0.00000  Uiso   1.00
O113   O     0.54819   0.16219   0.31218   0.00000  Uiso   1.00
O114   O     0.45181   0.17115   0.18783   0.00000  Uiso   1.00
Zn115  Zn    0.43565   0.17266   0.25521   0.00000  Uiso   1.00
Zn116  Zn    0.56435   0.16067   0.24479   0.00000  Uiso   1.00
C117   C     0.53122   0.26280   0.11997   0.00000  Uiso   1.00
O118   O     0.57155   0.26357   0.14273   0.00000  Uiso   1.00
O119   O     0.50004   0.30662   0.11801   0.00000  Uiso   1.00
H120   H     0.51468   0.00320   0.13718   0.00000  Uiso   1.00
C121   C     0.46432   0.07331   0.38113   0.00000  Uiso   1.00
O122   O     0.41463   0.05977   0.37884   0.00000  Uiso   1.00
O123   O     0.50729   0.04361   0.36046   0.00000  Uiso   1.00
H124   H     0.49215   0.01033   0.34633   0.00000  Uiso   1.00
C125   C     0.56990   0.30041   0.45135   0.00000  Uiso   1.00
O126   O     0.56115   0.01087   0.46559   0.00000  Uiso   1.00
O127   O     0.60942   0.29244   0.41421   0.00000  Uiso   1.00
H128   H     0.62663   0.32582   0.40135   0.00000  Uiso   1.00
C129   C     0.42132   0.03759   0.04981   0.00000  Uiso   1.00
O130   O     0.42701   0.32717   0.03422   0.00000  Uiso   1.00
O131   O     0.38513   0.04585   0.08896   0.00000  Uiso   1.00
H132   H     0.36745   0.01265   0.10185   0.00000  Uiso   1.00
N133   N     0.57780   0.00572   0.25803   0.00000  Uiso   1.00
H134   H     0.59526   0.32340   0.28457   0.00000  Uiso   1.00
C135   C     0.61566   0.00992   0.21723   0.00000  Uiso   1.00
H136   H     0.64989   0.03869   0.22364   0.00000  Uiso   1.00
H137   H     0.59356   0.02360   0.18884   0.00000  Uiso   1.00
H138   H     0.63405   0.30567   0.20753   0.00000  Uiso   1.00
N139   N     0.42179   0.32762   0.24334   0.00000  Uiso   1.00
H140   H     0.40347   0.00985   0.21720   0.00000  Uiso   1.00
C141   C     0.38533   0.32412   0.28499   0.00000  Uiso   1.00
H142   H     0.34970   0.29655   0.27941   0.00000  Uiso   1.00
H143   H     0.36888   0.02893   0.29559   0.00000  Uiso   1.00
H144   H     0.40800   0.30918   0.31250   0.00000  Uiso   1.00
N145   N     0.34136   0.13306   0.19750   0.00000  Uiso   1.00
H146   H     0.37559   0.11075   0.19836   0.00000  Uiso   1.00
C147   C     0.33447   0.16152   0.15757   0.00000  Uiso   1.00
H148   H     0.37570   0.16903   0.13793   0.00000  Uiso   1.00
H149   H     0.64921   0.19918   0.16665   0.00000  Uiso   1.00
H150   H     0.64054   0.13827   0.13534   0.00000  Uiso   1.00
N151   N     0.65867   0.20009   0.30257   0.00000  Uiso   1.00
H152   H     0.62454   0.22255   0.30181   0.00000  Uiso   1.00
C153   C     0.66561   0.17145   0.34241   0.00000  Uiso   1.00
H154   H     0.62433   0.16353   0.36188   0.00000  Uiso   1.00
H155   H     0.35918   0.19480   0.36486   0.00000  Uiso   1.00
H156   H     0.35138   0.13399   0.33328   0.00000  Uiso   1.00
C157   C     0.84802   0.26437   0.24920   0.00000  Uiso   1.00
C158   C     0.81864   0.06897   0.25080   0.00000  Uiso   1.00
C159   C     0.87411   0.25581   0.47511   0.00000  Uiso   1.00
C160   C     0.78388   0.08199   0.02577   0.00000  Uiso   1.00
C161   C     0.85578   0.31846   0.25108   0.00000  Uiso   1.00
C162   C     0.81084   0.01487   0.24897   0.00000  Uiso   1.00
C163   C     0.83338   0.16607   0.33607   0.00000  Uiso   1.00
C164   C     0.83330   0.16760   0.16395   0.00000  Uiso   1.00
C165   C     0.81212   0.12595   0.09440   0.00000  Uiso   1.00
C166   C     0.85210   0.20949   0.40567   0.00000  Uiso   1.00
C167   C     0.83277   0.16969   0.11640   0.00000  Uiso   1.00
C168   C     0.83338   0.16496   0.38371   0.00000  Uiso   1.00
C169   C     0.84863   0.21524   0.09399   0.00000  Uiso   1.00
C170   C     0.81290   0.12113   0.40677   0.00000  Uiso   1.00
C171   C     0.84835   0.21473   0.04687   0.00000  Uiso   1.00
C172   C     0.80965   0.12300   0.45403   0.00000  Uiso   1.00
C173   C     0.82804   0.16966   0.02400   0.00000  Uiso   1.00
C174   C     0.82978   0.16818   0.47683   0.00000  Uiso   1.00
C175   C     0.80695   0.12575   0.04833   0.00000  Uiso   1.00
C176   C     0.85265   0.21145   0.45233   0.00000  Uiso   1.00
C177   C     0.87052   0.25721   0.02212   0.00000  Uiso   1.00
C178   C     0.78674   0.08080   0.47881   0.00000  Uiso   1.00
H179   H     0.80099   0.09200   0.11389   0.00000  Uiso   1.00
H180   H     0.86515   0.24263   0.38563   0.00000  Uiso   1.00
H181   H     0.88801   0.29107   0.03911   0.00000  Uiso   1.00
H182   H     0.76979   0.04672   0.46182   0.00000  Uiso   1.00
N183   N     0.98344   0.15265   0.23783   0.00000  Uiso   1.00
N184   N     0.68322   0.18068   0.26217   0.00000  Uiso   1.00
O185   O     0.79642   0.24619   0.25299   0.00000  Uiso   1.00
O186   O     0.87025   0.08714   0.24702   0.00000  Uiso   1.00
O187   O     0.89280   0.23721   0.24519   0.00000  Uiso   1.00
O188   O     0.77387   0.09613   0.25481   0.00000  Uiso   1.00
O189   O     0.78514   0.17117   0.31997   0.00000  Uiso   1.00
O190   O     0.88153   0.16216   0.18003   0.00000  Uiso   1.00
O191   O     0.88152   0.16219   0.31218   0.00000  Uiso   1.00
O192   O     0.78515   0.17115   0.18783   0.00000  Uiso   1.00
Zn193  Zn    0.76898   0.17266   0.25521   0.00000  Uiso   1.00
Zn194  Zn    0.89769   0.16067   0.24479   0.00000  Uiso   1.00
C195   C     0.86455   0.26280   0.11997   0.00000  Uiso   1.00
O196   O     0.90488   0.26357   0.14273   0.00000  Uiso   1.00
O197   O     0.83338   0.30662   0.11801   0.00000  Uiso   1.00
H198   H     0.84802   0.00320   0.13718   0.00000  Uiso   1.00
C199   C     0.79766   0.07331   0.38113   0.00000  Uiso   1.00
O200   O     0.74796   0.05977   0.37884   0.00000  Uiso   1.00
O201   O     0.84062   0.04361   0.36046   0.00000  Uiso   1.00
H202   H     0.82548   0.01033   0.34633   0.00000  Uiso   1.00
C203   C     0.90323   0.30041   0.45135   0.00000  Uiso   1.00
O204   O     0.89448   0.01087   0.46559   0.00000  Uiso   1.00
O205   O     0.94275   0.29244   0.41421   0.00000  Uiso   1.00
H206   H     0.95996   0.32582   0.40135   0.00000  Uiso   1.00
C207   C     0.75465   0.03759   0.04981   0.00000  Uiso   1.00
O208   O     0.76034   0.32717   0.03422   0.00000  Uiso   1.00
O209   O     0.71846   0.04585   0.08896   0.00000  Uiso   1.00
H210   H     0.70078   0.01265   0.10185   0.00000  Uiso   1.00
N211   N     0.91114   0.00572   0.25803   0.00000  Uiso   1.00
H212   H     0.92860   0.32340   0.28457   0.00000  Uiso   1.00
C213   C     0.94899   0.00992   0.21723   0.00000  Uiso   1.00
H214   H     0.98322   0.03869   0.22364   0.00000  Uiso   1.00
H215   H     0.92689   0.02360   0.18884   0.00000  Uiso   1.00
H216   H     0.96738   0.30567   0.20753   0.00000  Uiso   1.00
N217   N     0.75513   0.32762   0.24334   0.00000  Uiso   1.00
H218   H     0.73681   0.00985   0.21720   0.00000  Uiso   1.00
C219   C     0.71866   0.32412   0.28499   0.00000  Uiso   1.00
H220   H     0.68303   0.29655   0.27941   0.00000  Uiso   1.00
H221   H     0.70221   0.02893   0.29559   0.00000  Uiso   1.00
H222   H     0.74134   0.30918   0.31250   0.00000  Uiso   1.00
N223   N     0.67469   0.13306   0.19750   0.00000  Uiso   1.00
H224   H     0.70892   0.11075   0.19836   0.00000  Uiso   1.00
C225   C     0.66780   0.16152   0.15757   0.00000  Uiso   1.00
H226   H     0.70903   0.16903   0.13793   0.00000  Uiso   1.00
H227   H     0.98255   0.19918   0.16665   0.00000  Uiso   1.00
H228   H     0.97388   0.13827   0.13534   0.00000  Uiso   1.00
N229   N     0.99201   0.20009   0.30257   0.00000  Uiso   1.00
H230   H     0.95787   0.22255   0.30181   0.00000  Uiso   1.00
C231   C     0.99894   0.17145   0.34241   0.00000  Uiso   1.00
H232   H     0.95766   0.16353   0.36188   0.00000  Uiso   1.00
H233   H     0.69252   0.19480   0.36486   0.00000  Uiso   1.00
H234   H     0.68471   0.13399   0.33328   0.00000  Uiso   1.00
C235   C     0.18135   0.59770   0.24920   0.00000  Uiso   1.00
C236   C     0.15197   0.40230   0.25080   0.00000  Uiso   1.00
C237   C     0.20744   0.58914   0.47511   0.00000  Uiso   1.00
C238   C     0.11722   0.41532   0.02577   0.00000  Uiso   1.00
C239   C     0.18912   0.65179   0.25108   0.00000  Uiso   1.00
C240   C     0.14417   0.34821   0.24897   0.00000  Uiso   1.00
C241   C     0.16671   0.49940   0.33607   0.00000  Uiso   1.00
C242   C     0.16663   0.50094   0.16395   0.00000  Uiso   1.00
C243   C     0.14545   0.45928   0.09440   0.00000  Uiso   1.00
C244   C     0.18544   0.54282   0.40567   0.00000  Uiso   1.00
C245   C     0.16610   0.50302   0.11640   0.00000  Uiso   1.00
C246   C     0.16672   0.49829   0.38371   0.00000  Uiso   1.00
C247   C     0.18196   0.54858   0.09399   0.00000  Uiso   1.00
C248   C     0.14623   0.45446   0.40677   0.00000  Uiso   1.00
C249   C     0.18168   0.54806   0.04687   0.00000  Uiso   1.00
C250   C     0.14298   0.45633   0.45403   0.00000  Uiso   1.00
C251   C     0.16137   0.50300   0.02400   0.00000  Uiso   1.00
C252   C     0.16312   0.50152   0.47683   0.00000  Uiso   1.00
C253   C     0.14028   0.45909   0.04833   0.00000  Uiso   1.00
C254   C     0.18599   0.54478   0.45233   0.00000  Uiso   1.00
C255   C     0.20386   0.59054   0.02212   0.00000  Uiso   1.00
C256   C     0.12007   0.41414   0.47881   0.00000  Uiso   1.00
H257   H     0.13433   0.42533   0.11389   0.00000  Uiso   1.00
H258   H     0.19848   0.57596   0.38563   0.00000  Uiso   1.00
H259   H     0.22134   0.62441   0.03911   0.00000  Uiso   1.00
H260   H     0.10312   0.38005   0.46182   0.00000  Uiso   1.00
N261   N     0.31678   0.48598   0.23783   0.00000  Uiso   1.00
N262   N     0.01656   0.51402   0.26217   0.00000  Uiso   1.00
O263   O     0.12975   0.57952   0.25299   0.00000  Uiso   1.00
O264   O     0.20358   0.42048   0.24702   0.00000  Uiso   1.00
O265   O     0.22613   0.57054   0.24519   0.00000  Uiso   1.00
O266   O     0.10720   0.42946   0.25481   0.00000  Uiso   1.00
O267   O     0.11847   0.50450   0.31997   0.00000  Uiso   1.00
O268   O     0.21486   0.49550   0.18003   0.00000  Uiso   1.00
O269   O     0.21485   0.49552   0.31218   0.00000  Uiso   1.00
O270   O     0.11848   0.50448   0.18783   0.00000  Uiso   1.00
Zn271  Zn    0.10231   0.50600   0.25521   0.00000  Uiso   1.00
Zn272  Zn    0.23102   0.49400   0.24479   0.00000  Uiso   1.00
C273   C     0.19789   0.59614   0.11997   0.00000  Uiso   1.00
O274   O     0.23822   0.59690   0.14273   0.00000  Uiso   1.00
O275   O     0.16671   0.63995   0.11801   0.00000  Uiso   1.00
H276   H     0.18135   0.33653   0.13718   0.00000  Uiso   1.00
C277   C     0.13099   0.40664   0.38113   0.00000  Uiso   1.00
O278   O     0.08129   0.39310   0.37884   0.00000  Uiso   1.00
O279   O     0.17395   0.37694   0.36046   0.00000  Uiso   1.00
H280   H     0.15882   0.34366   0.34633   0.00000  Uiso   1.00
C281   C     0.23656   0.63375   0.45135   0.00000  Uiso   1.00
O282   O     0.22782   0.34420   0.46559   0.00000  Uiso   1.00
O283   O     0.27608   0.62577   0.41421   0.00000  Uiso   1.00
H284   H     0.29329   0.65916   0.40135   0.00000  Uiso   1.00
C285   C     0.08798   0.37092   0.04981   0.00000  Uiso   1.00
O286   O     0.09368   0.66051   0.03422   0.00000  Uiso   1.00
O287   O     0.05179   0.37918   0.08896   0.00000  Uiso   1.00
H288   H     0.03412   0.34598   0.10185   0.00000  Uiso   1.00
N289   N     0.24447   0.33906   0.25803   0.00000  Uiso   1.00
H290   H     0.26193   0.65673   0.28457   0.00000  Uiso   1.00
C291   C     0.28233   0.34325   0.21723   0.00000  Uiso   1.00
H292   H     0.31656   0.37202   0.22364   0.00000  Uiso   1.00
H293   H     0.26022   0.35693   0.18884   0.00000  Uiso   1.00
H294   H     0.30072   0.63900   0.20753   0.00000  Uiso   1.00
N295   N     0.08846   0.66095   0.24334   0.00000  Uiso   1.00
H296   H     0.07014   0.34318   0.21720   0.00000  Uiso   1.00
C297   C     0.05200   0.65745   0.28499   0.00000  Uiso   1.00
H298   H     0.01636   0.62989   0.27941   0.00000  Uiso   1.00
H299   H     0.03555   0.36226   0.29559   0.00000  Uiso   1.00
H300   H     0.07467   0.64251   0.31250   0.00000  Uiso   1.00
N301   N     0.00803   0.46639   0.19750   0.00000  Uiso   1.00
H302   H     0.04226   0.44408   0.19836   0.00000  Uiso   1.00
C303   C     0.00114   0.49486   0.15757   0.00000  Uiso   1.00
H304   H     0.04236   0.50236   0.13793   0.00000  Uiso   1.00
H305   H     0.31588   0.53252   0.16665   0.00000  Uiso   1.00
H306   H     0.30721   0.47160   0.13534   0.00000  Uiso   1.00
N307   N     0.32534   0.53342   0.30257   0.00000  Uiso   1.00
H308   H     0.29121   0.55588   0.30181   0.00000  Uiso   1.00
C309   C     0.33228   0.50478   0.34241   0.00000  Uiso   1.00
H310   H     0.29100   0.49686   0.36188   0.00000  Uiso   1.00
H311   H     0.02585   0.52813   0.36486   0.00000  Uiso   1.00
H312   H     0.01804   0.46732   0.33328   0.00000  Uiso   1.00
C313   C     0.51469   0.59770   0.24920   0.00000  Uiso   1.00
C314   C     0.48530   0.40230   0.25080   0.00000  Uiso   1.00
C315   C     0.54077   0.58914   0.47511   0.00000  Uiso   1.00
C316   C     0.45055   0.41532   0.02577   0.00000  Uiso   1.00
C317   C     0.52245   0.65179   0.25108   0.00000  Uiso   1.00
C318   C     0.47751   0.34821   0.24897   0.00000  Uiso   1.00
C319   C     0.50005   0.49940   0.33607   0.00000  Uiso   1.00
C320   C     0.49997   0.50094   0.16395   0.00000  Uiso   1.00
C321   C     0.47878   0.45928   0.09440   0.00000  Uiso   1.00
C322   C     0.51877   0.54282   0.40567   0.00000  Uiso   1.00
C323   C     0.49944   0.50302   0.11640   0.00000  Uiso   1.00
C324   C     0.50005   0.49829   0.38371   0.00000  Uiso   1.00
C325   C     0.51530   0.54858   0.09399   0.00000  Uiso   1.00
C326   C     0.47956   0.45446   0.40677   0.00000  Uiso   1.00
C327   C     0.51501   0.54806   0.04687   0.00000  Uiso   1.00
C328   C     0.47632   0.45633   0.45403   0.00000  Uiso   1.00
C329   C     0.49471   0.50300   0.02400   0.00000  Uiso   1.00
C330   C     0.49645   0.50152   0.47683   0.00000  Uiso   1.00
C331   C     0.47361   0.45909   0.04833   0.00000  Uiso   1.00
C332   C     0.51932   0.54478   0.45233   0.00000  Uiso   1.00
C333   C     0.53719   0.59054   0.02212   0.00000  Uiso   1.00
C334   C     0.45341   0.41414   0.47881   0.00000  Uiso   1.00
H335   H     0.46766   0.42533   0.11389   0.00000  Uiso   1.00
H336   H     0.53182   0.57596   0.38563   0.00000  Uiso   1.00
H337   H     0.55468   0.62441   0.03911   0.00000  Uiso   1.00
H338   H     0.43646   0.38005   0.46182   0.00000  Uiso   1.00
N339   N     0.65011   0.48598   0.23783   0.00000  Uiso   1.00
N340   N     0.34989   0.51402   0.26217   0.00000  Uiso   1.00
O341   O     0.46308   0.57952   0.25299   0.00000  Uiso   1.00
O342   O     0.53692   0.42048   0.24702   0.00000  Uiso   1.00
O343   O     0.55946   0.57054   0.24519   0.00000  Uiso   1.00
O344   O     0.44054   0.42946   0.25481   0.00000  Uiso   1.00
O345   O     0.45181   0.50450   0.31997   0.00000  Uiso   1.00
O346   O     0.54819   0.49550   0.18003   0.00000  Uiso   1.00
O347   O     0.54819   0.49552   0.31218   0.00000  Uiso   1.00
O348   O     0.45181   0.50448   0.18783   0.00000  Uiso   1.00
Zn349  Zn    0.43565   0.50600   0.25521   0.00000  Uiso   1.00
Zn350  Zn    0.56435   0.49400   0.24479   0.00000  Uiso   1.00
C351   C     0.53122   0.59614   0.11997   0.00000  Uiso   1.00
O352   O     0.57155   0.59690   0.14273   0.00000  Uiso   1.00
O353   O     0.50004   0.63995   0.11801   0.00000  Uiso   1.00
H354   H     0.51468   0.33653   0.13718   0.00000  Uiso   1.00
C355   C     0.46432   0.40664   0.38113   0.00000  Uiso   1.00
O356   O     0.41463   0.39310   0.37884   0.00000  Uiso   1.00
O357   O     0.50729   0.37694   0.36046   0.00000  Uiso   1.00
H358   H     0.49215   0.34366   0.34633   0.00000  Uiso   1.00
C359   C     0.56990   0.63375   0.45135   0.00000  Uiso   1.00
O360   O     0.56115   0.34420   0.46559   0.00000  Uiso   1.00
O361   O     0.60942   0.62577   0.41421   0.00000  Uiso   1.00
H362   H     0.62663   0.65916   0.40135   0.00000  Uiso   1.00
C363   C     0.42132   0.37092   0.04981   0.00000  Uiso   1.00
O364   O     0.42701   0.66051   0.03422   0.00000  Uiso   1.00
O365   O     0.38513   0.37918   0.08896   0.00000  Uiso   1.00
H366   H     0.36745   0.34598   0.10185   0.00000  Uiso   1.00
N367   N     0.57780   0.33906   0.25803   0.00000  Uiso   1.00
H368   H     0.59526   0.65673   0.28457   0.00000  Uiso   1.00
C369   C     0.61566   0.34325   0.21723   0.00000  Uiso   1.00
H370   H     0.64989   0.37202   0.22364   0.00000  Uiso   1.00
H371   H     0.59356   0.35693   0.18884   0.00000  Uiso   1.00
H372   H     0.63405   0.63900   0.20753   0.00000  Uiso   1.00
N373   N     0.42179   0.66095   0.24334   0.00000  Uiso   1.00
H374   H     0.40347   0.34318   0.21720   0.00000  Uiso   1.00
C375   C     0.38533   0.65745   0.28499   0.00000  Uiso   1.00
H376   H     0.34970   0.62989   0.27941   0.00000  Uiso   1.00
H377   H     0.36888   0.36226   0.29559   0.00000  Uiso   1.00
H378   H     0.40800   0.64251   0.31250   0.00000  Uiso   1.00
N379   N     0.34136   0.46639   0.19750   0.00000  Uiso   1.00
H380   H     0.37559   0.44408   0.19836   0.00000  Uiso   1.00
C381   C     0.33447   0.49486   0.15757   0.00000  Uiso   1.00
H382   H     0.37570   0.50236   0.13793   0.00000  Uiso   1.00
H383   H     0.64921   0.53252   0.16665   0.00000  Uiso   1.00
H384   H     0.64054   0.47160   0.13534   0.00000  Uiso   1.00
N385   N     0.65867   0.53342   0.30257   0.00000  Uiso   1.00
H386   H     0.62454   0.55588   0.30181   0.00000  Uiso   1.00
C387   C     0.66561   0.50478   0.34241   0.00000  Uiso   1.00
H388   H     0.62433   0.49686   0.36188   0.00000  Uiso   1.00
H389   H     0.35918   0.52813   0.36486   0.00000  Uiso   1.00
H390   H     0.35138   0.46732   0.33328   0.00000  Uiso   1.00
C391   C     0.84802   0.59770   0.24920   0.00000  Uiso   1.00
C392   C     0.81864   0.40230   0.25080   0.00000  Uiso   1.00
C393   C     0.87411   0.58914   0.47511   0.00000  Uiso   1.00
C394   C     0.78388   0.41532   0.02577   0.00000  Uiso   1.00
C395   C     0.85578   0.65179   0.25108   0.00000  Uiso   1.00
C396   C     0.81084   0.34821   0.24897   0.00000  Uiso   1.00
C397   C     0.83338   0.49940   0.33607   0.00000  Uiso   1.00
C398   C     0.83330   0.50094   0.16395   0.00000  Uiso   1.00
C399   C     0.81212   0.45928   0.09440   0.00000  Uiso   1.00
C400   C     0.85210   0.54282   0.40567   0.00000  Uiso   1.00
C401   C     0.83277   0.50302   0.11640   0.00000  Uiso   1.00
C402   C     0.83338   0.49829   0.38371   0.00000  Uiso   1.00
C403   C     0.84863   0.54858   0.09399   0.00000  Uiso   1.00
C404   C     0.81290   0.45446   0.40677   0.00000  Uiso   1.00
C405   C     0.84835   0.54806   0.04687   0.00000  Uiso   1.00
C406   C     0.80965   0.45633   0.45403   0.00000  Uiso   1.00
C407   C     0.82804   0.50300   0.02400   0.00000  Uiso   1.00
C408   C     0.82978   0.50152   0.47683   0.00000  Uiso   1.00
C409   C     0.80695   0.45909   0.04833   0.00000  Uiso   1.00
C410   C     0.85265   0.54478   0.45233   0.00000  Uiso   1.00
C411   C     0.87052   0.59054   0.02212   0.00000  Uiso   1.00
C412   C     0.78674   0.41414   0.47881   0.00000  Uiso   1.00
H413   H     0.80099   0.42533   0.11389   0.00000  Uiso   1.00
H414   H     0.86515   0.57596   0.38563   0.00000  Uiso   1.00
H415   H     0.88801   0.62441   0.03911   0.00000  Uiso   1.00
H416   H     0.76979   0.38005   0.46182   0.00000  Uiso   1.00
N417   N     0.98344   0.48598   0.23783   0.00000  Uiso   1.00
N418   N     0.68322   0.51402   0.26217   0.00000  Uiso   1.00
O419   O     0.79642   0.57952   0.25299   0.00000  Uiso   1.00
O420   O     0.87025   0.42048   0.24702   0.00000  Uiso   1.00
O421   O     0.89280   0.57054   0.24519   0.00000  Uiso   1.00
O422   O     0.77387   0.42946   0.25481   0.00000  Uiso   1.00
O423   O     0.78514   0.50450   0.31997   0.00000  Uiso   1.00
O424   O     0.88153   0.49550   0.18003   0.00000  Uiso   1.00
O425   O     0.88152   0.49552   0.31218   0.00000  Uiso   1.00
O426   O     0.78515   0.50448   0.18783   0.00000  Uiso   1.00
Zn427  Zn    0.76898   0.50600   0.25521   0.00000  Uiso   1.00
Zn428  Zn    0.89769   0.49400   0.24479   0.00000  Uiso   1.00
C429   C     0.86455   0.59614   0.11997   0.00000  Uiso   1.00
O430   O     0.90488   0.59690   0.14273   0.00000  Uiso   1.00
O431   O     0.83338   0.63995   0.11801   0.00000  Uiso   1.00
H432   H     0.84802   0.33653   0.13718   0.00000  Uiso   1.00
C433   C     0.79766   0.40664   0.38113   0.00000  Uiso   1.00
O434   O     0.74796   0.39310   0.37884   0.00000  Uiso   1.00
O435   O     0.84062   0.37694   0.36046   0.00000  Uiso   1.00
H436   H     0.82548   0.34366   0.34633   0.00000  Uiso   1.00
C437   C     0.90323   0.63375   0.45135   0.00000  Uiso   1.00
O438   O     0.89448   0.34420   0.46559   0.00000  Uiso   1.00
O439   O     0.94275   0.62577   0.41421   0.00000  Uiso   1.00
H440   H     0.95996   0.65916   0.40135   0.00000  Uiso   1.00
C441   C     0.75465   0.37092   0.04981   0.00000  Uiso   1.00
O442   O     0.76034   0.66051   0.03422   0.00000  Uiso   1.00
O443   O     0.71846   0.37918   0.08896   0.00000  Uiso   1.00
H444   H     0.70078   0.34598   0.10185   0.00000  Uiso   1.00
N445   N     0.91114   0.33906   0.25803   0.00000  Uiso   1.00
H446   H     0.92860   0.65673   0.28457   0.00000  Uiso   1.00
C447   C     0.94899   0.34325   0.21723   0.00000  Uiso   1.00
H448   H     0.98322   0.37202   0.22364   0.00000  Uiso   1.00
H449   H     0.92689   0.35693   0.18884   0.00000  Uiso   1.00
H450   H     0.96738   0.63900   0.20753   0.00000  Uiso   1.00
N451   N     0.75513   0.66095   0.24334   0.00000  Uiso   1.00
H452   H     0.73681   0.34318   0.21720   0.00000  Uiso   1.00
C453   C     0.71866   0.65745   0.28499   0.00000  Uiso   1.00
H454   H     0.68303   0.62989   0.27941   0.00000  Uiso   1.00
H455   H     0.70221   0.36226   0.29559   0.00000  Uiso   1.00
H456   H     0.74134   0.64251   0.31250   0.00000  Uiso   1.00
N457   N     0.67469   0.46639   0.19750   0.00000  Uiso   1.00
H458   H     0.70892   0.44408   0.19836   0.00000  Uiso   1.00
C459   C     0.66780   0.49486   0.15757   0.00000  Uiso   1.00
H460   H     0.70903   0.50236   0.13793   0.00000  Uiso   1.00
H461   H     0.98255   0.53252   0.16665   0.00000  Uiso   1.00
H462   H     0.97388   0.47160   0.13534   0.00000  Uiso   1.00
N463   N     0.99201   0.53342   0.30257   0.00000  Uiso   1.00
H464   H     0.95787   0.55588   0.30181   0.00000  Uiso   1.00
C465   C     0.99894   0.50478   0.34241   0.00000  Uiso   1.00
H466   H     0.95766   0.49686   0.36188   0.00000  Uiso   1.00
H467   H     0.69252   0.52813   0.36486   0.00000  Uiso   1.00
H468   H     0.68471   0.46732   0.33328   0.00000  Uiso   1.00
C469   C     0.18135   0.93103   0.24920   0.00000  Uiso   1.00
C470   C     0.15197   0.73563   0.25080   0.00000  Uiso   1.00
C471   C     0.20744   0.92247   0.47511   0.00000  Uiso   1.00
C472   C     0.11722   0.74865   0.02577   0.00000  Uiso   1.00
C473   C     0.18912   0.98512   0.25108   0.00000  Uiso   1.00
C474   C     0.14417   0.68154   0.24897   0.00000  Uiso   1.00
C475   C     0.16671   0.83273   0.33607   0.00000  Uiso   1.00
C476   C     0.16663   0.83427   0.16395   0.00000  Uiso   1.00
C477   C     0.14545   0.79261   0.09440   0.00000  Uiso   1.00
C478   C     0.18544   0.87616   0.40567   0.00000  Uiso   1.00
C479   C     0.16610   0.83636   0.11640   0.00000  Uiso   1.00
C480   C     0.16672   0.83162   0.38371   0.00000  Uiso   1.00
C481   C     0.18196   0.88191   0.09399   0.00000  Uiso   1.00
C482   C     0.14623   0.78779   0.40677   0.00000  Uiso   1.00
C483   C     0.18168   0.88139   0.04687   0.00000  Uiso   1.00
C484   C     0.14298   0.78966   0.45403   0.00000  Uiso   1.00
C485   C     0.16137   0.83633   0.02400   0.00000  Uiso   1.00
C486   C     0.16312   0.83485   0.47683   0.00000  Uiso   1.00
C487   C     0.14028   0.79242   0.04833   0.00000  Uiso   1.00
C488   C     0.18599   0.87811   0.45233   0.00000  Uiso   1.00
C489   C     0.20386   0.92387   0.02212   0.00000  Uiso   1.00
C490   C     0.12007   0.74747   0.47881   0.00000  Uiso   1.00
H491   H     0.13433   0.75867   0.11389   0.00000  Uiso   1.00
H492   H     0.19848   0.90930   0.38563   0.00000  Uiso   1.00
H493   H     0.22134   0.95774   0.03911   0.00000  Uiso   1.00
H494   H     0.10312   0.71338   0.46182   0.00000  Uiso   1.00
N495   N     0.31678   0.81932   0.23783   0.00000  Uiso   1.00
N496   N     0.01656   0.84735   0.26217   0.00000  Uiso   1.00
O497   O     0.12975   0.91286   0.25299   0.00000  Uiso   1.00
O498   O     0.20358   0.75381   0.24702   0.00000  Uiso   1.00
O499   O     0.22613   0.90387   0.24519   0.00000  Uiso   1.00
O500   O     0.10720   0.76279   0.25481   0.00000  Uiso   1.00
O501   O     0.11847   0.83784   0.31997   0.00000  Uiso   1.00
O502   O     0.21486   0.82883   0.18003   0.00000  Uiso   1.00
O503   O     0.21485   0.82885   0.31218   0.00000  Uiso   1.00
O504   O     0.11848   0.83781   0.18783   0.00000  Uiso   1.00
Zn505  Zn    0.10231   0.83933   0.25521   0.00000  Uiso   1.00
Zn506  Zn    0.23102   0.82734   0.24479   0.00000  Uiso   1.00
C507   C     0.19789   0.92947   0.11997   0.00000  Uiso   1.00
O508   O     0.23822   0.93023   0.14273   0.00000  Uiso   1.00
O509   O     0.16671   0.97329   0.11801   0.00000  Uiso   1.00
H510   H     0.18135   0.66986   0.13718   0.00000  Uiso   1.00
C511   C     0.13099   0.73998   0.38113   0.00000  Uiso   1.00
O512   O     0.08129   0.72644   0.37884   0.00000  Uiso   1.00
O513   O     0.17395   0.71028   0.36046   0.00000  Uiso   1.00
H514   H     0.15882   0.67700   0.34633   0.00000  Uiso   1.00
C515   C     0.23656   0.96708   0.45135   0.00000  Uiso   1.00
O516   O     0.22782   0.67754   0.46559   0.00000  Uiso   1.00
O517   O     0.27608   0.95911   0.41421   0.00000  Uiso   1.00
H518   H     0.29329   0.99249   0.40135   0.00000  Uiso   1.00
C519   C     0.08798   0.70425   0.04981   0.00000  Uiso   1.00
O520   O     0.09368   0.99384   0.03422   0.00000  Uiso   1.00
O521   O     0.05179   0.71252   0.08896   0.00000  Uiso   1.00
H522   H     0.03412   0.67932   0.10185   0.00000  Uiso   1.00
N523   N     0.24447   0.67239   0.25803   0.00000  Uiso   1.00
H524   H     0.26193   0.99006   0.28457   0.00000  Uiso   1.00
C525   C     0.28233   0.67659   0.21723   0.00000  Uiso   1.00
H526   H     0.31656   0.70536   0.22364   0.00000  Uiso   1.00
H527   H     0.26022   0.69027   0.18884   0.00000  Uiso   1.00
H528   H     0.30072   0.97233   0.20753   0.00000  Uiso   1.00
N529   N     0.08846   0.99428   0.24334   0.00000  Uiso   1.00
H530   H     0.07014   0.67651   0.21720   0.00000  Uiso   1.00
C531   C     0.05200   0.99079   0.28499   0.00000  Uiso   1.00
H532   H     0.01636   0.96322   0.27941   0.00000  Uiso   1.00
H533   H     0.03555   0.69559   0.29559   0.00000  Uiso   1.00
H534   H     0.07467   0.97584   0.31250   0.00000  Uiso   1.00
N535   N     0.00803   0.79972   0.19750   0.00000  Uiso   1.00
H536   H     0.04226   0.77742   0.19836   0.00000  Uiso   1.00
C537   C     0.00114   0.82819   0.15757   0.00000  Uiso   1.00
H538   H     0.04236   0.83570   0.13793   0.00000  Uiso   1.00
H539   H     0.31588   0.86585   0.16665   0.00000  Uiso   1.00
H540   H     0.30721   0.80494   0.13534   0.00000  Uiso   1.00
N541   N     0.32534   0.86676   0.30257   0.00000  Uiso   1.00
H542   H     0.29121   0.88921   0.30181   0.00000  Uiso   1.00
C543   C     0.33228   0.83812   0.34241   0.00000  Uiso   1.00
H544   H     0.29100   0.83019   0.36188   0.00000  Uiso   1.00
H545   H     0.02585   0.86147   0.36486   0.00000  Uiso   1.00
H546   H     0.01804   0.80066   0.33328   0.00000  Uiso   1.00
C547   C     0.51469   0.93103   0.24920   0.00000  Uiso   1.00
C548   C     0.48530   0.73563   0.25080   0.00000  Uiso   1.00
C549   C     0.54077   0.92247   0.47511   0.00000  Uiso   1.00
C550   C     0.45055   0.74865   0.02577   0.00000  Uiso   1.00
C551   C     0.52245   0.98512   0.25108   0.00000  Uiso   1.00
C552   C     0.47751   0.68154   0.24897   0.00000  Uiso   1.00
C553   C     0.50005   0.83273   0.33607   0.00000  Uiso   1.00
C554   C     0.49997   0.83427   0.16395   0.00000  Uiso   1.00
C555   C     0.47878   0.79261   0.09440   0.00000  Uiso   1.00
C556   C     0.51877   0.87616   0.40567   0.00000  Uiso   1.00
C557   C     0.49944   0.83636   0.11640   0.00000  Uiso   1.00
C558   C     0.50005   0.83162   0.38371   0.00000  Uiso   1.00
C559   C     0.51530   0.88191   0.09399   0.00000  Uiso   1.00
C560   C     0.47956   0.78779   0.40677   0.00000  Uiso   1.00
C561   C     0.51501   0.88139   0.04687   0.00000  Uiso   1.00
C562   C     0.47632   0.78966   0.45403   0.00000  Uiso   1.00
C563   C     0.49471   0.83633   0.02400   0.00000  Uiso   1.00
C564   C     0.49645   0.83485   0.47683   0.00000  Uiso   1.00
C565   C     0.47361   0.79242   0.04833   0.00000  Uiso   1.00
C566   C     0.51932   0.87811   0.45233   0.00000  Uiso   1.00
C567   C     0.53719   0.92387   0.02212   0.00000  Uiso   1.00
C568   C     0.45341   0.74747   0.47881   0.00000  Uiso   1.00
H569   H     0.46766   0.75867   0.11389   0.00000  Uiso   1.00
H570   H     0.53182   0.90930   0.38563   0.00000  Uiso   1.00
H571   H     0.55468   0.95774   0.03911   0.00000  Uiso   1.00
H572   H     0.43646   0.71338   0.46182   0.00000  Uiso   1.00
N573   N     0.65011   0.81932   0.23783   0.00000  Uiso   1.00
N574   N     0.34989   0.84735   0.26217   0.00000  Uiso   1.00
O575   O     0.46308   0.91286   0.25299   0.00000  Uiso   1.00
O576   O     0.53692   0.75381   0.24702   0.00000  Uiso   1.00
O577   O     0.55946   0.90387   0.24519   0.00000  Uiso   1.00
O578   O     0.44054   0.76279   0.25481   0.00000  Uiso   1.00
O579   O     0.45181   0.83784   0.31997   0.00000  Uiso   1.00
O580   O     0.54819   0.82883   0.18003   0.00000  Uiso   1.00
O581   O     0.54819   0.82885   0.31218   0.00000  Uiso   1.00
O582   O     0.45181   0.83781   0.18783   0.00000  Uiso   1.00
Zn583  Zn    0.43565   0.83933   0.25521   0.00000  Uiso   1.00
Zn584  Zn    0.56435   0.82734   0.24479   0.00000  Uiso   1.00
C585   C     0.53122   0.92947   0.11997   0.00000  Uiso   1.00
O586   O     0.57155   0.93023   0.14273   0.00000  Uiso   1.00
O587   O     0.50004   0.97329   0.11801   0.00000  Uiso   1.00
H588   H     0.51468   0.66986   0.13718   0.00000  Uiso   1.00
C589   C     0.46432   0.73998   0.38113   0.00000  Uiso   1.00
O590   O     0.41463   0.72644   0.37884   0.00000  Uiso   1.00
O591   O     0.50729   0.71028   0.36046   0.00000  Uiso   1.00
H592   H     0.49215   0.67700   0.34633   0.00000  Uiso   1.00
C593   C     0.56990   0.96708   0.45135   0.00000  Uiso   1.00
O594   O     0.56115   0.67754   0.46559   0.00000  Uiso   1.00
O595   O     0.60942   0.95911   0.41421   0.00000  Uiso   1.00
H596   H     0.62663   0.99249   0.40135   0.00000  Uiso   1.00
C597   C     0.42132   0.70425   0.04981   0.00000  Uiso   1.00
O598   O     0.42701   0.99384   0.03422   0.00000  Uiso   1.00
O599   O     0.38513   0.71252   0.08896   0.00000  Uiso   1.00
H600   H     0.36745   0.67932   0.10185   0.00000  Uiso   1.00
N601   N     0.57780   0.67239   0.25803   0.00000  Uiso   1.00
H602   H     0.59526   0.99006   0.28457   0.00000  Uiso   1.00
C603   C     0.61566   0.67659   0.21723   0.00000  Uiso   1.00
H604   H     0.64989   0.70536   0.22364   0.00000  Uiso   1.00
H605   H     0.59356   0.69027   0.18884   0.00000  Uiso   1.00
H606   H     0.63405   0.97233   0.20753   0.00000  Uiso   1.00
N607   N     0.42179   0.99428   0.24334   0.00000  Uiso   1.00
H608   H     0.40347   0.67651   0.21720   0.00000  Uiso   1.00
C609   C     0.38533   0.99079   0.28499   0.00000  Uiso   1.00
H610   H     0.34970   0.96322   0.27941   0.00000  Uiso   1.00
H611   H     0.36888   0.69559   0.29559   0.00000  Uiso   1.00
H612   H     0.40800   0.97584   0.31250   0.00000  Uiso   1.00
N613   N     0.34136   0.79972   0.19750   0.00000  Uiso   1.00
H614   H     0.37559   0.77742   0.19836   0.00000  Uiso   1.00
C615   C     0.33447   0.82819   0.15757   0.00000  Uiso   1.00
H616   H     0.37570   0.83570   0.13793   0.00000  Uiso   1.00
H617   H     0.64921   0.86585   0.16665   0.00000  Uiso   1.00
H618   H     0.64054   0.80494   0.13534   0.00000  Uiso   1.00
N619   N     0.65867   0.86676   0.30257   0.00000  Uiso   1.00
H620   H     0.62454   0.88921   0.30181   0.00000  Uiso   1.00
C621   C     0.66561   0.83812   0.34241   0.00000  Uiso   1.00
H622   H     0.62433   0.83019   0.36188   0.00000  Uiso   1.00
H623   H     0.35918   0.86147   0.36486   0.00000  Uiso   1.00
H624   H     0.35138   0.80066   0.33328   0.00000  Uiso   1.00
C625   C     0.84802   0.93103   0.24920   0.00000  Uiso   1.00
C626   C     0.81864   0.73563   0.25080   0.00000  Uiso   1.00
C627   C     0.87411   0.92247   0.47511   0.00000  Uiso   1.00
C628   C     0.78388   0.74865   0.02577   0.00000  Uiso   1.00
C629   C     0.85578   0.98512   0.25108   0.00000  Uiso   1.00
C630   C     0.81084   0.68154   0.24897   0.00000  Uiso   1.00
C631   C     0.83338   0.83273   0.33607   0.00000  Uiso   1.00
C632   C     0.83330   0.83427   0.16395   0.00000  Uiso   1.00
C633   C     0.81212   0.79261   0.09440   0.00000  Uiso   1.00
C634   C     0.85210   0.87616   0.40567   0.00000  Uiso   1.00
C635   C     0.83277   0.83636   0.11640   0.00000  Uiso   1.00
C636   C     0.83338   0.83162   0.38371   0.00000  Uiso   1.00
C637   C     0.84863   0.88191   0.09399   0.00000  Uiso   1.00
C638   C     0.81290   0.78779   0.40677   0.00000  Uiso   1.00
C639   C     0.84835   0.88139   0.04687   0.00000  Uiso   1.00
C640   C     0.80965   0.78966   0.45403   0.00000  Uiso   1.00
C641   C     0.82804   0.83633   0.02400   0.00000  Uiso   1.00
C642   C     0.82978   0.83485   0.47683   0.00000  Uiso   1.00
C643   C     0.80695   0.79242   0.04833   0.00000  Uiso   1.00
C644   C     0.85265   0.87811   0.45233   0.00000  Uiso   1.00
C645   C     0.87052   0.92387   0.02212   0.00000  Uiso   1.00
C646   C     0.78674   0.74747   0.47881   0.00000  Uiso   1.00
H647   H     0.80099   0.75867   0.11389   0.00000  Uiso   1.00
H648   H     0.86515   0.90930   0.38563   0.00000  Uiso   1.00
H649   H     0.88801   0.95774   0.03911   0.00000  Uiso   1.00
H650   H     0.76979   0.71338   0.46182   0.00000  Uiso   1.00
N651   N     0.98344   0.81932   0.23783   0.00000  Uiso   1.00
N652   N     0.68322   0.84735   0.26217   0.00000  Uiso   1.00
O653   O     0.79642   0.91286   0.25299   0.00000  Uiso   1.00
O654   O     0.87025   0.75381   0.24702   0.00000  Uiso   1.00
O655   O     0.89280   0.90387   0.24519   0.00000  Uiso   1.00
O656   O     0.77387   0.76279   0.25481   0.00000  Uiso   1.00
O657   O     0.78514   0.83784   0.31997   0.00000  Uiso   1.00
O658   O     0.88153   0.82883   0.18003   0.00000  Uiso   1.00
O659   O     0.88152   0.82885   0.31218   0.00000  Uiso   1.00
O660   O     0.78515   0.83781   0.18783   0.00000  Uiso   1.00
Zn661  Zn    0.76898   0.83933   0.25521   0.00000  Uiso   1.00
Zn662  Zn    0.89769   0.82734   0.24479   0.00000  Uiso   1.00
C663   C     0.86455   0.92947   0.11997   0.00000  Uiso   1.00
O664   O     0.90488   0.93023   0.14273   0.00000  Uiso   1.00
O665   O     0.83338   0.97329   0.11801   0.00000  Uiso   1.00
H666   H     0.84802   0.66986   0.13718   0.00000  Uiso   1.00
C667   C     0.79766   0.73998   0.38113   0.00000  Uiso   1.00
O668   O     0.74796   0.72644   0.37884   0.00000  Uiso   1.00
O669   O     0.84062   0.71028   0.36046   0.00000  Uiso   1.00
H670   H     0.82548   0.67700   0.34633   0.00000  Uiso   1.00
C671   C     0.90323   0.96708   0.45135   0.00000  Uiso   1.00
O672   O     0.89448   0.67754   0.46559   0.00000  Uiso   1.00
O673   O     0.94275   0.95911   0.41421   0.00000  Uiso   1.00
H674   H     0.95996   0.99249   0.40135   0.00000  Uiso   1.00
C675   C     0.75465   0.70425   0.04981   0.00000  Uiso   1.00
O676   O     0.76034   0.99384   0.03422   0.00000  Uiso   1.00
O677   O     0.71846   0.71252   0.08896   0.00000  Uiso   1.00
H678   H     0.70078   0.67932   0.10185   0.00000  Uiso   1.00
N679   N     0.91114   0.67239   0.25803   0.00000  Uiso   1.00
H680   H     0.92860   0.99006   0.28457   0.00000  Uiso   1.00
C681   C     0.94899   0.67659   0.21723   0.00000  Uiso   1.00
H682   H     0.98322   0.70536   0.22364   0.00000  Uiso   1.00
H683   H     0.92689   0.69027   0.18884   0.00000  Uiso   1.00
H684   H     0.96738   0.97233   0.20753   0.00000  Uiso   1.00
N685   N     0.75513   0.99428   0.24334   0.00000  Uiso   1.00
H686   H     0.73681   0.67651   0.21720   0.00000  Uiso   1.00
C687   C     0.71866   0.99079   0.28499   0.00000  Uiso   1.00
H688   H     0.68303   0.96322   0.27941   0.00000  Uiso   1.00
H689   H     0.70221   0.69559   0.29559   0.00000  Uiso   1.00
H690   H     0.74134   0.97584   0.31250   0.00000  Uiso   1.00
N691   N     0.67469   0.79972   0.19750   0.00000  Uiso   1.00
H692   H     0.70892   0.77742   0.19836   0.00000  Uiso   1.00
C693   C     0.66780   0.82819   0.15757   0.00000  Uiso   1.00
H694   H     0.70903   0.83570   0.13793   0.00000  Uiso   1.00
H695   H     0.98255   0.86585   0.16665   0.00000  Uiso   1.00
H696   H     0.97388   0.80494   0.13534   0.00000  Uiso   1.00
N697   N     0.99201   0.86676   0.30257   0.00000  Uiso   1.00
H698   H     0.95787   0.88921   0.30181   0.00000  Uiso   1.00
C699   C     0.99894   0.83812   0.34241   0.00000  Uiso   1.00
H700   H     0.95766   0.83019   0.36188   0.00000  Uiso   1.00
H701   H     0.69252   0.86147   0.36486   0.00000  Uiso   1.00
H702   H     0.68471   0.80066   0.33328   0.00000  Uiso   1.00
C703   C     0.18135   0.26437   0.74920   0.00000  Uiso   1.00
C704   C     0.15197   0.06897   0.75080   0.00000  Uiso   1.00
C705   C     0.20744   0.25581   0.97511   0.00000  Uiso   1.00
C706   C     0.11722   0.08199   0.52577   0.00000  Uiso   1.00
C707   C     0.18912   0.31846   0.75108   0.00000  Uiso   1.00
C708   C     0.14417   0.01487   0.74897   0.00000  Uiso   1.00
C709   C     0.16671   0.16607   0.83607   0.00000  Uiso   1.00
C710   C     0.16663   0.16760   0.66395   0.00000  Uiso   1.00
C711   C     0.14545   0.12595   0.59440   0.00000  Uiso   1.00
C712   C     0.18544   0.20949   0.90567   0.00000  Uiso   1.00
C713   C     0.16610   0.16969   0.61640   0.00000  Uiso   1.00
C714   C     0.16672   0.16496   0.88371   0.00000  Uiso   1.00
C715   C     0.18196   0.21524   0.59399   0.00000  Uiso   1.00
C716   C     0.14623   0.12113   0.90677   0.00000  Uiso   1.00
C717   C     0.18168   0.21473   0.54687   0.00000  Uiso   1.00
C718   C     0.14298   0.12300   0.95403   0.00000  Uiso   1.00
C719   C     0.16137   0.16966   0.52400   0.00000  Uiso   1.00
C720   C     0.16312   0.16818   0.97683   0.00000  Uiso   1.00
C721   C     0.14028   0.12575   0.54833   0.00000  Uiso   1.00
C722   C     0.18599   0.21145   0.95233   0.00000  Uiso   1.00
C723   C     0.20386   0.25721   0.52212   0.00000  Uiso   1.00
C724   C     0.12007   0.08080   0.97881   0.00000  Uiso   1.00
H725   H     0.13433   0.09200   0.61389   0.00000  Uiso   1.00
H726   H     0.19848   0.24263   0.88563   0.00000  Uiso   1.00
H727   H     0.22134   0.29107   0.53911   0.00000  Uiso   1.00
H728   H     0.10312   0.04672   0.96182   0.00000  Uiso   1.00
N729   N     0.31678   0.15265   0.73783   0.00000  Uiso   1.00
N730   N     0.01656   0.18068   0.76217   0.00000  Uiso   1.00
O731   O     0.12975   0.24619   0.75299   0.00000  Uiso   1.00
O732   O     0.20358   0.08714   0.74702   0.00000  Uiso   1.00
O733   O     0.22613   0.23721   0.74519   0.00000  Uiso   1.00
O734   O     0.10720   0.09613   0.75481   0.00000  Uiso   1.00
O735   O     0.11847   0.17117   0.81997   0.00000  Uiso   1.00
O736   O     0.21486   0.16216   0.68003   0.00000  Uiso   1.00
O737   O     0.21485   0.16219   0.81218   0.00000  Uiso   1.00
O738   O     0.11848   0.17115   0.68783   0.00000  Uiso   1.00
Zn739  Zn    0.10231   0.17266   0.75521   0.00000  Uiso   1.00
Zn740  Zn    0.23102   0.16067   0.74479   0.00000  Uiso   1.00
C741   C     0.19789   0.26280   0.61997   0.00000  Uiso   1.00
O742   O     0.23822   0.26357   0.64273   0.00000  Uiso   1.00
O743   O     0.16671   0.30662   0.61801   0.00000  Uiso   1.00
H744   H     0.18135   0.00320   0.63718   0.00000  Uiso   1.00
C745   C     0.13099   0.07331   0.88113   0.00000  Uiso   1.00
O746   O     0.08129   0.05977   0.87884   0.00000  Uiso   1.00
O747   O     0.17395   0.04361   0.86046   0.00000  Uiso   1.00
H748   H     0.15882   0.01033   0.84633   0.00000  Uiso   1.00
C749   C     0.23656   0.30041   0.95135   0.00000  Uiso   1.00
O750   O     0.22782   0.01087   0.96559   0.00000  Uiso   1.00
O751   O     0.27608   0.29244   0.91421   0.00000  Uiso   1.00
H752   H     0.29329   0.32582   0.90135   0.00000  Uiso   1.00
C753   C     0.08798   0.03759   0.54981   0.00000  Uiso   1.00
O754   O     0.09368   0.32717   0.53422   0.00000  Uiso   1.00
O755   O     0.05179   0.04585   0.58896   0.00000  Uiso   1.00
H756   H     0.03412   0.01265   0.60185   0.00000  Uiso   1.00
N757   N     0.24447   0.00572   0.75803   0.00000  Uiso   1.00
H758   H     0.26193   0.32340   0.78457   0.00000  Uiso   1.00
C759   C     0.28233   0.00992   0.71723   0.00000  Uiso   1.00
H760   H     0.31656   0.03869   0.72364   0.00000  Uiso   1.00
H761   H     0.26022   0.02360   0.68884   0.00000  Uiso   1.00
H762   H     0.30072   0.30567   0.70753   0.00000  Uiso   1.00
N763   N     0.08846   0.32762   0.74334   0.00000  Uiso   1.00
H764   H     0.07014   0.00985   0.71720   0.00000  Uiso   1.00
C765   C     0.05200   0.32412   0.78499   0.00000  Uiso   1.00
H766   H     0.01636   0.29655   0.77941   0.00000  Uiso   1.00
H767   H     0.03555   0.02893   0.79559   0.00000  Uiso   1.00
H768   H     0.07467   0.30918   0.81250   0.00000  Uiso   1.00
N769   N     0.00803   0.13306   0.69750   0.00000  Uiso   1.00
H770   H     0.04226   0.11075   0.69836   0.00000  Uiso   1.00
C771   C     0.00114   0.16152   0.65757   0.00000  Uiso   1.00
H772   H     0.04236   0.16903   0.63793   0.00000  Uiso   1.00
H773   H     0.31588   0.19918   0.66665   0.00000  Uiso   1.00
H774   H     0.30721   0.13827   0.63534   0.00000  Uiso   1.00
N775   N     0.32534   0.20009   0.80257   0.00000  Uiso   1.00
H776   H     0.29121   0.22255   0.80181   0.00000  Uiso   1.00
C777   C     0.33228   0.17145   0.84241   0.00000  Uiso   1.00
H778   H     0.29100   0.16353   0.86188   0.00000  Uiso   1.00
H779   H     0.02585   0.19480   0.86486   0.00000  Uiso   1.00
H780   H     0.01804   0.13399   0.83328   0.00000  Uiso   1.00
C781   C     0.51469   0.26437   0.74920   0.00000  Uiso   1.00
C782   C     0.48530   0.06897   0.75080   0.00000  Uiso   1.00
C783   C     0.54077   0.25581   0.97511   0.00000  Uiso   1.00
C784   C     0.45055   0.08199   0.52577   0.00000  Uiso   1.00
C785   C     0.52245   0.31846   0.75108   0.00000  Uiso   1.00
C786   C     0.47751   0.01487   0.74897   0.00000  Uiso   1.00
C787   C     0.50005   0.16607   0.83607   0.00000  Uiso   1.00
C788   C     0.49997   0.16760   0.66395   0.00000  Uiso   1.00
C789   C     0.47878   0.12595   0.59440   0.00000  Uiso   1.00
C790   C     0.51877   0.20949   0.90567   0.00000  Uiso   1.00
C791   C     0.49944   0.16969   0.61640   0.00000  Uiso   1.00
C792   C     0.50005   0.16496   0.88371   0.00000  Uiso   1.00
C793   C     0.51530   0.21524   0.59399   0.00000  Uiso   1.00
C794   C     0.47956   0.12113   0.90677   0.00000  Uiso   1.00
C795   C     0.51501   0.21473   0.54687   0.00000  Uiso   1.00
C796   C     0.47632   0.12300   0.95403   0.00000  Uiso   1.00
C797   C     0.49471   0.16966   0.52400   0.00000  Uiso   1.00
C798   C     0.49645   0.16818   0.97683   0.00000  Uiso   1.00
C799   C     0.47361   0.12575   0.54833   0.00000  Uiso   1.00
C800   C     0.51932   0.21145   0.95233   0.00000  Uiso   1.00
C801   C     0.53719   0.25721   0.52212   0.00000  Uiso   1.00
C802   C     0.45341   0.08080   0.97881   0.00000  Uiso   1.00
H803   H     0.46766   0.09200   0.61389   0.00000  Uiso   1.00
H804   H     0.53182   0.24263   0.88563   0.00000  Uiso   1.00
H805   H     0.55468   0.29107   0.53911   0.00000  Uiso   1.00
H806   H     0.43646   0.04672   0.96182   0.00000  Uiso   1.00
N807   N     0.65011   0.15265   0.73783   0.00000  Uiso   1.00
N808   N     0.34989   0.18068   0.76217   0.00000  Uiso   1.00
O809   O     0.46308   0.24619   0.75299   0.00000  Uiso   1.00
O810   O     0.53692   0.08714   0.74702   0.00000  Uiso   1.00
O811   O     0.55946   0.23721   0.74519   0.00000  Uiso   1.00
O812   O     0.44054   0.09613   0.75481   0.00000  Uiso   1.00
O813   O     0.45181   0.17117   0.81997   0.00000  Uiso   1.00
O814   O     0.54819   0.16216   0.68003   0.00000  Uiso   1.00
O815   O     0.54819   0.16219   0.81218   0.00000  Uiso   1.00
O816   O     0.45181   0.17115   0.68783   0.00000  Uiso   1.00
Zn817  Zn    0.43565   0.17266   0.75521   0.00000  Uiso   1.00
Zn818  Zn    0.56435   0.16067   0.74479   0.00000  Uiso   1.00
C819   C     0.53122   0.26280   0.61997   0.00000  Uiso   1.00
O820   O     0.57155   0.26357   0.64273   0.00000  Uiso   1.00
O821   O     0.50004   0.30662   0.61801   0.00000  Uiso   1.00
H822   H     0.51468   0.00320   0.63718   0.00000  Uiso   1.00
C823   C     0.46432   0.07331   0.88113   0.00000  Uiso   1.00
O824   O     0.41463   0.05977   0.87884   0.00000  Uiso   1.00
O825   O     0.50729   0.04361   0.86046   0.00000  Uiso   1.00
H826   H     0.49215   0.01033   0.84633   0.00000  Uiso   1.00
C827   C     0.56990   0.30041   0.95135   0.00000  Uiso   1.00
O828   O     0.56115   0.01087   0.96559   0.00000  Uiso   1.00
O829   O     0.60942   0.29244   0.91421   0.00000  Uiso   1.00
H830   H     0.62663   0.32582   0.90135   0.00000  Uiso   1.00
C831   C     0.42132   0.03759   0.54981   0.00000  Uiso   1.00
O832   O     0.42701   0.32717   0.53422   0.00000  Uiso   1.00
O833   O     0.38513   0.04585   0.58896   0.00000  Uiso   1.00
H834   H     0.36745   0.01265   0.60185   0.00000  Uiso   1.00
N835   N     0.57780   0.00572   0.75803   0.00000  Uiso   1.00
H836   H     0.59526   0.32340   0.78457   0.00000  Uiso   1.00
C837   C     0.61566   0.00992   0.71723   0.00000  Uiso   1.00
H838   H     0.64989   0.03869   0.72364   0.00000  Uiso   1.00
H839   H     0.59356   0.02360   0.68884   0.00000  Uiso   1.00
H840   H     0.63405   0.30567   0.70753   0.00000  Uiso   1.00
N841   N     0.42179   0.32762   0.74334   0.00000  Uiso   1.00
H842   H     0.40347   0.00985   0.71720   0.00000  Uiso   1.00
C843   C     0.38533   0.32412   0.78499   0.00000  Uiso   1.00
H844   H     0.34970   0.29655   0.77941   0.00000  Uiso   1.00
H845   H     0.36888   0.02893   0.79559   0.00000  Uiso   1.00
H846   H     0.40800   0.30918   0.81250   0.00000  Uiso   1.00
N847   N     0.34136   0.13306   0.69750   0.00000  Uiso   1.00
H848   H     0.37559   0.11075   0.69836   0.00000  Uiso   1.00
C849   C     0.33447   0.16152   0.65757   0.00000  Uiso   1.00
H850   H     0.37570   0.16903   0.63793   0.00000  Uiso   1.00
H851   H     0.64921   0.19918   0.66665   0.00000  Uiso   1.00
H852   H     0.64054   0.13827   0.63534   0.00000  Uiso   1.00
N853   N     0.65867   0.20009   0.80257   0.00000  Uiso   1.00
H854   H     0.62454   0.22255   0.80181   0.00000  Uiso   1.00
C855   C     0.66561   0.17145   0.84241   0.00000  Uiso   1.00
H856   H     0.62433   0.16353   0.86188   0.00000  Uiso   1.00
H857   H     0.35918   0.19480   0.86486   0.00000  Uiso   1.00
H858   H     0.35138   0.13399   0.83328   0.00000  Uiso   1.00
C859   C     0.84802   0.26437   0.74920   0.00000  Uiso   1.00
C860   C     0.81864   0.06897   0.75080   0.00000  Uiso   1.00
C861   C     0.87411   0.25581   0.97511   0.00000  Uiso   1.00
C862   C     0.78388   0.08199   0.52577   0.00000  Uiso   1.00
C863   C     0.85578   0.31846   0.75108   0.00000  Uiso   1.00
C864   C     0.81084   0.01487   0.74897   0.00000  Uiso   1.00
C865   C     0.83338   0.16607   0.83607   0.00000  Uiso   1.00
C866   C     0.83330   0.16760   0.66395   0.00000  Uiso   1.00
C867   C     0.81212   0.12595   0.59440   0.00000  Uiso   1.00
C868   C     0.85210   0.20949   0.90567   0.00000  Uiso   1.00
C869   C     0.83277   0.16969   0.61640   0.00000  Uiso   1.00
C870   C     0.83338   0.16496   0.88371   0.00000  Uiso   1.00
C871   C     0.84863   0.21524   0.59399   0.00000  Uiso   1.00
C872   C     0.81290   0.12113   0.90677   0.00000  Uiso   1.00
C873   C     0.84835   0.21473   0.54687   0.00000  Uiso   1.00
C874   C     0.80965   0.12300   0.95403   0.00000  Uiso   1.00
C875   C     0.82804   0.16966   0.52400   0.00000  Uiso   1.00
C876   C     0.82978   0.16818   0.97683   0.00000  Uiso   1.00
C877   C     0.80695   0.12575   0.54833   0.00000  Uiso   1.00
C878   C     0.85265   0.21145   0.95233   0.00000  Uiso   1.00
C879   C     0.87052   0.25721   0.52212   0.00000  Uiso   1.00
C880   C     0.78674   0.08080   0.97881   0.00000  Uiso   1.00
H881   H     0.80099   0.09200   0.61389   0.00000  Uiso   1.00
H882   H     0.86515   0.24263   0.88563   0.00000  Uiso   1.00
H883   H     0.88801   0.29107   0.53911   0.00000  Uiso   1.00
H884   H     0.76979   0.04672   0.96182   0.00000  Uiso   1.00
N885   N     0.98344   0.15265   0.73783   0.00000  Uiso   1.00
N886   N     0.68322   0.18068   0.76217   0.00000  Uiso   1.00
O887   O     0.79642   0.24619   0.75299   0.00000  Uiso   1.00
O888   O     0.87025   0.08714   0.74702   0.00000  Uiso   1.00
O889   O     0.89280   0.23721   0.74519   0.00000  Uiso   1.00
O890   O     0.77387   0.09613   0.75481   0.00000  Uiso   1.00
O891   O     0.78514   0.17117   0.81997   0.00000  Uiso   1.00
O892   O     0.88153   0.16216   0.68003   0.00000  Uiso   1.00
O893   O     0.88152   0.16219   0.81218   0.00000  Uiso   1.00
O894   O     0.78515   0.17115   0.68783   0.00000  Uiso   1.00
Zn895  Zn    0.76898   0.17266   0.75521   0.00000  Uiso   1.00
Zn896  Zn    0.89769   0.16067   0.74479   0.00000  Uiso   1.00
C897   C     0.86455   0.26280   0.61997   0.00000  Uiso   1.00
O898   O     0.90488   0.26357   0.64273   0.00000  Uiso   1.00
O899   O     0.83338   0.30662   0.61801   0.00000  Uiso   1.00
H900   H     0.84802   0.00320   0.63718   0.00000  Uiso   1.00
C901   C     0.79766   0.07331   0.88113   0.00000  Uiso   1.00
O902   O     0.74796   0.05977   0.87884   0.00000  Uiso   1.00
O903   O     0.84062   0.04361   0.86046   0.00000  Uiso   1.00
H904   H     0.82548   0.01033   0.84633   0.00000  Uiso   1.00
C905   C     0.90323   0.30041   0.95135   0.00000  Uiso   1.00
O906   O     0.89448   0.01087   0.96559   0.00000  Uiso   1.00
O907   O     0.94275   0.29244   0.91421   0.00000  Uiso   1.00
H908   H     0.95996   0.32582   0.90135   0.00000  Uiso   1.00
C909   C     0.75465   0.03759   0.54981   0.00000  Uiso   1.00
O910   O     0.76034   0.32717   0.53422   0.00000  Uiso   1.00
O911   O     0.71846   0.04585   0.58896   0.00000  Uiso   1.00
H912   H     0.70078   0.01265   0.60185   0.00000  Uiso   1.00
N913   N     0.91114   0.00572   0.75803   0.00000  Uiso   1.00
H914   H     0.92860   0.32340   0.78457   0.00000  Uiso   1.00
C915   C     0.94899   0.00992   0.71723   0.00000  Uiso   1.00
H916   H     0.98322   0.03869   0.72364   0.00000  Uiso   1.00
H917   H     0.92689   0.02360   0.68884   0.00000  Uiso   1.00
H918   H     0.96738   0.30567   0.70753   0.00000  Uiso   1.00
N919   N     0.75513   0.32762   0.74334   0.00000  Uiso   1.00
H920   H     0.73681   0.00985   0.71720   0.00000  Uiso   1.00
C921   C     0.71866   0.32412   0.78499   0.00000  Uiso   1.00
H922   H     0.68303   0.29655   0.77941   0.00000  Uiso   1.00
H923   H     0.70221   0.02893   0.79559   0.00000  Uiso   1.00
H924   H     0.74134   0.30918   0.81250   0.00000  Uiso   1.00
N925   N     0.67469   0.13306   0.69750   0.00000  Uiso   1.00
H926   H     0.70892   0.11075   0.69836   0.00000  Uiso   1.00
C927   C     0.66780   0.16152   0.65757   0.00000  Uiso   1.00
H928   H     0.70903   0.16903   0.63793   0.00000  Uiso   1.00
H929   H     0.98255   0.19918   0.66665   0.00000  Uiso   1.00
H930   H     0.97388   0.13827   0.63534   0.00000  Uiso   1.00
N931   N     0.99201   0.20009   0.80257   0.00000  Uiso   1.00
H932   H     0.95787   0.22255   0.80181   0.00000  Uiso   1.00
C933   C     0.99894   0.17145   0.84241   0.00000  Uiso   1.00
H934   H     0.95766   0.16353   0.86188   0.00000  Uiso   1.00
H935   H     0.69252   0.19480   0.86486   0.00000  Uiso   1.00
H936   H     0.68471   0.13399   0.83328   0.00000  Uiso   1.00
C937   C     0.18135   0.59770   0.74920   0.00000  Uiso   1.00
C938   C     0.15197   0.40230   0.75080   0.00000  Uiso   1.00
C939   C     0.20744   0.58914   0.97511   0.00000  Uiso   1.00
C940   C     0.11722   0.41532   0.52577   0.00000  Uiso   1.00
C941   C     0.18912   0.65179   0.75108   0.00000  Uiso   1.00
C942   C     0.14417   0.34821   0.74897   0.00000  Uiso   1.00
C943   C     0.16671   0.49940   0.83607   0.00000  Uiso   1.00
C944   C     0.16663   0.50094   0.66395   0.00000  Uiso   1.00
C945   C     0.14545   0.45928   0.59440   0.00000  Uiso   1.00
C946   C     0.18544   0.54282   0.90567   0.00000  Uiso   1.00
C947   C     0.16610   0.50302   0.61640   0.00000  Uiso   1.00
C948   C     0.16672   0.49829   0.88371   0.00000  Uiso   1.00
C949   C     0.18196   0.54858   0.59399   0.00000  Uiso   1.00
C950   C     0.14623   0.45446   0.90677   0.00000  Uiso   1.00
C951   C     0.18168   0.54806   0.54687   0.00000  Uiso   1.00
C952   C     0.14298   0.45633   0.95403   0.00000  Uiso   1.00
C953   C     0.16137   0.50300   0.52400   0.00000  Uiso   1.00
C954   C     0.16312   0.50152   0.97683   0.00000  Uiso   1.00
C955   C     0.14028   0.45909   0.54833   0.00000  Uiso   1.00
C956   C     0.18599   0.54478   0.95233   0.00000  Uiso   1.00
C957   C     0.20386   0.59054   0.52212   0.00000  Uiso   1.00
C958   C     0.12007   0.41414   0.97881   0.00000  Uiso   1.00
H959   H     0.13433   0.42533   0.61389   0.00000  Uiso   1.00
H960   H     0.19848   0.57596   0.88563   0.00000  Uiso   1.00
H961   H     0.22134   0.62441   0.53911   0.00000  Uiso   1.00
H962   H     0.10312   0.38005   0.96182   0.00000  Uiso   1.00
N963   N     0.31678   0.48598   0.73783   0.00000  Uiso   1.00
N964   N     0.01656   0.51402   0.76217   0.00000  Uiso   1.00
O965   O     0.12975   0.57952   0.75299   0.00000  Uiso   1.00
O966   O     0.20358   0.42048   0.74702   0.00000  Uiso   1.00
O967   O     0.22613   0.57054   0.74519   0.00000  Uiso   1.00
O968   O     0.10720   0.42946   0.75481   0.00000  Uiso   1.00
O969   O     0.11847   0.50450   0.81997   0.00000  Uiso   1.00
O970   O     0.21486   0.49550   0.68003   0.00000  Uiso   1.00
O971   O     0.21485   0.49552   0.81218   0.00000  Uiso   1.00
O972   O     0.11848   0.50448   0.68783   0.00000  Uiso   1.00
Zn973  Zn    0.10231   0.50600   0.75521   0.00000  Uiso   1.00
Zn974  Zn    0.23102   0.49400   0.74479   0.00000  Uiso   1.00
C975   C     0.19789   0.59614   0.61997   0.00000  Uiso   1.00
O976   O     0.23822   0.59690   0.64273   0.00000  Uiso   1.00
O977   O     0.16671   0.63995   0.61801   0.00000  Uiso   1.00
H978   H     0.18135   0.33653   0.63718   0.00000  Uiso   1.00
C979   C     0.13099   0.40664   0.88113   0.00000  Uiso   1.00
O980   O     0.08129   0.39310   0.87884   0.00000  Uiso   1.00
O981   O     0.17395   0.37694   0.86046   0.00000  Uiso   1.00
H982   H     0.15882   0.34366   0.84633   0.00000  Uiso   1.00
C983   C     0.23656   0.63375   0.95135   0.00000  Uiso   1.00
O984   O     0.22782   0.34420   0.96559   0.00000  Uiso   1.00
O985   O     0.27608   0.62577   0.91421   0.00000  Uiso   1.00
H986   H     0.29329   0.65916   0.90135   0.00000  Uiso   1.00
C987   C     0.08798   0.37092   0.54981   0.00000  Uiso   1.00
O988   O     0.09368   0.66051   0.53422   0.00000  Uiso   1.00
O989   O     0.05179   0.37918   0.58896   0.00000  Uiso   1.00
H990   H     0.03412   0.34598   0.60185   0.00000  Uiso   1.00
N991   N     0.24447   0.33906   0.75803   0.00000  Uiso   1.00
H992   H     0.26193   0.65673   0.78457   0.00000  Uiso   1.00
C993   C     0.28233   0.34325   0.71723   0.00000  Uiso   1.00
H994   H     0.31656   0.37202   0.72364   0.00000  Uiso   1.00
H995   H     0.26022   0.35693   0.68884   0.00000  Uiso   1.00
H996   H     0.30072   0.63900   0.70753   0.00000  Uiso   1.00
N997   N     0.08846   0.66095   0.74334   0.00000  Uiso   1.00
H998   H     0.07014   0.34318   0.71720   0.00000  Uiso   1.00
C999   C     0.05200   0.65745   0.78499   0.00000  Uiso   1.00
H1000  H     0.01636   0.62989   0.77941   0.00000  Uiso   1.00
H1001  H     0.03555   0.36226   0.79559   0.00000  Uiso   1.00
H1002  H     0.07467   0.64251   0.81250   0.00000  Uiso   1.00
N1003  N     0.00803   0.46639   0.69750   0.00000  Uiso   1.00
H1004  H     0.04226   0.44408   0.69836   0.00000  Uiso   1.00
C1005  C     0.00114   0.49486   0.65757   0.00000  Uiso   1.00
H1006  H     0.04236   0.50236   0.63793   0.00000  Uiso   1.00
H1007  H     0.31588   0.53252   0.66665   0.00000  Uiso   1.00
H1008  H     0.30721   0.47160   0.63534   0.00000  Uiso   1.00
N1009  N     0.32534   0.53342   0.80257   0.00000  Uiso   1.00
H1010  H     0.29121   0.55588   0.80181   0.00000  Uiso   1.00
C1011  C     0.33228   0.50478   0.84241   0.00000  Uiso   1.00
H1012  H     0.29100   0.49686   0.86188   0.00000  Uiso   1.00
H1013  H     0.02585   0.52813   0.86486   0.00000  Uiso   1.00
H1014  H     0.01804   0.46732   0.83328   0.00000  Uiso   1.00
C1015  C     0.51469   0.59770   0.74920   0.00000  Uiso   1.00
C1016  C     0.48530   0.40230   0.75080   0.00000  Uiso   1.00
C1017  C     0.54077   0.58914   0.97511   0.00000  Uiso   1.00
C1018  C     0.45055   0.41532   0.52577   0.00000  Uiso   1.00
C1019  C     0.52245   0.65179   0.75108   0.00000  Uiso   1.00
C1020  C     0.47751   0.34821   0.74897   0.00000  Uiso   1.00
C1021  C     0.50005   0.49940   0.83607   0.00000  Uiso   1.00
C1022  C     0.49997   0.50094   0.66395   0.00000  Uiso   1.00
C1023  C     0.47878   0.45928   0.59440   0.00000  Uiso   1.00
C1024  C     0.51877   0.54282   0.90567   0.00000  Uiso   1.00
C1025  C     0.49944   0.50302   0.61640   0.00000  Uiso   1.00
C1026  C     0.50005   0.49829   0.88371   0.00000  Uiso   1.00
C1027  C     0.51530   0.54858   0.59399   0.00000  Uiso   1.00
C1028  C     0.47956   0.45446   0.90677   0.00000  Uiso   1.00
C1029  C     0.51501   0.54806   0.54687   0.00000  Uiso   1.00
C1030  C     0.47632   0.45633   0.95403   0.00000  Uiso   1.00
C1031  C     0.49471   0.50300   0.52400   0.00000  Uiso   1.00
C1032  C     0.49645   0.50152   0.97683   0.00000  Uiso   1.00
C1033  C     0.47361   0.45909   0.54833   0.00000  Uiso   1.00
C1034  C     0.51932   0.54478   0.95233   0.00000  Uiso   1.00
C1035  C     0.53719   0.59054   0.52212   0.00000  Uiso   1.00
C1036  C     0.45341   0.41414   0.97881   0.00000  Uiso   1.00
H1037  H     0.46766   0.42533   0.61389   0.00000  Uiso   1.00
H1038  H     0.53182   0.57596   0.88563   0.00000  Uiso   1.00
H1039  H     0.55468   0.62441   0.53911   0.00000  Uiso   1.00
H1040  H     0.43646   0.38005   0.96182   0.00000  Uiso   1.00
N1041  N     0.65011   0.48598   0.73783   0.00000  Uiso   1.00
N1042  N     0.34989   0.51402   0.76217   0.00000  Uiso   1.00
O1043  O     0.46308   0.57952   0.75299   0.00000  Uiso   1.00
O1044  O     0.53692   0.42048   0.74702   0.00000  Uiso   1.00
O1045  O     0.55946   0.57054   0.74519   0.00000  Uiso   1.00
O1046  O     0.44054   0.42946   0.75481   0.00000  Uiso   1.00
O1047  O     0.45181   0.50450   0.81997   0.00000  Uiso   1.00
O1048  O     0.54819   0.49550   0.68003   0.00000  Uiso   1.00
O1049  O     0.54819   0.49552   0.81218   0.00000  Uiso   1.00
O1050  O     0.45181   0.50448   0.68783   0.00000  Uiso   1.00
Zn1051 Zn    0.43565   0.50600   0.75521   0.00000  Uiso   1.00
Zn1052 Zn    0.56435   0.49400   0.74479   0.00000  Uiso   1.00
C1053  C     0.53122   0.59614   0.61997   0.00000  Uiso   1.00
O1054  O     0.57155   0.59690   0.64273   0.00000  Uiso   1.00
O1055  O     0.50004   0.63995   0.61801   0.00000  Uiso   1.00
H1056  H     0.51468   0.33653   0.63718   0.00000  Uiso   1.00
C1057  C     0.46432   0.40664   0.88113   0.00000  Uiso   1.00
O1058  O     0.41463   0.39310   0.87884   0.00000  Uiso   1.00
O1059  O     0.50729   0.37694   0.86046   0.00000  Uiso   1.00
H1060  H     0.49215   0.34366   0.84633   0.00000  Uiso   1.00
C1061  C     0.56990   0.63375   0.95135   0.00000  Uiso   1.00
O1062  O     0.56115   0.34420   0.96559   0.00000  Uiso   1.00
O1063  O     0.60942   0.62577   0.91421   0.00000  Uiso   1.00
H1064  H     0.62663   0.65916   0.90135   0.00000  Uiso   1.00
C1065  C     0.42132   0.37092   0.54981   0.00000  Uiso   1.00
O1066  O     0.42701   0.66051   0.53422   0.00000  Uiso   1.00
O1067  O     0.38513   0.37918   0.58896   0.00000  Uiso   1.00
H1068  H     0.36745   0.34598   0.60185   0.00000  Uiso   1.00
N1069  N     0.57780   0.33906   0.75803   0.00000  Uiso   1.00
H1070  H     0.59526   0.65673   0.78457   0.00000  Uiso   1.00
C1071  C     0.61566   0.34325   0.71723   0.00000  Uiso   1.00
H1072  H     0.64989   0.37202   0.72364   0.00000  Uiso   1.00
H1073  H     0.59356   0.35693   0.68884   0.00000  Uiso   1.00
H1074  H     0.63405   0.63900   0.70753   0.00000  Uiso   1.00
N1075  N     0.42179   0.66095   0.74334   0.00000  Uiso   1.00
H1076  H     0.40347   0.34318   0.71720   0.00000  Uiso   1.00
C1077  C     0.38533   0.65745   0.78499   0.00000  Uiso   1.00
H1078  H     0.34970   0.62989   0.77941   0.00000  Uiso   1.00
H1079  H     0.36888   0.36226   0.79559   0.00000  Uiso   1.00
H1080  H     0.40800   0.64251   0.81250   0.00000  Uiso   1.00
N1081  N     0.34136   0.46639   0.69750   0.00000  Uiso   1.00
H1082  H     0.37559   0.44408   0.69836   0.00000  Uiso   1.00
C1083  C     0.33447   0.49486   0.65757   0.00000  Uiso   1.00
H1084  H     0.37570   0.50236   0.63793   0.00000  Uiso   1.00
H1085  H     0.64921   0.53252   0.66665   0.00000  Uiso   1.00
H1086  H     0.64054   0.47160   0.63534   0.00000  Uiso   1.00
N1087  N     0.65867   0.53342   0.80257   0.00000  Uiso   1.00
H1088  H     0.62454   0.55588   0.80181   0.00000  Uiso   1.00
C1089  C     0.66561   0.50478   0.84241   0.00000  Uiso   1.00
H1090  H     0.62433   0.49686   0.86188   0.00000  Uiso   1.00
H1091  H     0.35918   0.52813   0.86486   0.00000  Uiso   1.00
H1092  H     0.35138   0.46732   0.83328   0.00000  Uiso   1.00
C1093  C     0.84802   0.59770   0.74920   0.00000  Uiso   1.00
C1094  C     0.81864   0.40230   0.75080   0.00000  Uiso   1.00
C1095  C     0.87411   0.58914   0.97511   0.00000  Uiso   1.00
C1096  C     0.78388   0.41532   0.52577   0.00000  Uiso   1.00
C1097  C     0.85578   0.65179   0.75108   0.00000  Uiso   1.00
C1098  C     0.81084   0.34821   0.74897   0.00000  Uiso   1.00
C1099  C     0.83338   0.49940   0.83607   0.00000  Uiso   1.00
C1100  C     0.83330   0.50094   0.66395   0.00000  Uiso   1.00
C1101  C     0.81212   0.45928   0.59440   0.00000  Uiso   1.00
C1102  C     0.85210   0.54282   0.90567   0.00000  Uiso   1.00
C1103  C     0.83277   0.50302   0.61640   0.00000  Uiso   1.00
C1104  C     0.83338   0.49829   0.88371   0.00000  Uiso   1.00
C1105  C     0.84863   0.54858   0.59399   0.00000  Uiso   1.00
C1106  C     0.81290   0.45446   0.90677   0.00000  Uiso   1.00
C1107  C     0.84835   0.54806   0.54687   0.00000  Uiso   1.00
C1108  C     0.80965   0.45633   0.95403   0.00000  Uiso   1.00
C1109  C     0.82804   0.50300   0.52400   0.00000  Uiso   1.00
C1110  C     0.82978   0.50152   0.97683   0.00000  Uiso   1.00
C1111  C     0.80695   0.45909   0.54833   0.00000  Uiso   1.00
C1112  C     0.85265   0.54478   0.95233   0.00000  Uiso   1.00
C1113  C     0.87052   0.59054   0.52212   0.00000  Uiso   1.00
C1114  C     0.78674   0.41414   0.97881   0.00000  Uiso   1.00
H1115  H     0.80099   0.42533   0.61389   0.00000  Uiso   1.00
H1116  H     0.86515   0.57596   0.88563   0.00000  Uiso   1.00
H1117  H     0.88801   0.62441   0.53911   0.00000  Uiso   1.00
H1118  H     0.76979   0.38005   0.96182   0.00000  Uiso   1.00
N1119  N     0.98344   0.48598   0.73783   0.00000  Uiso   1.00
N1120  N     0.68322   0.51402   0.76217   0.00000  Uiso   1.00
O1121  O     0.79642   0.57952   0.75299   0.00000  Uiso   1.00
O1122  O     0.87025   0.42048   0.74702   0.00000  Uiso   1.00
O1123  O     0.89280   0.57054   0.74519   0.00000  Uiso   1.00
O1124  O     0.77387   0.42946   0.75481   0.00000  Uiso   1.00
O1125  O     0.78514   0.50450   0.81997   0.00000  Uiso   1.00
O1126  O     0.88153   0.49550   0.68003   0.00000  Uiso   1.00
O1127  O     0.88152   0.49552   0.81218   0.00000  Uiso   1.00
O1128  O     0.78515   0.50448   0.68783   0.00000  Uiso   1.00
Zn1129 Zn    0.76898   0.50600   0.75521   0.00000  Uiso   1.00
Zn1130 Zn    0.89769   0.49400   0.74479   0.00000  Uiso   1.00
C1131  C     0.86455   0.59614   0.61997   0.00000  Uiso   1.00
O1132  O     0.90488   0.59690   0.64273   0.00000  Uiso   1.00
O1133  O     0.83338   0.63995   0.61801   0.00000  Uiso   1.00
H1134  H     0.84802   0.33653   0.63718   0.00000  Uiso   1.00
C1135  C     0.79766   0.40664   0.88113   0.00000  Uiso   1.00
O1136  O     0.74796   0.39310   0.87884   0.00000  Uiso   1.00
O1137  O     0.84062   0.37694   0.86046   0.00000  Uiso   1.00
H1138  H     0.82548   0.34366   0.84633   0.00000  Uiso   1.00
C1139  C     0.90323   0.63375   0.95135   0.00000  Uiso   1.00
O1140  O     0.89448   0.34420   0.96559   0.00000  Uiso   1.00
O1141  O     0.94275   0.62577   0.91421   0.00000  Uiso   1.00
H1142  H     0.95996   0.65916   0.90135   0.00000  Uiso   1.00
C1143  C     0.75465   0.37092   0.54981   0.00000  Uiso   1.00
O1144  O     0.76034   0.66051   0.53422   0.00000  Uiso   1.00
O1145  O     0.71846   0.37918   0.58896   0.00000  Uiso   1.00
H1146  H     0.70078   0.34598   0.60185   0.00000  Uiso   1.00
N1147  N     0.91114   0.33906   0.75803   0.00000  Uiso   1.00
H1148  H     0.92860   0.65673   0.78457   0.00000  Uiso   1.00
C1149  C     0.94899   0.34325   0.71723   0.00000  Uiso   1.00
H1150  H     0.98322   0.37202   0.72364   0.00000  Uiso   1.00
H1151  H     0.92689   0.35693   0.68884   0.00000  Uiso   1.00
H1152  H     0.96738   0.63900   0.70753   0.00000  Uiso   1.00
N1153  N     0.75513   0.66095   0.74334   0.00000  Uiso   1.00
H1154  H     0.73681   0.34318   0.71720   0.00000  Uiso   1.00
C1155  C     0.71866   0.65745   0.78499   0.00000  Uiso   1.00
H1156  H     0.68303   0.62989   0.77941   0.00000  Uiso   1.00
H1157  H     0.70221   0.36226   0.79559   0.00000  Uiso   1.00
H1158  H     0.74134   0.64251   0.81250   0.00000  Uiso   1.00
N1159  N     0.67469   0.46639   0.69750   0.00000  Uiso   1.00
H1160  H     0.70892   0.44408   0.69836   0.00000  Uiso   1.00
C1161  C     0.66780   0.49486   0.65757   0.00000  Uiso   1.00
H1162  H     0.70903   0.50236   0.63793   0.00000  Uiso   1.00
H1163  H     0.98255   0.53252   0.66665   0.00000  Uiso   1.00
H1164  H     0.97388   0.47160   0.63534   0.00000  Uiso   1.00
N1165  N     0.99201   0.53342   0.80257   0.00000  Uiso   1.00
H1166  H     0.95787   0.55588   0.80181   0.00000  Uiso   1.00
C1167  C     0.99894   0.50478   0.84241   0.00000  Uiso   1.00
H1168  H     0.95766   0.49686   0.86188   0.00000  Uiso   1.00
H1169  H     0.69252   0.52813   0.86486   0.00000  Uiso   1.00
H1170  H     0.68471   0.46732   0.83328   0.00000  Uiso   1.00
C1171  C     0.18135   0.93103   0.74920   0.00000  Uiso   1.00
C1172  C     0.15197   0.73563   0.75080   0.00000  Uiso   1.00
C1173  C     0.20744   0.92247   0.97511   0.00000  Uiso   1.00
C1174  C     0.11722   0.74865   0.52577   0.00000  Uiso   1.00
C1175  C     0.18912   0.98512   0.75108   0.00000  Uiso   1.00
C1176  C     0.14417   0.68154   0.74897   0.00000  Uiso   1.00
C1177  C     0.16671   0.83273   0.83607   0.00000  Uiso   1.00
C1178  C     0.16663   0.83427   0.66395   0.00000  Uiso   1.00
C1179  C     0.14545   0.79261   0.59440   0.00000  Uiso   1.00
C1180  C     0.18544   0.87616   0.90567   0.00000  Uiso   1.00
C1181  C     0.16610   0.83636   0.61640   0.00000  Uiso   1.00
C1182  C     0.16672   0.83162   0.88371   0.00000  Uiso   1.00
C1183  C     0.18196   0.88191   0.59399   0.00000  Uiso   1.00
C1184  C     0.14623   0.78779   0.90677   0.00000  Uiso   1.00
C1185  C     0.18168   0.88139   0.54687   0.00000  Uiso   1.00
C1186  C     0.14298   0.78966   0.95403   0.00000  Uiso   1.00
C1187  C     0.16137   0.83633   0.52400   0.00000  Uiso   1.00
C1188  C     0.16312   0.83485   0.97683   0.00000  Uiso   1.00
C1189  C     0.14028   0.79242   0.54833   0.00000  Uiso   1.00
C1190  C     0.18599   0.87811   0.95233   0.00000  Uiso   1.00
C1191  C     0.20386   0.92387   0.52212   0.00000  Uiso   1.00
C1192  C     0.12007   0.74747   0.97881   0.00000  Uiso   1.00
H1193  H     0.13433   0.75867   0.61389   0.00000  Uiso   1.00
H1194  H     0.19848   0.90930   0.88563   0.00000  Uiso   1.00
H1195  H     0.22134   0.95774   0.53911   0.00000  Uiso   1.00
H1196  H     0.10312   0.71338   0.96182   0.00000  Uiso   1.00
N1197  N     0.31678   0.81932   0.73783   0.00000  Uiso   1.00
N1198  N     0.01656   0.84735   0.76217   0.00000  Uiso   1.00
O1199  O     0.12975   0.91286   0.75299   0.00000  Uiso   1.00
O1200  O     0.20358   0.75381   0.74702   0.00000  Uiso   1.00
O1201  O     0.22613   0.90387   0.74519   0.00000  Uiso   1.00
O1202  O     0.10720   0.76279   0.75481   0.00000  Uiso   1.00
O1203  O     0.11847   0.83784   0.81997   0.00000  Uiso   1.00
O1204  O     0.21486   0.82883   0.68003   0.00000  Uiso   1.00
O1205  O     0.21485   0.82885   0.81218   0.00000  Uiso   1.00
O1206  O     0.11848   0.83781   0.68783   0.00000  Uiso   1.00
Zn1207 Zn    0.10231   0.83933   0.75521   0.00000  Uiso   1.00
Zn1208 Zn    0.23102   0.82734   0.74479   0.00000  Uiso   1.00
C1209  C     0.19789   0.92947   0.61997   0.00000  Uiso   1.00
O1210  O     0.23822   0.93023   0.64273   0.00000  Uiso   1.00
O1211  O     0.16671   0.97329   0.61801   0.00000  Uiso   1.00
H1212  H     0.18135   0.66986   0.63718   0.00000  Uiso   1.00
C1213  C     0.13099   0.73998   0.88113   0.00000  Uiso   1.00
O1214  O     0.08129   0.72644   0.87884   0.00000  Uiso   1.00
O1215  O     0.17395   0.71028   0.86046   0.00000  Uiso   1.00
H1216  H     0.15882   0.67700   0.84633   0.00000  Uiso   1.00
C1217  C     0.23656   0.96708   0.95135   0.00000  Uiso   1.00
O1218  O     0.22782   0.67754   0.96559   0.00000  Uiso   1.00
O1219  O     0.27608   0.95911   0.91421   0.00000  Uiso   1.00
H1220  H     0.29329   0.99249   0.90135   0.00000  Uiso   1.00
C1221  C     0.08798   0.70425   0.54981   0.00000  Uiso   1.00
O1222  O     0.09368   0.99384   0.53422   0.00000  Uiso   1.00
O1223  O     0.05179   0.71252   0.58896   0.00000  Uiso   1.00
H1224  H     0.03412   0.67932   0.60185   0.00000  Uiso   1.00
N1225  N     0.24447   0.67239   0.75803   0.00000  Uiso   1.00
H1226  H     0.26193   0.99006   0.78457   0.00000  Uiso   1.00
C1227  C     0.28233   0.67659   0.71723   0.00000  Uiso   1.00
H1228  H     0.31656   0.70536   0.72364   0.00000  Uiso   1.00
H1229  H     0.26022   0.69027   0.68884   0.00000  Uiso   1.00
H1230  H     0.30072   0.97233   0.70753   0.00000  Uiso   1.00
N1231  N     0.08846   0.99428   0.74334   0.00000  Uiso   1.00
H1232  H     0.07014   0.67651   0.71720   0.00000  Uiso   1.00
C1233  C     0.05200   0.99079   0.78499   0.00000  Uiso   1.00
H1234  H     0.01636   0.96322   0.77941   0.00000  Uiso   1.00
H1235  H     0.03555   0.69559   0.79559   0.00000  Uiso   1.00
H1236  H     0.07467   0.97584   0.81250   0.00000  Uiso   1.00
N1237  N     0.00803   0.79972   0.69750   0.00000  Uiso   1.00
H1238  H     0.04226   0.77742   0.69836   0.00000  Uiso   1.00
C1239  C     0.00114   0.82819   0.65757   0.00000  Uiso   1.00
H1240  H     0.04236   0.83570   0.63793   0.00000  Uiso   1.00
H1241  H     0.31588   0.86585   0.66665   0.00000  Uiso   1.00
H1242  H     0.30721   0.80494   0.63534   0.00000  Uiso   1.00
N1243  N     0.32534   0.86676   0.80257   0.00000  Uiso   1.00
H1244  H     0.29121   0.88921   0.80181   0.00000  Uiso   1.00
C1245  C     0.33228   0.83812   0.84241   0.00000  Uiso   1.00
H1246  H     0.29100   0.83019   0.86188   0.00000  Uiso   1.00
H1247  H     0.02585   0.86147   0.86486   0.00000  Uiso   1.00
H1248  H     0.01804   0.80066   0.83328   0.00000  Uiso   1.00
C1249  C     0.51469   0.93103   0.74920   0.00000  Uiso   1.00
C1250  C     0.48530   0.73563   0.75080   0.00000  Uiso   1.00
C1251  C     0.54077   0.92247   0.97511   0.00000  Uiso   1.00
C1252  C     0.45055   0.74865   0.52577   0.00000  Uiso   1.00
C1253  C     0.52245   0.98512   0.75108   0.00000  Uiso   1.00
C1254  C     0.47751   0.68154   0.74897   0.00000  Uiso   1.00
C1255  C     0.50005   0.83273   0.83607   0.00000  Uiso   1.00
C1256  C     0.49997   0.83427   0.66395   0.00000  Uiso   1.00
C1257  C     0.47878   0.79261   0.59440   0.00000  Uiso   1.00
C1258  C     0.51877   0.87616   0.90567   0.00000  Uiso   1.00
C1259  C     0.49944   0.83636   0.61640   0.00000  Uiso   1.00
C1260  C     0.50005   0.83162   0.88371   0.00000  Uiso   1.00
C1261  C     0.51530   0.88191   0.59399   0.00000  Uiso   1.00
C1262  C     0.47956   0.78779   0.90677   0.00000  Uiso   1.00
C1263  C     0.51501   0.88139   0.54687   0.00000  Uiso   1.00
C1264  C     0.47632   0.78966   0.95403   0.00000  Uiso   1.00
C1265  C     0.49471   0.83633   0.52400   0.00000  Uiso   1.00
C1266  C     0.49645   0.83485   0.97683   0.00000  Uiso   1.00
C1267  C     0.47361   0.79242   0.54833   0.00000  Uiso   1.00
C1268  C     0.51932   0.87811   0.95233   0.00000  Uiso   1.00
C1269  C     0.53719   0.92387   0.52212   0.00000  Uiso   1.00
C1270  C     0.45341   0.74747   0.97881   0.00000  Uiso   1.00
H1271  H     0.46766   0.75867   0.61389   0.00000  Uiso   1.00
H1272  H     0.53182   0.90930   0.88563   0.00000  Uiso   1.00
H1273  H     0.55468   0.95774   0.53911   0.00000  Uiso   1.00
H1274  H     0.43646   0.71338   0.96182   0.00000  Uiso   1.00
N1275  N     0.65011   0.81932   0.73783   0.00000  Uiso   1.00
N1276  N     0.34989   0.84735   0.76217   0.00000  Uiso   1.00
O1277  O     0.46308   0.91286   0.75299   0.00000  Uiso   1.00
O1278  O     0.53692   0.75381   0.74702   0.00000  Uiso   1.00
O1279  O     0.55946   0.90387   0.74519   0.00000  Uiso   1.00
O1280  O     0.44054   0.76279   0.75481   0.00000  Uiso   1.00
O1281  O     0.45181   0.83784   0.81997   0.00000  Uiso   1.00
O1282  O     0.54819   0.82883   0.68003   0.00000  Uiso   1.00
O1283  O     0.54819   0.82885   0.81218   0.00000  Uiso   1.00
O1284  O     0.45181   0.83781   0.68783   0.00000  Uiso   1.00
Zn1285 Zn    0.43565   0.83933   0.75521   0.00000  Uiso   1.00
Zn1286 Zn    0.56435   0.82734   0.74479   0.00000  Uiso   1.00
C1287  C     0.53122   0.92947   0.61997   0.00000  Uiso   1.00
O1288  O     0.57155   0.93023   0.64273   0.00000  Uiso   1.00
O1289  O     0.50004   0.97329   0.61801   0.00000  Uiso   1.00
H1290  H     0.51468   0.66986   0.63718   0.00000  Uiso   1.00
C1291  C     0.46432   0.73998   0.88113   0.00000  Uiso   1.00
O1292  O     0.41463   0.72644   0.87884   0.00000  Uiso   1.00
O1293  O     0.50729   0.71028   0.86046   0.00000  Uiso   1.00
H1294  H     0.49215   0.67700   0.84633   0.00000  Uiso   1.00
C1295  C     0.56990   0.96708   0.95135   0.00000  Uiso   1.00
O1296  O     0.56115   0.67754   0.96559   0.00000  Uiso   1.00
O1297  O     0.60942   0.95911   0.91421   0.00000  Uiso   1.00
H1298  H     0.62663   0.99249   0.90135   0.00000  Uiso   1.00
C1299  C     0.42132   0.70425   0.54981   0.00000  Uiso   1.00
O1300  O     0.42701   0.99384   0.53422   0.00000  Uiso   1.00
O1301  O     0.38513   0.71252   0.58896   0.00000  Uiso   1.00
H1302  H     0.36745   0.67932   0.60185   0.00000  Uiso   1.00
N1303  N     0.57780   0.67239   0.75803   0.00000  Uiso   1.00
H1304  H     0.59526   0.99006   0.78457   0.00000  Uiso   1.00
C1305  C     0.61566   0.67659   0.71723   0.00000  Uiso   1.00
H1306  H     0.64989   0.70536   0.72364   0.00000  Uiso   1.00
H1307  H     0.59356   0.69027   0.68884   0.00000  Uiso   1.00
H1308  H     0.63405   0.97233   0.70753   0.00000  Uiso   1.00
N1309  N     0.42179   0.99428   0.74334   0.00000  Uiso   1.00
H1310  H     0.40347   0.67651   0.71720   0.00000  Uiso   1.00
C1311  C     0.38533   0.99079   0.78499   0.00000  Uiso   1.00
H1312  H     0.34970   0.96322   0.77941   0.00000  Uiso   1.00
H1313  H     0.36888   0.69559   0.79559   0.00000  Uiso   1.00
H1314  H     0.40800   0.97584   0.81250   0.00000  Uiso   1.00
N1315  N     0.34136   0.79972   0.69750   0.00000  Uiso   1.00
H1316  H     0.37559   0.77742   0.69836   0.00000  Uiso   1.00
C1317  C     0.33447   0.82819   0.65757   0.00000  Uiso   1.00
H1318  H     0.37570   0.83570   0.63793   0.00000  Uiso   1.00
H1319  H     0.64921   0.86585   0.66665   0.00000  Uiso   1.00
H1320  H     0.64054   0.80494   0.63534   0.00000  Uiso   1.00
N1321  N     0.65867   0.86676   0.80257   0.00000  Uiso   1.00
H1322  H     0.62454   0.88921   0.80181   0.00000  Uiso   1.00
C1323  C     0.66561   0.83812   0.84241   0.00000  Uiso   1.00
H1324  H     0.62433   0.83019   0.86188   0.00000  Uiso   1.00
H1325  H     0.35918   0.86147   0.86486   0.00000  Uiso   1.00
H1326  H     0.35138   0.80066   0.83328   0.00000  Uiso   1.00
C1327  C     0.84802   0.93103   0.74920   0.00000  Uiso   1.00
C1328  C     0.81864   0.73563   0.75080   0.00000  Uiso   1.00
C1329  C     0.87411   0.92247   0.97511   0.00000  Uiso   1.00
C1330  C     0.78388   0.74865   0.52577   0.00000  Uiso   1.00
C1331  C     0.85578   0.98512   0.75108   0.00000  Uiso   1.00
C1332  C     0.81084   0.68154   0.74897   0.00000  Uiso   1.00
C1333  C     0.83338   0.83273   0.83607   0.00000  Uiso   1.00
C1334  C     0.83330   0.83427   0.66395   0.00000  Uiso   1.00
C1335  C     0.81212   0.79261   0.59440   0.00000  Uiso   1.00
C1336  C     0.85210   0.87616   0.90567   0.00000  Uiso   1.00
C1337  C     0.83277   0.83636   0.61640   0.00000  Uiso   1.00
C1338  C     0.83338   0.83162   0.88371   0.00000  Uiso   1.00
C1339  C     0.84863   0.88191   0.59399   0.00000  Uiso   1.00
C1340  C     0.81290   0.78779   0.90677   0.00000  Uiso   1.00
C1341  C     0.84835   0.88139   0.54687   0.00000  Uiso   1.00
C1342  C     0.80965   0.78966   0.95403   0.00000  Uiso   1.00
C1343  C     0.82804   0.83633   0.52400   0.00000  Uiso   1.00
C1344  C     0.82978   0.83485   0.97683   0.00000  Uiso   1.00
C1345  C     0.80695   0.79242   0.54833   0.00000  Uiso   1.00
C1346  C     0.85265   0.87811   0.95233   0.00000  Uiso   1.00
C1347  C     0.87052   0.92387   0.52212   0.00000  Uiso   1.00
C1348  C     0.78674   0.74747   0.97881   0.00000  Uiso   1.00
H1349  H     0.80099   0.75867   0.61389   0.00000  Uiso   1.00
H1350  H     0.86515   0.90930   0.88563   0.00000  Uiso   1.00
H1351  H     0.88801   0.95774   0.53911   0.00000  Uiso   1.00
H1352  H     0.76979   0.71338   0.96182   0.00000  Uiso   1.00
N1353  N     0.98344   0.81932   0.73783   0.00000  Uiso   1.00
N1354  N     0.68322   0.84735   0.76217   0.00000  Uiso   1.00
O1355  O     0.79642   0.91286   0.75299   0.00000  Uiso   1.00
O1356  O     0.87025   0.75381   0.74702   0.00000  Uiso   1.00
O1357  O     0.89280   0.90387   0.74519   0.00000  Uiso   1.00
O1358  O     0.77387   0.76279   0.75481   0.00000  Uiso   1.00
O1359  O     0.78514   0.83784   0.81997   0.00000  Uiso   1.00
O1360  O     0.88153   0.82883   0.68003   0.00000  Uiso   1.00
O1361  O     0.88152   0.82885   0.81218   0.00000  Uiso   1.00
O1362  O     0.78515   0.83781   0.68783   0.00000  Uiso   1.00
Zn1363 Zn    0.76898   0.83933   0.75521   0.00000  Uiso   1.00
Zn1364 Zn    0.89769   0.82734   0.74479   0.00000  Uiso   1.00
C1365  C     0.86455   0.92947   0.61997   0.00000  Uiso   1.00
O1366  O     0.90488   0.93023   0.64273   0.00000  Uiso   1.00
O1367  O     0.83338   0.97329   0.61801   0.00000  Uiso   1.00
H1368  H     0.84802   0.66986   0.63718   0.00000  Uiso   1.00
C1369  C     0.79766   0.73998   0.88113   0.00000  Uiso   1.00
O1370  O     0.74796   0.72644   0.87884   0.00000  Uiso   1.00
O1371  O     0.84062   0.71028   0.86046   0.00000  Uiso   1.00
H1372  H     0.82548   0.67700   0.84633   0.00000  Uiso   1.00
C1373  C     0.90323   0.96708   0.95135   0.00000  Uiso   1.00
O1374  O     0.89448   0.67754   0.96559   0.00000  Uiso   1.00
O1375  O     0.94275   0.95911   0.91421   0.00000  Uiso   1.00
H1376  H     0.95996   0.99249   0.90135   0.00000  Uiso   1.00
C1377  C     0.75465   0.70425   0.54981   0.00000  Uiso   1.00
O1378  O     0.76034   0.99384   0.53422   0.00000  Uiso   1.00
O1379  O     0.71846   0.71252   0.58896   0.00000  Uiso   1.00
H1380  H     0.70078   0.67932   0.60185   0.00000  Uiso   1.00
N1381  N     0.91114   0.67239   0.75803   0.00000  Uiso   1.00
H1382  H     0.92860   0.99006   0.78457   0.00000  Uiso   1.00
C1383  C     0.94899   0.67659   0.71723   0.00000  Uiso   1.00
H1384  H     0.98322   0.70536   0.72364   0.00000  Uiso   1.00
H1385  H     0.92689   0.69027   0.68884   0.00000  Uiso   1.00
H1386  H     0.96738   0.97233   0.70753   0.00000  Uiso   1.00
N1387  N     0.75513   0.99428   0.74334   0.00000  Uiso   1.00
H1388  H     0.73681   0.67651   0.71720   0.00000  Uiso   1.00
C1389  C     0.71866   0.99079   0.78499   0.00000  Uiso   1.00
H1390  H     0.68303   0.96322   0.77941   0.00000  Uiso   1.00
H1391  H     0.70221   0.69559   0.79559   0.00000  Uiso   1.00
H1392  H     0.74134   0.97584   0.81250   0.00000  Uiso   1.00
N1393  N     0.67469   0.79972   0.69750   0.00000  Uiso   1.00
H1394  H     0.70892   0.77742   0.69836   0.00000  Uiso   1.00
C1395  C     0.66780   0.82819   0.65757   0.00000  Uiso   1.00
H1396  H     0.70903   0.83570   0.63793   0.00000  Uiso   1.00
H1397  H     0.98255   0.86585   0.66665   0.00000  Uiso   1.00
H1398  H     0.97388   0.80494   0.63534   0.00000  Uiso   1.00
N1399  N     0.99201   0.86676   0.80257   0.00000  Uiso   1.00
H1400  H     0.95787   0.88921   0.80181   0.00000  Uiso   1.00
C1401  C     0.99894   0.83812   0.84241   0.00000  Uiso   1.00
H1402  H     0.95766   0.83019   0.86188   0.00000  Uiso   1.00
H1403  H     0.69252   0.86147   0.86486   0.00000  Uiso   1.00
H1404  H     0.68471   0.80066   0.83328   0.00000  Uiso   1.00
loop_
_geom_bond_atom_site_label_1
_geom_bond_atom_site_label_2
_geom_bond_distance
_geom_bond_site_symmetry_2
_ccdc_geom_bond_type
C1     C5      1.411   .     S
C1     O31     1.302   .     A
C1     O29     1.288   .     A
C2     O32     1.302   .     A
C2     C6      1.411   .     S
C2     O30     1.289   .     A
C3     C20     1.413   .     A
C3     C47     1.488   .     S
C3     C723    1.390   .     S
C4     C19     1.412   .     A
C4     C51     1.489   .     S
C4     C724    1.389   1_554 S
C5     C240    1.359   .     S
C5     N289    1.425   .     S
C6     C473    1.359   1_545 S
C6     N529    1.425   1_545 S
C7     O33     1.296   .     A
C7     C12     1.416   .     S
C7     O35     1.297   .     A
C8     O36     1.296   .     A
C8     O34     1.297   .     A
C8     C11     1.416   .     S
C9     C19     1.385   .     A
C9     C11     1.383   .     A
C9     H23     1.083   .     S
C10    C20     1.386   .     A
C10    H24     1.082   .     S
C10    C12     1.383   .     A
C11    C13     1.399   .     A
C12    C14     1.396   .     A
C13    C15     1.400   .     A
C13    C39     1.486   .     S
C14    C16     1.398   .     A
C14    C43     1.482   .     S
C15    C17     1.419   .     A
C15    C21     1.404   .     A
C16    C22     1.404   .     A
C16    C18     1.419   .     A
C17    C19     1.420   .     A
C17    C720    1.397   1_554 S
C18    C20     1.421   .     A
C18    C719    1.397   .     S
C21    H25     1.083   .     S
C21    C705    1.390   1_554 S
C22    H26     1.083   .     S
C22    C706    1.389   .     S
N27    Zn38    2.051   .     S
N27    N106    1.296   .     S
N27    N145    1.377   .     S
N28    Zn37    2.051   .     S
N28    N183    1.296   1_455 S
N28    N229    1.376   1_455 S
O29    Zn37    1.992   .     S
O30    Zn38    1.992   .     S
O31    Zn38    2.002   .     S
O32    Zn37    2.002   .     S
O33    Zn37    1.998   .     S
O34    Zn38    1.998   .     S
O35    Zn38    2.003   .     S
O36    Zn37    2.003   .     S
C39    O41     1.398   .     S
C39    O40     1.221   .     D
O41    H276    1.014   .     S
H42    O509    1.014   1_545 S
C43    O44     1.222   .     D
C43    O45     1.397   .     S
O45    H46     1.013   .     S
C47    O49     1.399   .     S
C47    O282    1.223   .     S
O48    C515    1.223   1_545 S
O49    H50     1.014   .     S
C51    O53     1.399   .     S
C51    O520    1.223   1_545 S
O52    C285    1.223   .     S
O53    H54     1.014   .     S
N55    C57     1.446   .     S
N55    C473    1.425   1_545 S
N55    H524    1.030   1_545 S
H56    N289    1.030   .     S
C57    H59     1.112   .     S
C57    H58     1.102   .     S
C57    H528    1.110   1_545 S
H60    C291    1.110   .     S
N61    C63     1.447   .     S
N61    C240    1.425   .     S
N61    H296    1.029   .     S
H62    N529    1.029   1_545 S
C63    H66     1.111   .     S
C63    H64     1.102   .     S
C63    H299    1.111   .     S
H65    C531    1.111   1_545 S
N67    H68     1.026   .     S
N67    C69     1.447   .     S
N67    N183    1.377   1_455 S
C69    H70     1.106   .     S
C69    H227    1.111   1_455 S
C69    H228    1.109   1_455 S
H71    C147    1.111   .     S
H72    C147    1.109   .     S
N73    H74     1.027   .     S
N73    C75     1.448   .     S
N73    N106    1.376   .     S
C75    H76     1.106   .     S
C75    H155    1.109   .     S
C75    H156    1.111   .     S
H77    C231    1.109   1_455 S
H78    C231    1.111   1_455 S
C79    C83     1.411   .     S
C79    O109    1.302   .     A
C79    O107    1.288   .     A
C80    O110    1.302   .     A
C80    C84     1.411   .     S
C80    O108    1.289   .     A
C81    C98     1.413   .     A
C81    C125    1.488   .     S
C81    C801    1.390   .     S
C82    C97     1.412   .     A
C82    C129    1.489   .     S
C82    C802    1.389   1_554 S
C83    C318    1.359   .     S
C83    N367    1.425   .     S
C84    C551    1.359   1_545 S
C84    N607    1.425   1_545 S
C85    O111    1.296   .     A
C85    C90     1.416   .     S
C85    O113    1.297   .     A
C86    O114    1.296   .     A
C86    O112    1.297   .     A
C86    C89     1.416   .     S
C87    C97     1.385   .     A
C87    C89     1.383   .     A
C87    H101    1.083   .     S
C88    C98     1.386   .     A
C88    H102    1.082   .     S
C88    C90     1.383   .     A
C89    C91     1.399   .     A
C90    C92     1.396   .     A
C91    C93     1.400   .     A
C91    C117    1.486   .     S
C92    C94     1.398   .     A
C92    C121    1.482   .     S
C93    C95     1.419   .     A
C93    C99     1.404   .     A
C94    C100    1.404   .     A
C94    C96     1.419   .     A
C95    C97     1.420   .     A
C95    C798    1.397   1_554 S
C96    C98     1.421   .     A
C96    C797    1.397   .     S
C99    H103    1.083   .     S
C99    C783    1.390   1_554 S
C100   H104    1.083   .     S
C100   C784    1.389   .     S
N105   Zn116   2.051   .     S
N105   N184    1.296   .     S
N105   N223    1.377   .     S
N106   Zn115   2.051   .     S
O107   Zn115   1.992   .     S
O108   Zn116   1.992   .     S
O109   Zn116   2.002   .     S
O110   Zn115   2.002   .     S
O111   Zn115   1.998   .     S
O112   Zn116   1.998   .     S
O113   Zn116   2.003   .     S
O114   Zn115   2.003   .     S
C117   O119    1.398   .     S
C117   O118    1.221   .     D
O119   H354    1.014   .     S
H120   O587    1.014   1_545 S
C121   O122    1.222   .     D
C121   O123    1.397   .     S
O123   H124    1.013   .     S
C125   O127    1.399   .     S
C125   O360    1.223   .     S
O126   C593    1.223   1_545 S
O127   H128    1.014   .     S
C129   O131    1.399   .     S
C129   O598    1.223   1_545 S
O130   C363    1.223   .     S
O131   H132    1.014   .     S
N133   C135    1.446   .     S
N133   C551    1.425   1_545 S
N133   H602    1.030   1_545 S
H134   N367    1.030   .     S
C135   H137    1.112   .     S
C135   H136    1.102   .     S
C135   H606    1.110   1_545 S
H138   C369    1.110   .     S
N139   C141    1.447   .     S
N139   C318    1.425   .     S
N139   H374    1.029   .     S
H140   N607    1.029   1_545 S
C141   H144    1.111   .     S
C141   H142    1.102   .     S
C141   H377    1.111   .     S
H143   C609    1.111   1_545 S
N145   H146    1.026   .     S
N145   C147    1.447   .     S
C147   H148    1.106   .     S
H149   C225    1.111   .     S
H150   C225    1.109   .     S
N151   H152    1.027   .     S
N151   C153    1.448   .     S
N151   N184    1.376   .     S
C153   H154    1.106   .     S
C153   H233    1.109   .     S
C153   H234    1.111   .     S
C157   C161    1.411   .     S
C157   O187    1.302   .     A
C157   O185    1.288   .     A
C158   O188    1.302   .     A
C158   C162    1.411   .     S
C158   O186    1.289   .     A
C159   C176    1.413   .     A
C159   C203    1.488   .     S
C159   C879    1.390   .     S
C160   C175    1.412   .     A
C160   C207    1.489   .     S
C160   C880    1.389   1_554 S
C161   C396    1.359   .     S
C161   N445    1.425   .     S
C162   C629    1.359   1_545 S
C162   N685    1.425   1_545 S
C163   O189    1.296   .     A
C163   C168    1.416   .     S
C163   O191    1.297   .     A
C164   O192    1.296   .     A
C164   O190    1.297   .     A
C164   C167    1.416   .     S
C165   C175    1.385   .     A
C165   C167    1.383   .     A
C165   H179    1.083   .     S
C166   C176    1.386   .     A
C166   H180    1.082   .     S
C166   C168    1.383   .     A
C167   C169    1.399   .     A
C168   C170    1.396   .     A
C169   C171    1.400   .     A
C169   C195    1.486   .     S
C170   C172    1.398   .     A
C170   C199    1.482   .     S
C171   C173    1.419   .     A
C171   C177    1.404   .     A
C172   C178    1.404   .     A
C172   C174    1.419   .     A
C173   C175    1.420   .     A
C173   C876    1.397   1_554 S
C174   C176    1.421   .     A
C174   C875    1.397   .     S
C177   H181    1.083   .     S
C177   C861    1.390   1_554 S
C178   H182    1.083   .     S
C178   C862    1.389   .     S
N183   Zn194   2.051   .     S
N183   N28     1.296   1_655 S
N183   N67     1.377   1_655 S
N184   Zn193   2.051   .     S
O185   Zn193   1.992   .     S
O186   Zn194   1.992   .     S
O187   Zn194   2.002   .     S
O188   Zn193   2.002   .     S
O189   Zn193   1.998   .     S
O190   Zn194   1.998   .     S
O191   Zn194   2.003   .     S
O192   Zn193   2.003   .     S
C195   O197    1.398   .     S
C195   O196    1.221   .     D
O197   H432    1.014   .     S
H198   O665    1.014   1_545 S
C199   O200    1.222   .     D
C199   O201    1.397   .     S
O201   H202    1.013   .     S
C203   O205    1.399   .     S
C203   O438    1.223   .     S
O204   C671    1.223   1_545 S
O205   H206    1.014   .     S
C207   O209    1.399   .     S
C207   O676    1.223   1_545 S
O208   C441    1.223   .     S
O209   H210    1.014   .     S
N211   C213    1.446   .     S
N211   C629    1.425   1_545 S
N211   H680    1.030   1_545 S
H212   N445    1.030   .     S
C213   H215    1.112   .     S
C213   H214    1.102   .     S
C213   H684    1.110   1_545 S
H216   C447    1.110   .     S
N217   C219    1.447   .     S
N217   C396    1.425   .     S
N217   H452    1.029   .     S
H218   N685    1.029   1_545 S
C219   H222    1.111   .     S
C219   H220    1.102   .     S
C219   H455    1.111   .     S
H221   C687    1.111   1_545 S
N223   H224    1.026   .     S
N223   C225    1.447   .     S
C225   H226    1.106   .     S
H227   C69     1.111   1_655 S
H228   C69     1.109   1_655 S
N229   H230    1.027   .     S
N229   C231    1.448   .     S
N229   N28     1.376   1_655 S
C231   H232    1.106   .     S
C231   H77     1.109   1_655 S
C231   H78     1.111   1_655 S
C235   C239    1.411   .     S
C235   O265    1.302   .     A
C235   O263    1.288   .     A
C236   O266    1.302   .     A
C236   C240    1.411   .     S
C236   O264    1.289   .     A
C237   C254    1.413   .     A
C237   C281    1.488   .     S
C237   C957    1.390   .     S
C238   C253    1.412   .     A
C238   C285    1.489   .     S
C238   C958    1.389   1_554 S
C239   C474    1.359   .     S
C239   N523    1.425   .     S
C241   O267    1.296   .     A
C241   C246    1.416   .     S
C241   O269    1.297   .     A
C242   O270    1.296   .     A
C242   O268    1.297   .     A
C242   C245    1.416   .     S
C243   C253    1.385   .     A
C243   C245    1.383   .     A
C243   H257    1.083   .     S
C244   C254    1.386   .     A
C244   H258    1.082   .     S
C244   C246    1.383   .     A
C245   C247    1.399   .     A
C246   C248    1.396   .     A
C247   C249    1.400   .     A
C247   C273    1.486   .     S
C248   C250    1.398   .     A
C248   C277    1.482   .     S
C249   C251    1.419   .     A
C249   C255    1.404   .     A
C250   C256    1.404   .     A
C250   C252    1.419   .     A
C251   C253    1.420   .     A
C251   C954    1.397   1_554 S
C252   C254    1.421   .     A
C252   C953    1.397   .     S
C255   H259    1.083   .     S
C255   C939    1.390   1_554 S
C256   H260    1.083   .     S
C256   C940    1.389   .     S
N261   Zn272   2.051   .     S
N261   N340    1.296   .     S
N261   N379    1.377   .     S
N262   Zn271   2.051   .     S
N262   N417    1.296   1_455 S
N262   N463    1.376   1_455 S
O263   Zn271   1.992   .     S
O264   Zn272   1.992   .     S
O265   Zn272   2.002   .     S
O266   Zn271   2.002   .     S
O267   Zn271   1.998   .     S
O268   Zn272   1.998   .     S
O269   Zn272   2.003   .     S
O270   Zn271   2.003   .     S
C273   O275    1.398   .     S
C273   O274    1.221   .     D
O275   H510    1.014   .     S
C277   O278    1.222   .     D
C277   O279    1.397   .     S
O279   H280    1.013   .     S
C281   O283    1.399   .     S
C281   O516    1.223   .     S
O283   H284    1.014   .     S
C285   O287    1.399   .     S
O286   C519    1.223   .     S
O287   H288    1.014   .     S
N289   C291    1.446   .     S
H290   N523    1.030   .     S
C291   H293    1.112   .     S
C291   H292    1.102   .     S
H294   C525    1.110   .     S
N295   C297    1.447   .     S
N295   C474    1.425   .     S
N295   H530    1.029   .     S
C297   H300    1.111   .     S
C297   H298    1.102   .     S
C297   H533    1.111   .     S
N301   H302    1.026   .     S
N301   C303    1.447   .     S
N301   N417    1.377   1_455 S
C303   H304    1.106   .     S
C303   H461    1.111   1_455 S
C303   H462    1.109   1_455 S
H305   C381    1.111   .     S
H306   C381    1.109   .     S
N307   H308    1.027   .     S
N307   C309    1.448   .     S
N307   N340    1.376   .     S
C309   H310    1.106   .     S
C309   H389    1.109   .     S
C309   H390    1.111   .     S
H311   C465    1.109   1_455 S
H312   C465    1.111   1_455 S
C313   C317    1.411   .     S
C313   O343    1.302   .     A
C313   O341    1.288   .     A
C314   O344    1.302   .     A
C314   C318    1.411   .     S
C314   O342    1.289   .     A
C315   C332    1.413   .     A
C315   C359    1.488   .     S
C315   C1035   1.390   .     S
C316   C331    1.412   .     A
C316   C363    1.489   .     S
C316   C1036   1.389   1_554 S
C317   C552    1.359   .     S
C317   N601    1.425   .     S
C319   O345    1.296   .     A
C319   C324    1.416   .     S
C319   O347    1.297   .     A
C320   O348    1.296   .     A
C320   O346    1.297   .     A
C320   C323    1.416   .     S
C321   C331    1.385   .     A
C321   C323    1.383   .     A
C321   H335    1.083   .     S
C322   C332    1.386   .     A
C322   H336    1.082   .     S
C322   C324    1.383   .     A
C323   C325    1.399   .     A
C324   C326    1.396   .     A
C325   C327    1.400   .     A
C325   C351    1.486   .     S
C326   C328    1.398   .     A
C326   C355    1.482   .     S
C327   C329    1.419   .     A
C327   C333    1.404   .     A
C328   C334    1.404   .     A
C328   C330    1.419   .     A
C329   C331    1.420   .     A
C329   C1032   1.397   1_554 S
C330   C332    1.421   .     A
C330   C1031   1.397   .     S
C333   H337    1.083   .     S
C333   C1017   1.390   1_554 S
C334   H338    1.083   .     S
C334   C1018   1.389   .     S
N339   Zn350   2.051   .     S
N339   N418    1.296   .     S
N339   N457    1.377   .     S
N340   Zn349   2.051   .     S
O341   Zn349   1.992   .     S
O342   Zn350   1.992   .     S
O343   Zn350   2.002   .     S
O344   Zn349   2.002   .     S
O345   Zn349   1.998   .     S
O346   Zn350   1.998   .     S
O347   Zn350   2.003   .     S
O348   Zn349   2.003   .     S
C351   O353    1.398   .     S
C351   O352    1.221   .     D
O353   H588    1.014   .     S
C355   O356    1.222   .     D
C355   O357    1.397   .     S
O357   H358    1.013   .     S
C359   O361    1.399   .     S
C359   O594    1.223   .     S
O361   H362    1.014   .     S
C363   O365    1.399   .     S
O364   C597    1.223   .     S
O365   H366    1.014   .     S
N367   C369    1.446   .     S
H368   N601    1.030   .     S
C369   H371    1.112   .     S
C369   H370    1.102   .     S
H372   C603    1.110   .     S
N373   C375    1.447   .     S
N373   C552    1.425   .     S
N373   H608    1.029   .     S
C375   H378    1.111   .     S
C375   H376    1.102   .     S
C375   H611    1.111   .     S
N379   H380    1.026   .     S
N379   C381    1.447   .     S
C381   H382    1.106   .     S
H383   C459    1.111   .     S
H384   C459    1.109   .     S
N385   H386    1.027   .     S
N385   C387    1.448   .     S
N385   N418    1.376   .     S
C387   H388    1.106   .     S
C387   H467    1.109   .     S
C387   H468    1.111   .     S
C391   C395    1.411   .     S
C391   O421    1.302   .     A
C391   O419    1.288   .     A
C392   O422    1.302   .     A
C392   C396    1.411   .     S
C392   O420    1.289   .     A
C393   C410    1.413   .     A
C393   C437    1.488   .     S
C393   C1113   1.390   .     S
C394   C409    1.412   .     A
C394   C441    1.489   .     S
C394   C1114   1.389   1_554 S
C395   C630    1.359   .     S
C395   N679    1.425   .     S
C397   O423    1.296   .     A
C397   C402    1.416   .     S
C397   O425    1.297   .     A
C398   O426    1.296   .     A
C398   O424    1.297   .     A
C398   C401    1.416   .     S
C399   C409    1.385   .     A
C399   C401    1.383   .     A
C399   H413    1.083   .     S
C400   C410    1.386   .     A
C400   H414    1.082   .     S
C400   C402    1.383   .     A
C401   C403    1.399   .     A
C402   C404    1.396   .     A
C403   C405    1.400   .     A
C403   C429    1.486   .     S
C404   C406    1.398   .     A
C404   C433    1.482   .     S
C405   C407    1.419   .     A
C405   C411    1.404   .     A
C406   C412    1.404   .     A
C406   C408    1.419   .     A
C407   C409    1.420   .     A
C407   C1110   1.397   1_554 S
C408   C410    1.421   .     A
C408   C1109   1.397   .     S
C411   H415    1.083   .     S
C411   C1095   1.390   1_554 S
C412   H416    1.083   .     S
C412   C1096   1.389   .     S
N417   Zn428   2.051   .     S
N417   N262    1.296   1_655 S
N417   N301    1.377   1_655 S
N418   Zn427   2.051   .     S
O419   Zn427   1.992   .     S
O420   Zn428   1.992   .     S
O421   Zn428   2.002   .     S
O422   Zn427   2.002   .     S
O423   Zn427   1.998   .     S
O424   Zn428   1.998   .     S
O425   Zn428   2.003   .     S
O426   Zn427   2.003   .     S
C429   O431    1.398   .     S
C429   O430    1.221   .     D
O431   H666    1.014   .     S
C433   O434    1.222   .     D
C433   O435    1.397   .     S
O435   H436    1.013   .     S
C437   O439    1.399   .     S
C437   O672    1.223   .     S
O439   H440    1.014   .     S
C441   O443    1.399   .     S
O442   C675    1.223   .     S
O443   H444    1.014   .     S
N445   C447    1.446   .     S
H446   N679    1.030   .     S
C447   H449    1.112   .     S
C447   H448    1.102   .     S
H450   C681    1.110   .     S
N451   C453    1.447   .     S
N451   C630    1.425   .     S
N451   H686    1.029   .     S
C453   H456    1.111   .     S
C453   H454    1.102   .     S
C453   H689    1.111   .     S
N457   H458    1.026   .     S
N457   C459    1.447   .     S
C459   H460    1.106   .     S
H461   C303    1.111   1_655 S
H462   C303    1.109   1_655 S
N463   H464    1.027   .     S
N463   C465    1.448   .     S
N463   N262    1.376   1_655 S
C465   H466    1.106   .     S
C465   H311    1.109   1_655 S
C465   H312    1.111   1_655 S
C469   C473    1.411   .     S
C469   O499    1.302   .     A
C469   O497    1.288   .     A
C470   O500    1.302   .     A
C470   C474    1.411   .     S
C470   O498    1.289   .     A
C471   C488    1.413   .     A
C471   C515    1.488   .     S
C471   C1191   1.390   .     S
C472   C487    1.412   .     A
C472   C519    1.489   .     S
C472   C1192   1.389   1_554 S
C473   C6      1.359   1_565 S
C473   N55     1.425   1_565 S
C475   O501    1.296   .     A
C475   C480    1.416   .     S
C475   O503    1.297   .     A
C476   O504    1.296   .     A
C476   O502    1.297   .     A
C476   C479    1.416   .     S
C477   C487    1.385   .     A
C477   C479    1.383   .     A
C477   H491    1.083   .     S
C478   C488    1.386   .     A
C478   H492    1.082   .     S
C478   C480    1.383   .     A
C479   C481    1.399   .     A
C480   C482    1.396   .     A
C481   C483    1.400   .     A
C481   C507    1.486   .     S
C482   C484    1.398   .     A
C482   C511    1.482   .     S
C483   C485    1.419   .     A
C483   C489    1.404   .     A
C484   C490    1.404   .     A
C484   C486    1.419   .     A
C485   C487    1.420   .     A
C485   C1188   1.397   1_554 S
C486   C488    1.421   .     A
C486   C1187   1.397   .     S
C489   H493    1.083   .     S
C489   C1173   1.390   1_554 S
C490   H494    1.083   .     S
C490   C1174   1.389   .     S
N495   Zn506   2.051   .     S
N495   N574    1.296   .     S
N495   N613    1.377   .     S
N496   Zn505   2.051   .     S
N496   N651    1.296   1_455 S
N496   N697    1.376   1_455 S
O497   Zn505   1.992   .     S
O498   Zn506   1.992   .     S
O499   Zn506   2.002   .     S
O500   Zn505   2.002   .     S
O501   Zn505   1.998   .     S
O502   Zn506   1.998   .     S
O503   Zn506   2.003   .     S
O504   Zn505   2.003   .     S
C507   O509    1.398   .     S
C507   O508    1.221   .     D
O509   H42     1.014   1_565 S
C511   O512    1.222   .     D
C511   O513    1.397   .     S
O513   H514    1.013   .     S
C515   O517    1.399   .     S
C515   O48     1.223   1_565 S
O517   H518    1.014   .     S
C519   O521    1.399   .     S
O520   C51     1.223   1_565 S
O521   H522    1.014   .     S
N523   C525    1.446   .     S
H524   N55     1.030   1_565 S
C525   H527    1.112   .     S
C525   H526    1.102   .     S
H528   C57     1.110   1_565 S
N529   C531    1.447   .     S
N529   C6      1.425   1_565 S
N529   H62     1.029   1_565 S
C531   H534    1.111   .     S
C531   H532    1.102   .     S
C531   H65     1.111   1_565 S
N535   H536    1.026   .     S
N535   C537    1.447   .     S
N535   N651    1.377   1_455 S
C537   H538    1.106   .     S
C537   H695    1.111   1_455 S
C537   H696    1.109   1_455 S
H539   C615    1.111   .     S
H540   C615    1.109   .     S
N541   H542    1.027   .     S
N541   C543    1.448   .     S
N541   N574    1.376   .     S
C543   H544    1.106   .     S
C543   H623    1.109   .     S
C543   H624    1.111   .     S
H545   C699    1.109   1_455 S
H546   C699    1.111   1_455 S
C547   C551    1.411   .     S
C547   O577    1.302   .     A
C547   O575    1.288   .     A
C548   O578    1.302   .     A
C548   C552    1.411   .     S
C548   O576    1.289   .     A
C549   C566    1.413   .     A
C549   C593    1.488   .     S
C549   C1269   1.390   .     S
C550   C565    1.412   .     A
C550   C597    1.489   .     S
C550   C1270   1.389   1_554 S
C551   C84     1.359   1_565 S
C551   N133    1.425   1_565 S
C553   O579    1.296   .     A
C553   C558    1.416   .     S
C553   O581    1.297   .     A
C554   O582    1.296   .     A
C554   O580    1.297   .     A
C554   C557    1.416   .     S
C555   C565    1.385   .     A
C555   C557    1.383   .     A
C555   H569    1.083   .     S
C556   C566    1.386   .     A
C556   H570    1.082   .     S
C556   C558    1.383   .     A
C557   C559    1.399   .     A
C558   C560    1.396   .     A
C559   C561    1.400   .     A
C559   C585    1.486   .     S
C560   C562    1.398   .     A
C560   C589    1.482   .     S
C561   C563    1.419   .     A
C561   C567    1.404   .     A
C562   C568    1.404   .     A
C562   C564    1.419   .     A
C563   C565    1.420   .     A
C563   C1266   1.397   1_554 S
C564   C566    1.421   .     A
C564   C1265   1.397   .     S
C567   H571    1.083   .     S
C567   C1251   1.390   1_554 S
C568   H572    1.083   .     S
C568   C1252   1.389   .     S
N573   Zn584   2.051   .     S
N573   N652    1.296   .     S
N573   N691    1.377   .     S
N574   Zn583   2.051   .     S
O575   Zn583   1.992   .     S
O576   Zn584   1.992   .     S
O577   Zn584   2.002   .     S
O578   Zn583   2.002   .     S
O579   Zn583   1.998   .     S
O580   Zn584   1.998   .     S
O581   Zn584   2.003   .     S
O582   Zn583   2.003   .     S
C585   O587    1.398   .     S
C585   O586    1.221   .     D
O587   H120    1.014   1_565 S
C589   O590    1.222   .     D
C589   O591    1.397   .     S
O591   H592    1.013   .     S
C593   O595    1.399   .     S
C593   O126    1.223   1_565 S
O595   H596    1.014   .     S
C597   O599    1.399   .     S
O598   C129    1.223   1_565 S
O599   H600    1.014   .     S
N601   C603    1.446   .     S
H602   N133    1.030   1_565 S
C603   H605    1.112   .     S
C603   H604    1.102   .     S
H606   C135    1.110   1_565 S
N607   C609    1.447   .     S
N607   C84     1.425   1_565 S
N607   H140    1.029   1_565 S
C609   H612    1.111   .     S
C609   H610    1.102   .     S
C609   H143    1.111   1_565 S
N613   H614    1.026   .     S
N613   C615    1.447   .     S
C615   H616    1.106   .     S
H617   C693    1.111   .     S
H618   C693    1.109   .     S
N619   H620    1.027   .     S
N619   C621    1.448   .     S
N619   N652    1.376   .     S
C621   H622    1.106   .     S
C621   H701    1.109   .     S
C621   H702    1.111   .     S
C625   C629    1.411   .     S
C625   O655    1.302   .     A
C625   O653    1.288   .     A
C626   O656    1.302   .     A
C626   C630    1.411   .     S
C626   O654    1.289   .     A
C627   C644    1.413   .     A
C627   C671    1.488   .     S
C627   C1347   1.390   .     S
C628   C643    1.412   .     A
C628   C675    1.489   .     S
C628   C1348   1.389   1_554 S
C629   C162    1.359   1_565 S
C629   N211    1.425   1_565 S
C631   O657    1.296   .     A
C631   C636    1.416   .     S
C631   O659    1.297   .     A
C632   O660    1.296   .     A
C632   O658    1.297   .     A
C632   C635    1.416   .     S
C633   C643    1.385   .     A
C633   C635    1.383   .     A
C633   H647    1.083   .     S
C634   C644    1.386   .     A
C634   H648    1.082   .     S
C634   C636    1.383   .     A
C635   C637    1.399   .     A
C636   C638    1.396   .     A
C637   C639    1.400   .     A
C637   C663    1.486   .     S
C638   C640    1.398   .     A
C638   C667    1.482   .     S
C639   C641    1.419   .     A
C639   C645    1.404   .     A
C640   C646    1.404   .     A
C640   C642    1.419   .     A
C641   C643    1.420   .     A
C641   C1344   1.397   1_554 S
C642   C644    1.421   .     A
C642   C1343   1.397   .     S
C645   H649    1.083   .     S
C645   C1329   1.390   1_554 S
C646   H650    1.083   .     S
C646   C1330   1.389   .     S
N651   Zn662   2.051   .     S
N651   N496    1.296   1_655 S
N651   N535    1.377   1_655 S
N652   Zn661   2.051   .     S
O653   Zn661   1.992   .     S
O654   Zn662   1.992   .     S
O655   Zn662   2.002   .     S
O656   Zn661   2.002   .     S
O657   Zn661   1.998   .     S
O658   Zn662   1.998   .     S
O659   Zn662   2.003   .     S
O660   Zn661   2.003   .     S
C663   O665    1.398   .     S
C663   O664    1.221   .     D
O665   H198    1.014   1_565 S
C667   O668    1.222   .     D
C667   O669    1.397   .     S
O669   H670    1.013   .     S
C671   O673    1.399   .     S
C671   O204    1.223   1_565 S
O673   H674    1.014   .     S
C675   O677    1.399   .     S
O676   C207    1.223   1_565 S
O677   H678    1.014   .     S
N679   C681    1.446   .     S
H680   N211    1.030   1_565 S
C681   H683    1.112   .     S
C681   H682    1.102   .     S
H684   C213    1.110   1_565 S
N685   C687    1.447   .     S
N685   C162    1.425   1_565 S
N685   H218    1.029   1_565 S
C687   H690    1.111   .     S
C687   H688    1.102   .     S
C687   H221    1.111   1_565 S
N691   H692    1.026   .     S
N691   C693    1.447   .     S
C693   H694    1.106   .     S
H695   C537    1.111   1_655 S
H696   C537    1.109   1_655 S
N697   H698    1.027   .     S
N697   C699    1.448   .     S
N697   N496    1.376   1_655 S
C699   H700    1.106   .     S
C699   H545    1.109   1_655 S
C699   H546    1.111   1_655 S
C703   C707    1.411   .     S
C703   O733    1.302   .     A
C703   O731    1.288   .     A
C704   O734    1.302   .     A
C704   C708    1.411   .     S
C704   O732    1.289   .     A
C705   C722    1.413   .     A
C705   C749    1.488   .     S
C705   C21     1.390   1_556 S
C706   C721    1.412   .     A
C706   C753    1.489   .     S
C707   C942    1.359   .     S
C707   N991    1.425   .     S
C708   C1175   1.359   1_545 S
C708   N1231   1.425   1_545 S
C709   O735    1.296   .     A
C709   C714    1.416   .     S
C709   O737    1.297   .     A
C710   O738    1.296   .     A
C710   O736    1.297   .     A
C710   C713    1.416   .     S
C711   C721    1.385   .     A
C711   C713    1.383   .     A
C711   H725    1.083   .     S
C712   C722    1.386   .     A
C712   H726    1.082   .     S
C712   C714    1.383   .     A
C713   C715    1.399   .     A
C714   C716    1.396   .     A
C715   C717    1.400   .     A
C715   C741    1.486   .     S
C716   C718    1.398   .     A
C716   C745    1.482   .     S
C717   C719    1.419   .     A
C717   C723    1.404   .     A
C718   C724    1.404   .     A
C718   C720    1.419   .     A
C719   C721    1.420   .     A
C720   C722    1.421   .     A
C720   C17     1.397   1_556 S
C723   H727    1.083   .     S
C724   H728    1.083   .     S
C724   C4      1.389   1_556 S
N729   Zn740   2.051   .     S
N729   N808    1.296   .     S
N729   N847    1.377   .     S
N730   Zn739   2.051   .     S
N730   N885    1.296   1_455 S
N730   N931    1.376   1_455 S
O731   Zn739   1.992   .     S
O732   Zn740   1.992   .     S
O733   Zn740   2.002   .     S
O734   Zn739   2.002   .     S
O735   Zn739   1.998   .     S
O736   Zn740   1.998   .     S
O737   Zn740   2.003   .     S
O738   Zn739   2.003   .     S
C741   O743    1.398   .     S
C741   O742    1.221   .     D
O743   H978    1.014   .     S
H744   O1211   1.014   1_545 S
C745   O746    1.222   .     D
C745   O747    1.397   .     S
O747   H748    1.013   .     S
C749   O751    1.399   .     S
C749   O984    1.223   .     S
O750   C1217   1.223   1_545 S
O751   H752    1.014   .     S
C753   O755    1.399   .     S
C753   O1222   1.223   1_545 S
O754   C987    1.223   .     S
O755   H756    1.014   .     S
N757   C759    1.446   .     S
N757   C1175   1.425   1_545 S
N757   H1226   1.030   1_545 S
H758   N991    1.030   .     S
C759   H761    1.112   .     S
C759   H760    1.102   .     S
C759   H1230   1.110   1_545 S
H762   C993    1.110   .     S
N763   C765    1.447   .     S
N763   C942    1.425   .     S
N763   H998    1.029   .     S
H764   N1231   1.029   1_545 S
C765   H768    1.111   .     S
C765   H766    1.102   .     S
C765   H1001   1.111   .     S
H767   C1233   1.111   1_545 S
N769   H770    1.026   .     S
N769   C771    1.447   .     S
N769   N885    1.377   1_455 S
C771   H772    1.106   .     S
C771   H929    1.111   1_455 S
C771   H930    1.109   1_455 S
H773   C849    1.111   .     S
H774   C849    1.109   .     S
N775   H776    1.027   .     S
N775   C777    1.448   .     S
N775   N808    1.376   .     S
C777   H778    1.106   .     S
C777   H857    1.109   .     S
C777   H858    1.111   .     S
H779   C933    1.109   1_455 S
H780   C933    1.111   1_455 S
C781   C785    1.411   .     S
C781   O811    1.302   .     A
C781   O809    1.288   .     A
C782   O812    1.302   .     A
C782   C786    1.411   .     S
C782   O810    1.289   .     A
C783   C800    1.413   .     A
C783   C827    1.488   .     S
C783   C99     1.390   1_556 S
C784   C799    1.412   .     A
C784   C831    1.489   .     S
C785   C1020   1.359   .     S
C785   N1069   1.425   .     S
C786   C1253   1.359   1_545 S
C786   N1309   1.425   1_545 S
C787   O813    1.296   .     A
C787   C792    1.416   .     S
C787   O815    1.297   .     A
C788   O816    1.296   .     A
C788   O814    1.297   .     A
C788   C791    1.416   .     S
C789   C799    1.385   .     A
C789   C791    1.383   .     A
C789   H803    1.083   .     S
C790   C800    1.386   .     A
C790   H804    1.082   .     S
C790   C792    1.383   .     A
C791   C793    1.399   .     A
C792   C794    1.396   .     A
C793   C795    1.400   .     A
C793   C819    1.486   .     S
C794   C796    1.398   .     A
C794   C823    1.482   .     S
C795   C797    1.419   .     A
C795   C801    1.404   .     A
C796   C802    1.404   .     A
C796   C798    1.419   .     A
C797   C799    1.420   .     A
C798   C800    1.421   .     A
C798   C95     1.397   1_556 S
C801   H805    1.083   .     S
C802   H806    1.083   .     S
C802   C82     1.389   1_556 S
N807   Zn818   2.051   .     S
N807   N886    1.296   .     S
N807   N925    1.377   .     S
N808   Zn817   2.051   .     S
O809   Zn817   1.992   .     S
O810   Zn818   1.992   .     S
O811   Zn818   2.002   .     S
O812   Zn817   2.002   .     S
O813   Zn817   1.998   .     S
O814   Zn818   1.998   .     S
O815   Zn818   2.003   .     S
O816   Zn817   2.003   .     S
C819   O821    1.398   .     S
C819   O820    1.221   .     D
O821   H1056   1.014   .     S
H822   O1289   1.014   1_545 S
C823   O824    1.222   .     D
C823   O825    1.397   .     S
O825   H826    1.013   .     S
C827   O829    1.399   .     S
C827   O1062   1.223   .     S
O828   C1295   1.223   1_545 S
O829   H830    1.014   .     S
C831   O833    1.399   .     S
C831   O1300   1.223   1_545 S
O832   C1065   1.223   .     S
O833   H834    1.014   .     S
N835   C837    1.446   .     S
N835   C1253   1.425   1_545 S
N835   H1304   1.030   1_545 S
H836   N1069   1.030   .     S
C837   H839    1.112   .     S
C837   H838    1.102   .     S
C837   H1308   1.110   1_545 S
H840   C1071   1.110   .     S
N841   C843    1.447   .     S
N841   C1020   1.425   .     S
N841   H1076   1.029   .     S
H842   N1309   1.029   1_545 S
C843   H846    1.111   .     S
C843   H844    1.102   .     S
C843   H1079   1.111   .     S
H845   C1311   1.111   1_545 S
N847   H848    1.026   .     S
N847   C849    1.447   .     S
C849   H850    1.106   .     S
H851   C927    1.111   .     S
H852   C927    1.109   .     S
N853   H854    1.027   .     S
N853   C855    1.448   .     S
N853   N886    1.376   .     S
C855   H856    1.106   .     S
C855   H935    1.109   .     S
C855   H936    1.111   .     S
C859   C863    1.411   .     S
C859   O889    1.302   .     A
C859   O887    1.288   .     A
C860   O890    1.302   .     A
C860   C864    1.411   .     S
C860   O888    1.289   .     A
C861   C878    1.413   .     A
C861   C905    1.488   .     S
C861   C177    1.390   1_556 S
C862   C877    1.412   .     A
C862   C909    1.489   .     S
C863   C1098   1.359   .     S
C863   N1147   1.425   .     S
C864   C1331   1.359   1_545 S
C864   N1387   1.425   1_545 S
C865   O891    1.296   .     A
C865   C870    1.416   .     S
C865   O893    1.297   .     A
C866   O894    1.296   .     A
C866   O892    1.297   .     A
C866   C869    1.416   .     S
C867   C877    1.385   .     A
C867   C869    1.383   .     A
C867   H881    1.083   .     S
C868   C878    1.386   .     A
C868   H882    1.082   .     S
C868   C870    1.383   .     A
C869   C871    1.399   .     A
C870   C872    1.396   .     A
C871   C873    1.400   .     A
C871   C897    1.486   .     S
C872   C874    1.398   .     A
C872   C901    1.482   .     S
C873   C875    1.419   .     A
C873   C879    1.404   .     A
C874   C880    1.404   .     A
C874   C876    1.419   .     A
C875   C877    1.420   .     A
C876   C878    1.421   .     A
C876   C173    1.397   1_556 S
C879   H883    1.083   .     S
C880   H884    1.083   .     S
C880   C160    1.389   1_556 S
N885   Zn896   2.051   .     S
N885   N730    1.296   1_655 S
N885   N769    1.377   1_655 S
N886   Zn895   2.051   .     S
O887   Zn895   1.992   .     S
O888   Zn896   1.992   .     S
O889   Zn896   2.002   .     S
O890   Zn895   2.002   .     S
O891   Zn895   1.998   .     S
O892   Zn896   1.998   .     S
O893   Zn896   2.003   .     S
O894   Zn895   2.003   .     S
C897   O899    1.398   .     S
C897   O898    1.221   .     D
O899   H1134   1.014   .     S
H900   O1367   1.014   1_545 S
C901   O902    1.222   .     D
C901   O903    1.397   .     S
O903   H904    1.013   .     S
C905   O907    1.399   .     S
C905   O1140   1.223   .     S
O906   C1373   1.223   1_545 S
O907   H908    1.014   .     S
C909   O911    1.399   .     S
C909   O1378   1.223   1_545 S
O910   C1143   1.223   .     S
O911   H912    1.014   .     S
N913   C915    1.446   .     S
N913   C1331   1.425   1_545 S
N913   H1382   1.030   1_545 S
H914   N1147   1.030   .     S
C915   H917    1.112   .     S
C915   H916    1.102   .     S
C915   H1386   1.110   1_545 S
H918   C1149   1.110   .     S
N919   C921    1.447   .     S
N919   C1098   1.425   .     S
N919   H1154   1.029   .     S
H920   N1387   1.029   1_545 S
C921   H924    1.111   .     S
C921   H922    1.102   .     S
C921   H1157   1.111   .     S
H923   C1389   1.111   1_545 S
N925   H926    1.026   .     S
N925   C927    1.447   .     S
C927   H928    1.106   .     S
H929   C771    1.111   1_655 S
H930   C771    1.109   1_655 S
N931   H932    1.027   .     S
N931   C933    1.448   .     S
N931   N730    1.376   1_655 S
C933   H934    1.106   .     S
C933   H779    1.109   1_655 S
C933   H780    1.111   1_655 S
C937   C941    1.411   .     S
C937   O967    1.302   .     A
C937   O965    1.288   .     A
C938   O968    1.302   .     A
C938   C942    1.411   .     S
C938   O966    1.289   .     A
C939   C956    1.413   .     A
C939   C983    1.488   .     S
C939   C255    1.390   1_556 S
C940   C955    1.412   .     A
C940   C987    1.489   .     S
C941   C1176   1.359   .     S
C941   N1225   1.425   .     S
C943   O969    1.296   .     A
C943   C948    1.416   .     S
C943   O971    1.297   .     A
C944   O972    1.296   .     A
C944   O970    1.297   .     A
C944   C947    1.416   .     S
C945   C955    1.385   .     A
C945   C947    1.383   .     A
C945   H959    1.083   .     S
C946   C956    1.386   .     A
C946   H960    1.082   .     S
C946   C948    1.383   .     A
C947   C949    1.399   .     A
C948   C950    1.396   .     A
C949   C951    1.400   .     A
C949   C975    1.486   .     S
C950   C952    1.398   .     A
C950   C979    1.482   .     S
C951   C953    1.419   .     A
C951   C957    1.404   .     A
C952   C958    1.404   .     A
C952   C954    1.419   .     A
C953   C955    1.420   .     A
C954   C956    1.421   .     A
C954   C251    1.397   1_556 S
C957   H961    1.083   .     S
C958   H962    1.083   .     S
C958   C238    1.389   1_556 S
N963   Zn974   2.051   .     S
N963   N1042   1.296   .     S
N963   N1081   1.377   .     S
N964   Zn973   2.051   .     S
N964   N1119   1.296   1_455 S
N964   N1165   1.376   1_455 S
O965   Zn973   1.992   .     S
O966   Zn974   1.992   .     S
O967   Zn974   2.002   .     S
O968   Zn973   2.002   .     S
O969   Zn973   1.998   .     S
O970   Zn974   1.998   .     S
O971   Zn974   2.003   .     S
O972   Zn973   2.003   .     S
C975   O977    1.398   .     S
C975   O976    1.221   .     D
O977   H1212   1.014   .     S
C979   O980    1.222   .     D
C979   O981    1.397   .     S
O981   H982    1.013   .     S
C983   O985    1.399   .     S
C983   O1218   1.223   .     S
O985   H986    1.014   .     S
C987   O989    1.399   .     S
O988   C1221   1.223   .     S
O989   H990    1.014   .     S
N991   C993    1.446   .     S
H992   N1225   1.030   .     S
C993   H995    1.112   .     S
C993   H994    1.102   .     S
H996   C1227   1.110   .     S
N997   C999    1.447   .     S
N997   C1176   1.425   .     S
N997   H1232   1.029   .     S
C999   H1002   1.111   .     S
C999   H1000   1.102   .     S
C999   H1235   1.111   .     S
N1003  H1004   1.026   .     S
N1003  C1005   1.447   .     S
N1003  N1119   1.377   1_455 S
C1005  H1006   1.106   .     S
C1005  H1163   1.111   1_455 S
C1005  H1164   1.109   1_455 S
H1007  C1083   1.111   .     S
H1008  C1083   1.109   .     S
N1009  H1010   1.027   .     S
N1009  C1011   1.448   .     S
N1009  N1042   1.376   .     S
C1011  H1012   1.106   .     S
C1011  H1091   1.109   .     S
C1011  H1092   1.111   .     S
H1013  C1167   1.109   1_455 S
H1014  C1167   1.111   1_455 S
C1015  C1019   1.411   .     S
C1015  O1045   1.302   .     A
C1015  O1043   1.288   .     A
C1016  O1046   1.302   .     A
C1016  C1020   1.411   .     S
C1016  O1044   1.289   .     A
C1017  C1034   1.413   .     A
C1017  C1061   1.488   .     S
C1017  C333    1.390   1_556 S
C1018  C1033   1.412   .     A
C1018  C1065   1.489   .     S
C1019  C1254   1.359   .     S
C1019  N1303   1.425   .     S
C1021  O1047   1.296   .     A
C1021  C1026   1.416   .     S
C1021  O1049   1.297   .     A
C1022  O1050   1.296   .     A
C1022  O1048   1.297   .     A
C1022  C1025   1.416   .     S
C1023  C1033   1.385   .     A
C1023  C1025   1.383   .     A
C1023  H1037   1.083   .     S
C1024  C1034   1.386   .     A
C1024  H1038   1.082   .     S
C1024  C1026   1.383   .     A
C1025  C1027   1.399   .     A
C1026  C1028   1.396   .     A
C1027  C1029   1.400   .     A
C1027  C1053   1.486   .     S
C1028  C1030   1.398   .     A
C1028  C1057   1.482   .     S
C1029  C1031   1.419   .     A
C1029  C1035   1.404   .     A
C1030  C1036   1.404   .     A
C1030  C1032   1.419   .     A
C1031  C1033   1.420   .     A
C1032  C1034   1.421   .     A
C1032  C329    1.397   1_556 S
C1035  H1039   1.083   .     S
C1036  H1040   1.083   .     S
C1036  C316    1.389   1_556 S
N1041  Zn1052  2.051   .     S
N1041  N1120   1.296   .     S
N1041  N1159   1.377   .     S
N1042  Zn1051  2.051   .     S
O1043  Zn1051  1.992   .     S
O1044  Zn1052  1.992   .     S
O1045  Zn1052  2.002   .     S
O1046  Zn1051  2.002   .     S
O1047  Zn1051  1.998   .     S
O1048  Zn1052  1.998   .     S
O1049  Zn1052  2.003   .     S
O1050  Zn1051  2.003   .     S
C1053  O1055   1.398   .     S
C1053  O1054   1.221   .     D
O1055  H1290   1.014   .     S
C1057  O1058   1.222   .     D
C1057  O1059   1.397   .     S
O1059  H1060   1.013   .     S
C1061  O1063   1.399   .     S
C1061  O1296   1.223   .     S
O1063  H1064   1.014   .     S
C1065  O1067   1.399   .     S
O1066  C1299   1.223   .     S
O1067  H1068   1.014   .     S
N1069  C1071   1.446   .     S
H1070  N1303   1.030   .     S
C1071  H1073   1.112   .     S
C1071  H1072   1.102   .     S
H1074  C1305   1.110   .     S
N1075  C1077   1.447   .     S
N1075  C1254   1.425   .     S
N1075  H1310   1.029   .     S
C1077  H1080   1.111   .     S
C1077  H1078   1.102   .     S
C1077  H1313   1.111   .     S
N1081  H1082   1.026   .     S
N1081  C1083   1.447   .     S
C1083  H1084   1.106   .     S
H1085  C1161   1.111   .     S
H1086  C1161   1.109   .     S
N1087  H1088   1.027   .     S
N1087  C1089   1.448   .     S
N1087  N1120   1.376   .     S
C1089  H1090   1.106   .     S
C1089  H1169   1.109   .     S
C1089  H1170   1.111   .     S
C1093  C1097   1.411   .     S
C1093  O1123   1.302   .     A
C1093  O1121   1.288   .     A
C1094  O1124   1.302   .     A
C1094  C1098   1.411   .     S
C1094  O1122   1.289   .     A
C1095  C1112   1.413   .     A
C1095  C1139   1.488   .     S
C1095  C411    1.390   1_556 S
C1096  C1111   1.412   .     A
C1096  C1143   1.489   .     S
C1097  C1332   1.359   .     S
C1097  N1381   1.425   .     S
C1099  O1125   1.296   .     A
C1099  C1104   1.416   .     S
C1099  O1127   1.297   .     A
C1100  O1128   1.296   .     A
C1100  O1126   1.297   .     A
C1100  C1103   1.416   .     S
C1101  C1111   1.385   .     A
C1101  C1103   1.383   .     A
C1101  H1115   1.083   .     S
C1102  C1112   1.386   .     A
C1102  H1116   1.082   .     S
C1102  C1104   1.383   .     A
C1103  C1105   1.399   .     A
C1104  C1106   1.396   .     A
C1105  C1107   1.400   .     A
C1105  C1131   1.486   .     S
C1106  C1108   1.398   .     A
C1106  C1135   1.482   .     S
C1107  C1109   1.419   .     A
C1107  C1113   1.404   .     A
C1108  C1114   1.404   .     A
C1108  C1110   1.419   .     A
C1109  C1111   1.420   .     A
C1110  C1112   1.421   .     A
C1110  C407    1.397   1_556 S
C1113  H1117   1.083   .     S
C1114  H1118   1.083   .     S
C1114  C394    1.389   1_556 S
N1119  Zn1130  2.051   .     S
N1119  N964    1.296   1_655 S
N1119  N1003   1.377   1_655 S
N1120  Zn1129  2.051   .     S
O1121  Zn1129  1.992   .     S
O1122  Zn1130  1.992   .     S
O1123  Zn1130  2.002   .     S
O1124  Zn1129  2.002   .     S
O1125  Zn1129  1.998   .     S
O1126  Zn1130  1.998   .     S
O1127  Zn1130  2.003   .     S
O1128  Zn1129  2.003   .     S
C1131  O1133   1.398   .     S
C1131  O1132   1.221   .     D
O1133  H1368   1.014   .     S
C1135  O1136   1.222   .     D
C1135  O1137   1.397   .     S
O1137  H1138   1.013   .     S
C1139  O1141   1.399   .     S
C1139  O1374   1.223   .     S
O1141  H1142   1.014   .     S
C1143  O1145   1.399   .     S
O1144  C1377   1.223   .     S
O1145  H1146   1.014   .     S
N1147  C1149   1.446   .     S
H1148  N1381   1.030   .     S
C1149  H1151   1.112   .     S
C1149  H1150   1.102   .     S
H1152  C1383   1.110   .     S
N1153  C1155   1.447   .     S
N1153  C1332   1.425   .     S
N1153  H1388   1.029   .     S
C1155  H1158   1.111   .     S
C1155  H1156   1.102   .     S
C1155  H1391   1.111   .     S
N1159  H1160   1.026   .     S
N1159  C1161   1.447   .     S
C1161  H1162   1.106   .     S
H1163  C1005   1.111   1_655 S
H1164  C1005   1.109   1_655 S
N1165  H1166   1.027   .     S
N1165  C1167   1.448   .     S
N1165  N964    1.376   1_655 S
C1167  H1168   1.106   .     S
C1167  H1013   1.109   1_655 S
C1167  H1014   1.111   1_655 S
C1171  C1175   1.411   .     S
C1171  O1201   1.302   .     A
C1171  O1199   1.288   .     A
C1172  O1202   1.302   .     A
C1172  C1176   1.411   .     S
C1172  O1200   1.289   .     A
C1173  C1190   1.413   .     A
C1173  C1217   1.488   .     S
C1173  C489    1.390   1_556 S
C1174  C1189   1.412   .     A
C1174  C1221   1.489   .     S
C1175  C708    1.359   1_565 S
C1175  N757    1.425   1_565 S
C1177  O1203   1.296   .     A
C1177  C1182   1.416   .     S
C1177  O1205   1.297   .     A
C1178  O1206   1.296   .     A
C1178  O1204   1.297   .     A
C1178  C1181   1.416   .     S
C1179  C1189   1.385   .     A
C1179  C1181   1.383   .     A
C1179  H1193   1.083   .     S
C1180  C1190   1.386   .     A
C1180  H1194   1.082   .     S
C1180  C1182   1.383   .     A
C1181  C1183   1.399   .     A
C1182  C1184   1.396   .     A
C1183  C1185   1.400   .     A
C1183  C1209   1.486   .     S
C1184  C1186   1.398   .     A
C1184  C1213   1.482   .     S
C1185  C1187   1.419   .     A
C1185  C1191   1.404   .     A
C1186  C1192   1.404   .     A
C1186  C1188   1.419   .     A
C1187  C1189   1.420   .     A
C1188  C1190   1.421   .     A
C1188  C485    1.397   1_556 S
C1191  H1195   1.083   .     S
C1192  H1196   1.083   .     S
C1192  C472    1.389   1_556 S
N1197  Zn1208  2.051   .     S
N1197  N1276   1.296   .     S
N1197  N1315   1.377   .     S
N1198  Zn1207  2.051   .     S
N1198  N1353   1.296   1_455 S
N1198  N1399   1.376   1_455 S
O1199  Zn1207  1.992   .     S
O1200  Zn1208  1.992   .     S
O1201  Zn1208  2.002   .     S
O1202  Zn1207  2.002   .     S
O1203  Zn1207  1.998   .     S
O1204  Zn1208  1.998   .     S
O1205  Zn1208  2.003   .     S
O1206  Zn1207  2.003   .     S
C1209  O1211   1.398   .     S
C1209  O1210   1.221   .     D
O1211  H744    1.014   1_565 S
C1213  O1214   1.222   .     D
C1213  O1215   1.397   .     S
O1215  H1216   1.013   .     S
C1217  O1219   1.399   .     S
C1217  O750    1.223   1_565 S
O1219  H1220   1.014   .     S
C1221  O1223   1.399   .     S
O1222  C753    1.223   1_565 S
O1223  H1224   1.014   .     S
N1225  C1227   1.446   .     S
H1226  N757    1.030   1_565 S
C1227  H1229   1.112   .     S
C1227  H1228   1.102   .     S
H1230  C759    1.110   1_565 S
N1231  C1233   1.447   .     S
N1231  C708    1.425   1_565 S
N1231  H764    1.029   1_565 S
C1233  H1236   1.111   .     S
C1233  H1234   1.102   .     S
C1233  H767    1.111   1_565 S
N1237  H1238   1.026   .     S
N1237  C1239   1.447   .     S
N1237  N1353   1.377   1_455 S
C1239  H1240   1.106   .     S
C1239  H1397   1.111   1_455 S
C1239  H1398   1.109   1_455 S
H1241  C1317   1.111   .     S
H1242  C1317   1.109   .     S
N1243  H1244   1.027   .     S
N1243  C1245   1.448   .     S
N1243  N1276   1.376   .     S
C1245  H1246   1.106   .     S
C1245  H1325   1.109   .     S
C1245  H1326   1.111   .     S
H1247  C1401   1.109   1_455 S
H1248  C1401   1.111   1_455 S
C1249  C1253   1.411   .     S
C1249  O1279   1.302   .     A
C1249  O1277   1.288   .     A
C1250  O1280   1.302   .     A
C1250  C1254   1.411   .     S
C1250  O1278   1.289   .     A
C1251  C1268   1.413   .     A
C1251  C1295   1.488   .     S
C1251  C567    1.390   1_556 S
C1252  C1267   1.412   .     A
C1252  C1299   1.489   .     S
C1253  C786    1.359   1_565 S
C1253  N835    1.425   1_565 S
C1255  O1281   1.296   .     A
C1255  C1260   1.416   .     S
C1255  O1283   1.297   .     A
C1256  O1284   1.296   .     A
C1256  O1282   1.297   .     A
C1256  C1259   1.416   .     S
C1257  C1267   1.385   .     A
C1257  C1259   1.383   .     A
C1257  H1271   1.083   .     S
C1258  C1268   1.386   .     A
C1258  H1272   1.082   .     S
C1258  C1260   1.383   .     A
C1259  C1261   1.399   .     A
C1260  C1262   1.396   .     A
C1261  C1263   1.400   .     A
C1261  C1287   1.486   .     S
C1262  C1264   1.398   .     A
C1262  C1291   1.482   .     S
C1263  C1265   1.419   .     A
C1263  C1269   1.404   .     A
C1264  C1270   1.404   .     A
C1264  C1266   1.419   .     A
C1265  C1267   1.420   .     A
C1266  C1268   1.421   .     A
C1266  C563    1.397   1_556 S
C1269  H1273   1.083   .     S
C1270  H1274   1.083   .     S
C1270  C550    1.389   1_556 S
N1275  Zn1286  2.051   .     S
N1275  N1354   1.296   .     S
N1275  N1393   1.377   .     S
N1276  Zn1285  2.051   .     S
O1277  Zn1285  1.992   .     S
O1278  Zn1286  1.992   .     S
O1279  Zn1286  2.002   .     S
O1280  Zn1285  2.002   .     S
O1281  Zn1285  1.998   .     S
O1282  Zn1286  1.998   .     S
O1283  Zn1286  2.003   .     S
O1284  Zn1285  2.003   .     S
C1287  O1289   1.398   .     S
C1287  O1288   1.221   .     D
O1289  H822    1.014   1_565 S
C1291  O1292   1.222   .     D
C1291  O1293   1.397   .     S
O1293  H1294   1.013   .     S
C1295  O1297   1.399   .     S
C1295  O828    1.223   1_565 S
O1297  H1298   1.014   .     S
C1299  O1301   1.399   .     S
O1300  C831    1.223   1_565 S
O1301  H1302   1.014   .     S
N1303  C1305   1.446   .     S
H1304  N835    1.030   1_565 S
C1305  H1307   1.112   .     S
C1305  H1306   1.102   .     S
H1308  C837    1.110   1_565 S
N1309  C1311   1.447   .     S
N1309  C786    1.425   1_565 S
N1309  H842    1.029   1_565 S
C1311  H1314   1.111   .     S
C1311  H1312   1.102   .     S
C1311  H845    1.111   1_565 S
N1315  H1316   1.026   .     S
N1315  C1317   1.447   .     S
C1317  H1318   1.106   .     S
H1319  C1395   1.111   .     S
H1320  C1395   1.109   .     S
N1321  H1322   1.027   .     S
N1321  C1323   1.448   .     S
N1321  N1354   1.376   .     S
C1323  H1324   1.106   .     S
C1323  H1403   1.109   .     S
C1323  H1404   1.111   .     S
C1327  C1331   1.411   .     S
C1327  O1357   1.302   .     A
C1327  O1355   1.288   .     A
C1328  O1358   1.302   .     A
C1328  C1332   1.411   .     S
C1328  O1356   1.289   .     A
C1329  C1346   1.413   .     A
C1329  C1373   1.488   .     S
C1329  C645    1.390   1_556 S
C1330  C1345   1.412   .     A
C1330  C1377   1.489   .     S
C1331  C864    1.359   1_565 S
C1331  N913    1.425   1_565 S
C1333  O1359   1.296   .     A
C1333  C1338   1.416   .     S
C1333  O1361   1.297   .     A
C1334  O1362   1.296   .     A
C1334  O1360   1.297   .     A
C1334  C1337   1.416   .     S
C1335  C1345   1.385   .     A
C1335  C1337   1.383   .     A
C1335  H1349   1.083   .     S
C1336  C1346   1.386   .     A
C1336  H1350   1.082   .     S
C1336  C1338   1.383   .     A
C1337  C1339   1.399   .     A
C1338  C1340   1.396   .     A
C1339  C1341   1.400   .     A
C1339  C1365   1.486   .     S
C1340  C1342   1.398   .     A
C1340  C1369   1.482   .     S
C1341  C1343   1.419   .     A
C1341  C1347   1.404   .     A
C1342  C1348   1.404   .     A
C1342  C1344   1.419   .     A
C1343  C1345   1.420   .     A
C1344  C1346   1.421   .     A
C1344  C641    1.397   1_556 S
C1347  H1351   1.083   .     S
C1348  H1352   1.083   .     S
C1348  C628    1.389   1_556 S
N1353  Zn1364  2.051   .     S
N1353  N1198   1.296   1_655 S
N1353  N1237   1.377   1_655 S
N1354  Zn1363  2.051   .     S
O1355  Zn1363  1.992   .     S
O1356  Zn1364  1.992   .     S
O1357  Zn1364  2.002   .     S
O1358  Zn1363  2.002   .     S
O1359  Zn1363  1.998   .     S
O1360  Zn1364  1.998   .     S
O1361  Zn1364  2.003   .     S
O1362  Zn1363  2.003   .     S
C1365  O1367   1.398   .     S
C1365  O1366   1.221   .     D
O1367  H900    1.014   1_565 S
C1369  O1370   1.222   .     D
C1369  O1371   1.397   .     S
O1371  H1372   1.013   .     S
C1373  O1375   1.399   .     S
C1373  O906    1.223   1_565 S
O1375  H1376   1.014   .     S
C1377  O1379   1.399   .     S
O1378  C909    1.223   1_565 S
O1379  H1380   1.014   .     S
N1381  C1383   1.446   .     S
H1382  N913    1.030   1_565 S
C1383  H1385   1.112   .     S
C1383  H1384   1.102   .     S
H1386  C915    1.110   1_565 S
N1387  C1389   1.447   .     S
N1387  C864    1.425   1_565 S
N1387  H920    1.029   1_565 S
C1389  H1392   1.111   .     S
C1389  H1390   1.102   .     S
C1389  H923    1.111   1_565 S
N1393  H1394   1.026   .     S
N1393  C1395   1.447   .     S
C1395  H1396   1.106   .     S
H1397  C1239   1.111   1_655 S
H1398  C1239   1.109   1_655 S
N1399  H1400   1.027   .     S
N1399  C1401   1.448   .     S
N1399  N1198   1.376   1_655 S
C1401  H1402   1.106   .     S
C1401  H1247   1.109   1_655 S
C1401  H1248   1.111   1_655 S
