data_str_m2_o1_o16_pcu_sym.8
_audit_creation_date              2020-01-03
_audit_creation_method            'Materials Studio'
_symmetry_space_group_name_H-M    'P1'
_symmetry_Int_Tables_number       1
_symmetry_cell_setting            triclinic
loop_
_symmetry_equiv_pos_as_xyz
  x,y,z
_cell_length_a                    28.5082
_cell_length_b                    32.4962
_cell_length_c                    27.1179
_cell_angle_alpha                 90.0697
_cell_angle_beta                  73.2089
_cell_angle_gamma                 89.9950
loop_
_atom_site_label
_atom_site_type_symbol
_atom_site_fract_x
_atom_site_fract_y
_atom_site_fract_z
_atom_site_U_iso_or_equiv
_atom_site_adp_type
_atom_site_occupancy
C1     C     0.16669   0.24599   0.24993   0.00000  Uiso   1.00
C2     C     0.12634   0.16441   0.40637   0.00000  Uiso   1.00
C3     C     0.20891   0.31206   0.25129   0.00000  Uiso   1.00
C4     C     0.14088   0.16455   0.34976   0.00000  Uiso   1.00
C5     C     0.20894   0.02130   0.25119   0.00000  Uiso   1.00
C6     C     0.16680   0.04274   0.24948   0.00000  Uiso   1.00
C7     C     0.12473   0.02130   0.24756   0.00000  Uiso   1.00
C8     C     0.12470   0.31206   0.24770   0.00000  Uiso   1.00
C9     C     0.16676   0.29061   0.24966   0.00000  Uiso   1.00
C10    C     0.30170   0.19692   0.27485   0.00000  Uiso   1.00
C11    C     0.01802   0.19693   0.27478   0.00000  Uiso   1.00
C12    C     0.14797   0.16504   0.48743   0.00000  Uiso   1.00
C13    C     0.03135   0.13603   0.22604   0.00000  Uiso   1.00
C14    C     0.31514   0.13614   0.22579   0.00000  Uiso   1.00
C15    C     0.16672   0.08735   0.24978   0.00000  Uiso   1.00
C16    C     0.19250   0.16484   0.15023   0.00000  Uiso   1.00
C17    C     0.26832   0.14814   0.01267   0.00000  Uiso   1.00
C18    C     0.20660   0.16009   0.09398   0.00000  Uiso   1.00
C19    C     0.07969   0.17971   0.43241   0.00000  Uiso   1.00
C20    C     0.06808   0.18983   0.48417   0.00000  Uiso   1.00
C21    C     0.10242   0.18432   0.01088   0.00000  Uiso   1.00
C22    C     0.11296   0.10595   0.09568   0.00000  Uiso   1.00
C23    C     0.16024   0.15495   0.43443   0.00000  Uiso   1.00
C24    C     0.06071   0.09898   0.09285   0.00000  Uiso   1.00
C25    C     0.04458   0.05444   0.10484   0.00000  Uiso   1.00
C26    C     0.18293   0.15785   0.01463   0.00000  Uiso   1.00
C27    C     0.23188   0.14823   0.48730   0.00000  Uiso   1.00
C28    C     0.24288   0.13634   0.43593   0.00000  Uiso   1.00
C29    C     0.20647   0.13656   0.41117   0.00000  Uiso   1.00
C30    C     0.16990   0.15712   0.06864   0.00000  Uiso   1.00
C31    C     0.25600   0.15621   0.06537   0.00000  Uiso   1.00
Cu32   Cu    0.11978   0.16666   0.25000   0.00000  Uiso   1.00
Cu33   Cu    0.21355   0.16667   0.25000   0.00000  Uiso   1.00
H34    H     0.28479   0.15705   0.08411   0.00000  Uiso   1.00
H35    H     0.30618   0.14188   0.49177   0.00000  Uiso   1.00
H36    H     0.05314   0.18665   0.41196   0.00000  Uiso   1.00
H37    H     0.09318   0.19674   0.04943   0.00000  Uiso   1.00
H38    H     0.03307   0.20389   0.00313   0.00000  Uiso   1.00
H39    H     0.21567   0.12231   0.37365   0.00000  Uiso   1.00
H40    H     0.24181   0.29605   0.25278   0.00000  Uiso   1.00
H41    H     0.11736   0.09231   0.13164   0.00000  Uiso   1.00
H42    H     0.13836   0.08922   0.06256   0.00000  Uiso   1.00
H43    H     0.03492   0.11958   0.12048   0.00000  Uiso   1.00
H44    H     0.05885   0.10674   0.05356   0.00000  Uiso   1.00
H45    H     0.24185   0.03732   0.25261   0.00000  Uiso   1.00
H46    H     0.06951   0.03331   0.07702   0.00000  Uiso   1.00
H47    H     0.00681   0.05045   0.10182   0.00000  Uiso   1.00
H48    H     0.04470   0.04636   0.14460   0.00000  Uiso   1.00
H49    H     0.09187   0.03732   0.24598   0.00000  Uiso   1.00
H50    H     0.09180   0.29604   0.24626   0.00000  Uiso   1.00
H51    H     0.27752   0.22106   0.29492   0.00000  Uiso   1.00
H52    H     0.03121   0.22110   0.29478   0.00000  Uiso   1.00
H53    H     0.05513   0.11131   0.20723   0.00000  Uiso   1.00
H54    H     0.30182   0.11172   0.20628   0.00000  Uiso   1.00
H55    H     0.27914   0.12518   0.41550   0.00000  Uiso   1.00
N56    N     0.04931   0.16666   0.24999   0.00000  Uiso   1.00
N57    N     0.28402   0.16669   0.25000   0.00000  Uiso   1.00
O58    O     0.12708   0.22678   0.25001   0.00000  Uiso   1.00
O59    O     0.20627   0.22679   0.25001   0.00000  Uiso   1.00
O60    O     0.10775   0.16665   0.32549   0.00000  Uiso   1.00
O61    O     0.18694   0.16666   0.32549   0.00000  Uiso   1.00
O62    O     0.12706   0.10654   0.25000   0.00000  Uiso   1.00
O63    O     0.20625   0.10655   0.25000   0.00000  Uiso   1.00
O64    O     0.14640   0.16667   0.17451   0.00000  Uiso   1.00
O65    O     0.22559   0.16668   0.17451   0.00000  Uiso   1.00
O66    O     0.12185   0.14885   0.09634   0.00000  Uiso   1.00
C67    C     0.50003   0.24599   0.24993   0.00000  Uiso   1.00
C68    C     0.45967   0.16441   0.40637   0.00000  Uiso   1.00
C69    C     0.54225   0.31206   0.25129   0.00000  Uiso   1.00
C70    C     0.47422   0.16455   0.34976   0.00000  Uiso   1.00
C71    C     0.54227   0.02130   0.25119   0.00000  Uiso   1.00
C72    C     0.50014   0.04274   0.24948   0.00000  Uiso   1.00
C73    C     0.45807   0.02130   0.24756   0.00000  Uiso   1.00
C74    C     0.45803   0.31206   0.24770   0.00000  Uiso   1.00
C75    C     0.50009   0.29061   0.24966   0.00000  Uiso   1.00
C76    C     0.63503   0.19692   0.27485   0.00000  Uiso   1.00
C77    C     0.35135   0.19693   0.27478   0.00000  Uiso   1.00
C78    C     0.48130   0.16504   0.48743   0.00000  Uiso   1.00
C79    C     0.36468   0.13603   0.22604   0.00000  Uiso   1.00
C80    C     0.64848   0.13614   0.22579   0.00000  Uiso   1.00
C81    C     0.50005   0.08735   0.24978   0.00000  Uiso   1.00
C82    C     0.52583   0.16484   0.15023   0.00000  Uiso   1.00
C83    C     0.60165   0.14814   0.01267   0.00000  Uiso   1.00
C84    C     0.53993   0.16009   0.09398   0.00000  Uiso   1.00
C85    C     0.41302   0.17971   0.43241   0.00000  Uiso   1.00
C86    C     0.40142   0.18983   0.48417   0.00000  Uiso   1.00
C87    C     0.43576   0.18432   0.01088   0.00000  Uiso   1.00
C88    C     0.44629   0.10595   0.09568   0.00000  Uiso   1.00
C89    C     0.49357   0.15495   0.43443   0.00000  Uiso   1.00
C90    C     0.39404   0.09898   0.09285   0.00000  Uiso   1.00
C91    C     0.37791   0.05444   0.10484   0.00000  Uiso   1.00
C92    C     0.51626   0.15785   0.01463   0.00000  Uiso   1.00
C93    C     0.56522   0.14823   0.48730   0.00000  Uiso   1.00
C94    C     0.57622   0.13634   0.43593   0.00000  Uiso   1.00
C95    C     0.53980   0.13656   0.41117   0.00000  Uiso   1.00
C96    C     0.50324   0.15712   0.06864   0.00000  Uiso   1.00
C97    C     0.58933   0.15621   0.06537   0.00000  Uiso   1.00
Cu98   Cu    0.45311   0.16666   0.25000   0.00000  Uiso   1.00
Cu99   Cu    0.54689   0.16667   0.25000   0.00000  Uiso   1.00
H100   H     0.61812   0.15705   0.08411   0.00000  Uiso   1.00
H101   H     0.63952   0.14188   0.49177   0.00000  Uiso   1.00
H102   H     0.38648   0.18665   0.41196   0.00000  Uiso   1.00
H103   H     0.42652   0.19674   0.04943   0.00000  Uiso   1.00
H104   H     0.36640   0.20389   0.00313   0.00000  Uiso   1.00
H105   H     0.54901   0.12231   0.37365   0.00000  Uiso   1.00
H106   H     0.57514   0.29605   0.25278   0.00000  Uiso   1.00
H107   H     0.45069   0.09231   0.13164   0.00000  Uiso   1.00
H108   H     0.47170   0.08922   0.06256   0.00000  Uiso   1.00
H109   H     0.36825   0.11958   0.12048   0.00000  Uiso   1.00
H110   H     0.39219   0.10674   0.05356   0.00000  Uiso   1.00
H111   H     0.57518   0.03732   0.25261   0.00000  Uiso   1.00
H112   H     0.40284   0.03331   0.07702   0.00000  Uiso   1.00
H113   H     0.34014   0.05045   0.10182   0.00000  Uiso   1.00
H114   H     0.37803   0.04636   0.14460   0.00000  Uiso   1.00
H115   H     0.42520   0.03732   0.24598   0.00000  Uiso   1.00
H116   H     0.42513   0.29604   0.24626   0.00000  Uiso   1.00
H117   H     0.61085   0.22106   0.29492   0.00000  Uiso   1.00
H118   H     0.36454   0.22110   0.29478   0.00000  Uiso   1.00
H119   H     0.38846   0.11131   0.20723   0.00000  Uiso   1.00
H120   H     0.63516   0.11172   0.20628   0.00000  Uiso   1.00
H121   H     0.61248   0.12518   0.41550   0.00000  Uiso   1.00
N122   N     0.38265   0.16666   0.24999   0.00000  Uiso   1.00
N123   N     0.61735   0.16669   0.25000   0.00000  Uiso   1.00
O124   O     0.46042   0.22678   0.25001   0.00000  Uiso   1.00
O125   O     0.53961   0.22679   0.25001   0.00000  Uiso   1.00
O126   O     0.44108   0.16665   0.32549   0.00000  Uiso   1.00
O127   O     0.52027   0.16666   0.32549   0.00000  Uiso   1.00
O128   O     0.46039   0.10654   0.25000   0.00000  Uiso   1.00
O129   O     0.53958   0.10655   0.25000   0.00000  Uiso   1.00
O130   O     0.47973   0.16667   0.17451   0.00000  Uiso   1.00
O131   O     0.55892   0.16668   0.17451   0.00000  Uiso   1.00
O132   O     0.45518   0.14885   0.09634   0.00000  Uiso   1.00
C133   C     0.83336   0.24599   0.24993   0.00000  Uiso   1.00
C134   C     0.79301   0.16441   0.40637   0.00000  Uiso   1.00
C135   C     0.87558   0.31206   0.25129   0.00000  Uiso   1.00
C136   C     0.80755   0.16455   0.34976   0.00000  Uiso   1.00
C137   C     0.87561   0.02130   0.25119   0.00000  Uiso   1.00
C138   C     0.83347   0.04274   0.24948   0.00000  Uiso   1.00
C139   C     0.79140   0.02130   0.24756   0.00000  Uiso   1.00
C140   C     0.79136   0.31206   0.24770   0.00000  Uiso   1.00
C141   C     0.83343   0.29061   0.24966   0.00000  Uiso   1.00
C142   C     0.96837   0.19692   0.27485   0.00000  Uiso   1.00
C143   C     0.68468   0.19693   0.27478   0.00000  Uiso   1.00
C144   C     0.81463   0.16504   0.48743   0.00000  Uiso   1.00
C145   C     0.69802   0.13603   0.22604   0.00000  Uiso   1.00
C146   C     0.98181   0.13614   0.22579   0.00000  Uiso   1.00
C147   C     0.83338   0.08735   0.24978   0.00000  Uiso   1.00
C148   C     0.85917   0.16484   0.15023   0.00000  Uiso   1.00
C149   C     0.93499   0.14814   0.01267   0.00000  Uiso   1.00
C150   C     0.87326   0.16009   0.09398   0.00000  Uiso   1.00
C151   C     0.74635   0.17971   0.43241   0.00000  Uiso   1.00
C152   C     0.73475   0.18983   0.48417   0.00000  Uiso   1.00
C153   C     0.76909   0.18432   0.01088   0.00000  Uiso   1.00
C154   C     0.77962   0.10595   0.09568   0.00000  Uiso   1.00
C155   C     0.82691   0.15495   0.43443   0.00000  Uiso   1.00
C156   C     0.72737   0.09898   0.09285   0.00000  Uiso   1.00
C157   C     0.71125   0.05444   0.10484   0.00000  Uiso   1.00
C158   C     0.84959   0.15785   0.01463   0.00000  Uiso   1.00
C159   C     0.89855   0.14823   0.48730   0.00000  Uiso   1.00
C160   C     0.90955   0.13634   0.43593   0.00000  Uiso   1.00
C161   C     0.87313   0.13656   0.41117   0.00000  Uiso   1.00
C162   C     0.83657   0.15712   0.06864   0.00000  Uiso   1.00
C163   C     0.92266   0.15621   0.06537   0.00000  Uiso   1.00
Cu164  Cu    0.78645   0.16666   0.25000   0.00000  Uiso   1.00
Cu165  Cu    0.88022   0.16667   0.25000   0.00000  Uiso   1.00
H166   H     0.95145   0.15705   0.08411   0.00000  Uiso   1.00
H167   H     0.97285   0.14188   0.49177   0.00000  Uiso   1.00
H168   H     0.71981   0.18665   0.41196   0.00000  Uiso   1.00
H169   H     0.75985   0.19674   0.04943   0.00000  Uiso   1.00
H170   H     0.69973   0.20389   0.00313   0.00000  Uiso   1.00
H171   H     0.88234   0.12231   0.37365   0.00000  Uiso   1.00
H172   H     0.90847   0.29605   0.25278   0.00000  Uiso   1.00
H173   H     0.78402   0.09231   0.13164   0.00000  Uiso   1.00
H174   H     0.80503   0.08922   0.06256   0.00000  Uiso   1.00
H175   H     0.70158   0.11958   0.12048   0.00000  Uiso   1.00
H176   H     0.72552   0.10674   0.05356   0.00000  Uiso   1.00
H177   H     0.90852   0.03732   0.25261   0.00000  Uiso   1.00
H178   H     0.73618   0.03331   0.07702   0.00000  Uiso   1.00
H179   H     0.67348   0.05045   0.10182   0.00000  Uiso   1.00
H180   H     0.71137   0.04636   0.14460   0.00000  Uiso   1.00
H181   H     0.75854   0.03732   0.24598   0.00000  Uiso   1.00
H182   H     0.75846   0.29604   0.24626   0.00000  Uiso   1.00
H183   H     0.94418   0.22106   0.29492   0.00000  Uiso   1.00
H184   H     0.69788   0.22110   0.29478   0.00000  Uiso   1.00
H185   H     0.72179   0.11131   0.20723   0.00000  Uiso   1.00
H186   H     0.96849   0.11172   0.20628   0.00000  Uiso   1.00
H187   H     0.94581   0.12518   0.41550   0.00000  Uiso   1.00
N188   N     0.71598   0.16666   0.24999   0.00000  Uiso   1.00
N189   N     0.95069   0.16669   0.25000   0.00000  Uiso   1.00
O190   O     0.79375   0.22678   0.25001   0.00000  Uiso   1.00
O191   O     0.87294   0.22679   0.25001   0.00000  Uiso   1.00
O192   O     0.77441   0.16665   0.32549   0.00000  Uiso   1.00
O193   O     0.85360   0.16666   0.32549   0.00000  Uiso   1.00
O194   O     0.79373   0.10654   0.25000   0.00000  Uiso   1.00
O195   O     0.87292   0.10655   0.25000   0.00000  Uiso   1.00
O196   O     0.81306   0.16667   0.17451   0.00000  Uiso   1.00
O197   O     0.89225   0.16668   0.17451   0.00000  Uiso   1.00
O198   O     0.78852   0.14885   0.09634   0.00000  Uiso   1.00
C199   C     0.16669   0.57933   0.24993   0.00000  Uiso   1.00
C200   C     0.12634   0.49775   0.40637   0.00000  Uiso   1.00
C201   C     0.20891   0.64540   0.25129   0.00000  Uiso   1.00
C202   C     0.14088   0.49788   0.34976   0.00000  Uiso   1.00
C203   C     0.20894   0.35463   0.25119   0.00000  Uiso   1.00
C204   C     0.16680   0.37608   0.24948   0.00000  Uiso   1.00
C205   C     0.12473   0.35463   0.24756   0.00000  Uiso   1.00
C206   C     0.12470   0.64539   0.24770   0.00000  Uiso   1.00
C207   C     0.16676   0.62394   0.24966   0.00000  Uiso   1.00
C208   C     0.30170   0.53025   0.27485   0.00000  Uiso   1.00
C209   C     0.01802   0.53027   0.27478   0.00000  Uiso   1.00
C210   C     0.14797   0.49837   0.48743   0.00000  Uiso   1.00
C211   C     0.03135   0.46936   0.22604   0.00000  Uiso   1.00
C212   C     0.31514   0.46947   0.22579   0.00000  Uiso   1.00
C213   C     0.16672   0.42068   0.24978   0.00000  Uiso   1.00
C214   C     0.19250   0.49817   0.15023   0.00000  Uiso   1.00
C215   C     0.26832   0.48147   0.01267   0.00000  Uiso   1.00
C216   C     0.20660   0.49342   0.09398   0.00000  Uiso   1.00
C217   C     0.07969   0.51304   0.43241   0.00000  Uiso   1.00
C218   C     0.06808   0.52317   0.48417   0.00000  Uiso   1.00
C219   C     0.10242   0.51765   0.01088   0.00000  Uiso   1.00
C220   C     0.11296   0.43928   0.09568   0.00000  Uiso   1.00
C221   C     0.16024   0.48828   0.43443   0.00000  Uiso   1.00
C222   C     0.06071   0.43231   0.09285   0.00000  Uiso   1.00
C223   C     0.04458   0.38777   0.10484   0.00000  Uiso   1.00
C224   C     0.18293   0.49118   0.01463   0.00000  Uiso   1.00
C225   C     0.23188   0.48156   0.48730   0.00000  Uiso   1.00
C226   C     0.24288   0.46967   0.43593   0.00000  Uiso   1.00
C227   C     0.20647   0.46989   0.41117   0.00000  Uiso   1.00
C228   C     0.16990   0.49045   0.06864   0.00000  Uiso   1.00
C229   C     0.25600   0.48954   0.06537   0.00000  Uiso   1.00
Cu230  Cu    0.11978   0.49999   0.25000   0.00000  Uiso   1.00
Cu231  Cu    0.21355   0.50001   0.25000   0.00000  Uiso   1.00
H232   H     0.28479   0.49039   0.08411   0.00000  Uiso   1.00
H233   H     0.30618   0.47521   0.49177   0.00000  Uiso   1.00
H234   H     0.05314   0.51998   0.41196   0.00000  Uiso   1.00
H235   H     0.09318   0.53007   0.04943   0.00000  Uiso   1.00
H236   H     0.03307   0.53722   0.00313   0.00000  Uiso   1.00
H237   H     0.21567   0.45565   0.37365   0.00000  Uiso   1.00
H238   H     0.24181   0.62939   0.25278   0.00000  Uiso   1.00
H239   H     0.11736   0.42564   0.13164   0.00000  Uiso   1.00
H240   H     0.13836   0.42255   0.06256   0.00000  Uiso   1.00
H241   H     0.03492   0.45291   0.12048   0.00000  Uiso   1.00
H242   H     0.05885   0.44007   0.05356   0.00000  Uiso   1.00
H243   H     0.24185   0.37065   0.25261   0.00000  Uiso   1.00
H244   H     0.06951   0.36664   0.07702   0.00000  Uiso   1.00
H245   H     0.00681   0.38378   0.10182   0.00000  Uiso   1.00
H246   H     0.04470   0.37969   0.14460   0.00000  Uiso   1.00
H247   H     0.09187   0.37065   0.24598   0.00000  Uiso   1.00
H248   H     0.09180   0.62937   0.24626   0.00000  Uiso   1.00
H249   H     0.27752   0.55440   0.29492   0.00000  Uiso   1.00
H250   H     0.03121   0.55444   0.29478   0.00000  Uiso   1.00
H251   H     0.05513   0.44464   0.20723   0.00000  Uiso   1.00
H252   H     0.30182   0.44505   0.20628   0.00000  Uiso   1.00
H253   H     0.27914   0.45852   0.41550   0.00000  Uiso   1.00
N254   N     0.04931   0.49999   0.24999   0.00000  Uiso   1.00
N255   N     0.28402   0.50002   0.25000   0.00000  Uiso   1.00
O256   O     0.12708   0.56011   0.25001   0.00000  Uiso   1.00
O257   O     0.20627   0.56012   0.25001   0.00000  Uiso   1.00
O258   O     0.10775   0.49998   0.32549   0.00000  Uiso   1.00
O259   O     0.18694   0.49999   0.32549   0.00000  Uiso   1.00
O260   O     0.12706   0.43988   0.25000   0.00000  Uiso   1.00
O261   O     0.20625   0.43989   0.25000   0.00000  Uiso   1.00
O262   O     0.14640   0.50001   0.17451   0.00000  Uiso   1.00
O263   O     0.22559   0.50002   0.17451   0.00000  Uiso   1.00
O264   O     0.12185   0.48218   0.09634   0.00000  Uiso   1.00
C265   C     0.50003   0.57933   0.24993   0.00000  Uiso   1.00
C266   C     0.45967   0.49775   0.40637   0.00000  Uiso   1.00
C267   C     0.54225   0.64540   0.25129   0.00000  Uiso   1.00
C268   C     0.47422   0.49788   0.34976   0.00000  Uiso   1.00
C269   C     0.54227   0.35463   0.25119   0.00000  Uiso   1.00
C270   C     0.50014   0.37608   0.24948   0.00000  Uiso   1.00
C271   C     0.45807   0.35463   0.24756   0.00000  Uiso   1.00
C272   C     0.45803   0.64539   0.24770   0.00000  Uiso   1.00
C273   C     0.50009   0.62394   0.24966   0.00000  Uiso   1.00
C274   C     0.63503   0.53025   0.27485   0.00000  Uiso   1.00
C275   C     0.35135   0.53027   0.27478   0.00000  Uiso   1.00
C276   C     0.48130   0.49837   0.48743   0.00000  Uiso   1.00
C277   C     0.36468   0.46936   0.22604   0.00000  Uiso   1.00
C278   C     0.64848   0.46947   0.22579   0.00000  Uiso   1.00
C279   C     0.50005   0.42068   0.24978   0.00000  Uiso   1.00
C280   C     0.52583   0.49817   0.15023   0.00000  Uiso   1.00
C281   C     0.60165   0.48147   0.01267   0.00000  Uiso   1.00
C282   C     0.53993   0.49342   0.09398   0.00000  Uiso   1.00
C283   C     0.41302   0.51304   0.43241   0.00000  Uiso   1.00
C284   C     0.40142   0.52317   0.48417   0.00000  Uiso   1.00
C285   C     0.43576   0.51765   0.01088   0.00000  Uiso   1.00
C286   C     0.44629   0.43928   0.09568   0.00000  Uiso   1.00
C287   C     0.49357   0.48828   0.43443   0.00000  Uiso   1.00
C288   C     0.39404   0.43231   0.09285   0.00000  Uiso   1.00
C289   C     0.37791   0.38777   0.10484   0.00000  Uiso   1.00
C290   C     0.51626   0.49118   0.01463   0.00000  Uiso   1.00
C291   C     0.56522   0.48156   0.48730   0.00000  Uiso   1.00
C292   C     0.57622   0.46967   0.43593   0.00000  Uiso   1.00
C293   C     0.53980   0.46989   0.41117   0.00000  Uiso   1.00
C294   C     0.50324   0.49045   0.06864   0.00000  Uiso   1.00
C295   C     0.58933   0.48954   0.06537   0.00000  Uiso   1.00
Cu296  Cu    0.45311   0.49999   0.25000   0.00000  Uiso   1.00
Cu297  Cu    0.54689   0.50001   0.25000   0.00000  Uiso   1.00
H298   H     0.61812   0.49039   0.08411   0.00000  Uiso   1.00
H299   H     0.63952   0.47521   0.49177   0.00000  Uiso   1.00
H300   H     0.38648   0.51998   0.41196   0.00000  Uiso   1.00
H301   H     0.42652   0.53007   0.04943   0.00000  Uiso   1.00
H302   H     0.36640   0.53722   0.00313   0.00000  Uiso   1.00
H303   H     0.54901   0.45565   0.37365   0.00000  Uiso   1.00
H304   H     0.57514   0.62939   0.25278   0.00000  Uiso   1.00
H305   H     0.45069   0.42564   0.13164   0.00000  Uiso   1.00
H306   H     0.47170   0.42255   0.06256   0.00000  Uiso   1.00
H307   H     0.36825   0.45291   0.12048   0.00000  Uiso   1.00
H308   H     0.39219   0.44007   0.05356   0.00000  Uiso   1.00
H309   H     0.57518   0.37065   0.25261   0.00000  Uiso   1.00
H310   H     0.40284   0.36664   0.07702   0.00000  Uiso   1.00
H311   H     0.34014   0.38378   0.10182   0.00000  Uiso   1.00
H312   H     0.37803   0.37969   0.14460   0.00000  Uiso   1.00
H313   H     0.42520   0.37065   0.24598   0.00000  Uiso   1.00
H314   H     0.42513   0.62937   0.24626   0.00000  Uiso   1.00
H315   H     0.61085   0.55440   0.29492   0.00000  Uiso   1.00
H316   H     0.36454   0.55444   0.29478   0.00000  Uiso   1.00
H317   H     0.38846   0.44464   0.20723   0.00000  Uiso   1.00
H318   H     0.63516   0.44505   0.20628   0.00000  Uiso   1.00
H319   H     0.61248   0.45852   0.41550   0.00000  Uiso   1.00
N320   N     0.38265   0.49999   0.24999   0.00000  Uiso   1.00
N321   N     0.61735   0.50002   0.25000   0.00000  Uiso   1.00
O322   O     0.46042   0.56011   0.25001   0.00000  Uiso   1.00
O323   O     0.53961   0.56012   0.25001   0.00000  Uiso   1.00
O324   O     0.44108   0.49998   0.32549   0.00000  Uiso   1.00
O325   O     0.52027   0.49999   0.32549   0.00000  Uiso   1.00
O326   O     0.46039   0.43988   0.25000   0.00000  Uiso   1.00
O327   O     0.53958   0.43989   0.25000   0.00000  Uiso   1.00
O328   O     0.47973   0.50001   0.17451   0.00000  Uiso   1.00
O329   O     0.55892   0.50002   0.17451   0.00000  Uiso   1.00
O330   O     0.45518   0.48218   0.09634   0.00000  Uiso   1.00
C331   C     0.83336   0.57933   0.24993   0.00000  Uiso   1.00
C332   C     0.79301   0.49775   0.40637   0.00000  Uiso   1.00
C333   C     0.87558   0.64540   0.25129   0.00000  Uiso   1.00
C334   C     0.80755   0.49788   0.34976   0.00000  Uiso   1.00
C335   C     0.87561   0.35463   0.25119   0.00000  Uiso   1.00
C336   C     0.83347   0.37608   0.24948   0.00000  Uiso   1.00
C337   C     0.79140   0.35463   0.24756   0.00000  Uiso   1.00
C338   C     0.79136   0.64539   0.24770   0.00000  Uiso   1.00
C339   C     0.83343   0.62394   0.24966   0.00000  Uiso   1.00
C340   C     0.96837   0.53025   0.27485   0.00000  Uiso   1.00
C341   C     0.68468   0.53027   0.27478   0.00000  Uiso   1.00
C342   C     0.81463   0.49837   0.48743   0.00000  Uiso   1.00
C343   C     0.69802   0.46936   0.22604   0.00000  Uiso   1.00
C344   C     0.98181   0.46947   0.22579   0.00000  Uiso   1.00
C345   C     0.83338   0.42068   0.24978   0.00000  Uiso   1.00
C346   C     0.85917   0.49817   0.15023   0.00000  Uiso   1.00
C347   C     0.93499   0.48147   0.01267   0.00000  Uiso   1.00
C348   C     0.87326   0.49342   0.09398   0.00000  Uiso   1.00
C349   C     0.74635   0.51304   0.43241   0.00000  Uiso   1.00
C350   C     0.73475   0.52317   0.48417   0.00000  Uiso   1.00
C351   C     0.76909   0.51765   0.01088   0.00000  Uiso   1.00
C352   C     0.77962   0.43928   0.09568   0.00000  Uiso   1.00
C353   C     0.82691   0.48828   0.43443   0.00000  Uiso   1.00
C354   C     0.72737   0.43231   0.09285   0.00000  Uiso   1.00
C355   C     0.71125   0.38777   0.10484   0.00000  Uiso   1.00
C356   C     0.84959   0.49118   0.01463   0.00000  Uiso   1.00
C357   C     0.89855   0.48156   0.48730   0.00000  Uiso   1.00
C358   C     0.90955   0.46967   0.43593   0.00000  Uiso   1.00
C359   C     0.87313   0.46989   0.41117   0.00000  Uiso   1.00
C360   C     0.83657   0.49045   0.06864   0.00000  Uiso   1.00
C361   C     0.92266   0.48954   0.06537   0.00000  Uiso   1.00
Cu362  Cu    0.78645   0.49999   0.25000   0.00000  Uiso   1.00
Cu363  Cu    0.88022   0.50001   0.25000   0.00000  Uiso   1.00
H364   H     0.95145   0.49039   0.08411   0.00000  Uiso   1.00
H365   H     0.97285   0.47521   0.49177   0.00000  Uiso   1.00
H366   H     0.71981   0.51998   0.41196   0.00000  Uiso   1.00
H367   H     0.75985   0.53007   0.04943   0.00000  Uiso   1.00
H368   H     0.69973   0.53722   0.00313   0.00000  Uiso   1.00
H369   H     0.88234   0.45565   0.37365   0.00000  Uiso   1.00
H370   H     0.90847   0.62939   0.25278   0.00000  Uiso   1.00
H371   H     0.78402   0.42564   0.13164   0.00000  Uiso   1.00
H372   H     0.80503   0.42255   0.06256   0.00000  Uiso   1.00
H373   H     0.70158   0.45291   0.12048   0.00000  Uiso   1.00
H374   H     0.72552   0.44007   0.05356   0.00000  Uiso   1.00
H375   H     0.90852   0.37065   0.25261   0.00000  Uiso   1.00
H376   H     0.73618   0.36664   0.07702   0.00000  Uiso   1.00
H377   H     0.67348   0.38378   0.10182   0.00000  Uiso   1.00
H378   H     0.71137   0.37969   0.14460   0.00000  Uiso   1.00
H379   H     0.75854   0.37065   0.24598   0.00000  Uiso   1.00
H380   H     0.75846   0.62937   0.24626   0.00000  Uiso   1.00
H381   H     0.94418   0.55440   0.29492   0.00000  Uiso   1.00
H382   H     0.69788   0.55444   0.29478   0.00000  Uiso   1.00
H383   H     0.72179   0.44464   0.20723   0.00000  Uiso   1.00
H384   H     0.96849   0.44505   0.20628   0.00000  Uiso   1.00
H385   H     0.94581   0.45852   0.41550   0.00000  Uiso   1.00
N386   N     0.71598   0.49999   0.24999   0.00000  Uiso   1.00
N387   N     0.95069   0.50002   0.25000   0.00000  Uiso   1.00
O388   O     0.79375   0.56011   0.25001   0.00000  Uiso   1.00
O389   O     0.87294   0.56012   0.25001   0.00000  Uiso   1.00
O390   O     0.77441   0.49998   0.32549   0.00000  Uiso   1.00
O391   O     0.85360   0.49999   0.32549   0.00000  Uiso   1.00
O392   O     0.79373   0.43988   0.25000   0.00000  Uiso   1.00
O393   O     0.87292   0.43989   0.25000   0.00000  Uiso   1.00
O394   O     0.81306   0.50001   0.17451   0.00000  Uiso   1.00
O395   O     0.89225   0.50002   0.17451   0.00000  Uiso   1.00
O396   O     0.78852   0.48218   0.09634   0.00000  Uiso   1.00
C397   C     0.16669   0.91266   0.24993   0.00000  Uiso   1.00
C398   C     0.12634   0.83108   0.40637   0.00000  Uiso   1.00
C399   C     0.20891   0.97873   0.25129   0.00000  Uiso   1.00
C400   C     0.14088   0.83122   0.34976   0.00000  Uiso   1.00
C401   C     0.20894   0.68797   0.25119   0.00000  Uiso   1.00
C402   C     0.16680   0.70941   0.24948   0.00000  Uiso   1.00
C403   C     0.12473   0.68796   0.24756   0.00000  Uiso   1.00
C404   C     0.12470   0.97872   0.24770   0.00000  Uiso   1.00
C405   C     0.16676   0.95727   0.24966   0.00000  Uiso   1.00
C406   C     0.30170   0.86358   0.27485   0.00000  Uiso   1.00
C407   C     0.01802   0.86360   0.27478   0.00000  Uiso   1.00
C408   C     0.14797   0.83170   0.48743   0.00000  Uiso   1.00
C409   C     0.03135   0.80269   0.22604   0.00000  Uiso   1.00
C410   C     0.31514   0.80281   0.22579   0.00000  Uiso   1.00
C411   C     0.16672   0.75401   0.24978   0.00000  Uiso   1.00
C412   C     0.19250   0.83150   0.15023   0.00000  Uiso   1.00
C413   C     0.26832   0.81480   0.01267   0.00000  Uiso   1.00
C414   C     0.20660   0.82676   0.09398   0.00000  Uiso   1.00
C415   C     0.07969   0.84637   0.43241   0.00000  Uiso   1.00
C416   C     0.06808   0.85650   0.48417   0.00000  Uiso   1.00
C417   C     0.10242   0.85099   0.01088   0.00000  Uiso   1.00
C418   C     0.11296   0.77261   0.09568   0.00000  Uiso   1.00
C419   C     0.16024   0.82161   0.43443   0.00000  Uiso   1.00
C420   C     0.06071   0.76565   0.09285   0.00000  Uiso   1.00
C421   C     0.04458   0.72111   0.10484   0.00000  Uiso   1.00
C422   C     0.18293   0.82452   0.01463   0.00000  Uiso   1.00
C423   C     0.23188   0.81490   0.48730   0.00000  Uiso   1.00
C424   C     0.24288   0.80300   0.43593   0.00000  Uiso   1.00
C425   C     0.20647   0.80323   0.41117   0.00000  Uiso   1.00
C426   C     0.16990   0.82379   0.06864   0.00000  Uiso   1.00
C427   C     0.25600   0.82288   0.06537   0.00000  Uiso   1.00
Cu428  Cu    0.11978   0.83333   0.25000   0.00000  Uiso   1.00
Cu429  Cu    0.21355   0.83334   0.25000   0.00000  Uiso   1.00
H430   H     0.28479   0.82372   0.08411   0.00000  Uiso   1.00
H431   H     0.30618   0.80854   0.49177   0.00000  Uiso   1.00
H432   H     0.05314   0.85332   0.41196   0.00000  Uiso   1.00
H433   H     0.09318   0.86341   0.04943   0.00000  Uiso   1.00
H434   H     0.03307   0.87056   0.00313   0.00000  Uiso   1.00
H435   H     0.21567   0.78898   0.37365   0.00000  Uiso   1.00
H436   H     0.24181   0.96272   0.25278   0.00000  Uiso   1.00
H437   H     0.11736   0.75898   0.13164   0.00000  Uiso   1.00
H438   H     0.13836   0.75588   0.06256   0.00000  Uiso   1.00
H439   H     0.03492   0.78624   0.12048   0.00000  Uiso   1.00
H440   H     0.05885   0.77341   0.05356   0.00000  Uiso   1.00
H441   H     0.24185   0.70398   0.25261   0.00000  Uiso   1.00
H442   H     0.06951   0.69998   0.07702   0.00000  Uiso   1.00
H443   H     0.00681   0.71712   0.10182   0.00000  Uiso   1.00
H444   H     0.04470   0.71303   0.14460   0.00000  Uiso   1.00
H445   H     0.09187   0.70398   0.24598   0.00000  Uiso   1.00
H446   H     0.09180   0.96270   0.24626   0.00000  Uiso   1.00
H447   H     0.27752   0.88773   0.29492   0.00000  Uiso   1.00
H448   H     0.03121   0.88777   0.29478   0.00000  Uiso   1.00
H449   H     0.05513   0.77797   0.20723   0.00000  Uiso   1.00
H450   H     0.30182   0.77838   0.20628   0.00000  Uiso   1.00
H451   H     0.27914   0.79185   0.41550   0.00000  Uiso   1.00
N452   N     0.04931   0.83332   0.24999   0.00000  Uiso   1.00
N453   N     0.28402   0.83335   0.25000   0.00000  Uiso   1.00
O454   O     0.12708   0.89345   0.25001   0.00000  Uiso   1.00
O455   O     0.20627   0.89346   0.25001   0.00000  Uiso   1.00
O456   O     0.10775   0.83332   0.32549   0.00000  Uiso   1.00
O457   O     0.18694   0.83333   0.32549   0.00000  Uiso   1.00
O458   O     0.12706   0.77321   0.25000   0.00000  Uiso   1.00
O459   O     0.20625   0.77322   0.25000   0.00000  Uiso   1.00
O460   O     0.14640   0.83334   0.17451   0.00000  Uiso   1.00
O461   O     0.22559   0.83335   0.17451   0.00000  Uiso   1.00
O462   O     0.12185   0.81551   0.09634   0.00000  Uiso   1.00
C463   C     0.50003   0.91266   0.24993   0.00000  Uiso   1.00
C464   C     0.45967   0.83108   0.40637   0.00000  Uiso   1.00
C465   C     0.54225   0.97873   0.25129   0.00000  Uiso   1.00
C466   C     0.47422   0.83122   0.34976   0.00000  Uiso   1.00
C467   C     0.54227   0.68797   0.25119   0.00000  Uiso   1.00
C468   C     0.50014   0.70941   0.24948   0.00000  Uiso   1.00
C469   C     0.45807   0.68796   0.24756   0.00000  Uiso   1.00
C470   C     0.45803   0.97872   0.24770   0.00000  Uiso   1.00
C471   C     0.50009   0.95727   0.24966   0.00000  Uiso   1.00
C472   C     0.63503   0.86358   0.27485   0.00000  Uiso   1.00
C473   C     0.35135   0.86360   0.27478   0.00000  Uiso   1.00
C474   C     0.48130   0.83170   0.48743   0.00000  Uiso   1.00
C475   C     0.36468   0.80269   0.22604   0.00000  Uiso   1.00
C476   C     0.64848   0.80281   0.22579   0.00000  Uiso   1.00
C477   C     0.50005   0.75401   0.24978   0.00000  Uiso   1.00
C478   C     0.52583   0.83150   0.15023   0.00000  Uiso   1.00
C479   C     0.60165   0.81480   0.01267   0.00000  Uiso   1.00
C480   C     0.53993   0.82676   0.09398   0.00000  Uiso   1.00
C481   C     0.41302   0.84637   0.43241   0.00000  Uiso   1.00
C482   C     0.40142   0.85650   0.48417   0.00000  Uiso   1.00
C483   C     0.43576   0.85099   0.01088   0.00000  Uiso   1.00
C484   C     0.44629   0.77261   0.09568   0.00000  Uiso   1.00
C485   C     0.49357   0.82161   0.43443   0.00000  Uiso   1.00
C486   C     0.39404   0.76565   0.09285   0.00000  Uiso   1.00
C487   C     0.37791   0.72111   0.10484   0.00000  Uiso   1.00
C488   C     0.51626   0.82452   0.01463   0.00000  Uiso   1.00
C489   C     0.56522   0.81490   0.48730   0.00000  Uiso   1.00
C490   C     0.57622   0.80300   0.43593   0.00000  Uiso   1.00
C491   C     0.53980   0.80323   0.41117   0.00000  Uiso   1.00
C492   C     0.50324   0.82379   0.06864   0.00000  Uiso   1.00
C493   C     0.58933   0.82288   0.06537   0.00000  Uiso   1.00
Cu494  Cu    0.45311   0.83333   0.25000   0.00000  Uiso   1.00
Cu495  Cu    0.54689   0.83334   0.25000   0.00000  Uiso   1.00
H496   H     0.61812   0.82372   0.08411   0.00000  Uiso   1.00
H497   H     0.63952   0.80854   0.49177   0.00000  Uiso   1.00
H498   H     0.38648   0.85332   0.41196   0.00000  Uiso   1.00
H499   H     0.42652   0.86341   0.04943   0.00000  Uiso   1.00
H500   H     0.36640   0.87056   0.00313   0.00000  Uiso   1.00
H501   H     0.54901   0.78898   0.37365   0.00000  Uiso   1.00
H502   H     0.57514   0.96272   0.25278   0.00000  Uiso   1.00
H503   H     0.45069   0.75898   0.13164   0.00000  Uiso   1.00
H504   H     0.47170   0.75588   0.06256   0.00000  Uiso   1.00
H505   H     0.36825   0.78624   0.12048   0.00000  Uiso   1.00
H506   H     0.39219   0.77341   0.05356   0.00000  Uiso   1.00
H507   H     0.57518   0.70398   0.25261   0.00000  Uiso   1.00
H508   H     0.40284   0.69998   0.07702   0.00000  Uiso   1.00
H509   H     0.34014   0.71712   0.10182   0.00000  Uiso   1.00
H510   H     0.37803   0.71303   0.14460   0.00000  Uiso   1.00
H511   H     0.42520   0.70398   0.24598   0.00000  Uiso   1.00
H512   H     0.42513   0.96270   0.24626   0.00000  Uiso   1.00
H513   H     0.61085   0.88773   0.29492   0.00000  Uiso   1.00
H514   H     0.36454   0.88777   0.29478   0.00000  Uiso   1.00
H515   H     0.38846   0.77797   0.20723   0.00000  Uiso   1.00
H516   H     0.63516   0.77838   0.20628   0.00000  Uiso   1.00
H517   H     0.61248   0.79185   0.41550   0.00000  Uiso   1.00
N518   N     0.38265   0.83332   0.24999   0.00000  Uiso   1.00
N519   N     0.61735   0.83335   0.25000   0.00000  Uiso   1.00
O520   O     0.46042   0.89345   0.25001   0.00000  Uiso   1.00
O521   O     0.53961   0.89346   0.25001   0.00000  Uiso   1.00
O522   O     0.44108   0.83332   0.32549   0.00000  Uiso   1.00
O523   O     0.52027   0.83333   0.32549   0.00000  Uiso   1.00
O524   O     0.46039   0.77321   0.25000   0.00000  Uiso   1.00
O525   O     0.53958   0.77322   0.25000   0.00000  Uiso   1.00
O526   O     0.47973   0.83334   0.17451   0.00000  Uiso   1.00
O527   O     0.55892   0.83335   0.17451   0.00000  Uiso   1.00
O528   O     0.45518   0.81551   0.09634   0.00000  Uiso   1.00
C529   C     0.83336   0.91266   0.24993   0.00000  Uiso   1.00
C530   C     0.79301   0.83108   0.40637   0.00000  Uiso   1.00
C531   C     0.87558   0.97873   0.25129   0.00000  Uiso   1.00
C532   C     0.80755   0.83122   0.34976   0.00000  Uiso   1.00
C533   C     0.87561   0.68797   0.25119   0.00000  Uiso   1.00
C534   C     0.83347   0.70941   0.24948   0.00000  Uiso   1.00
C535   C     0.79140   0.68796   0.24756   0.00000  Uiso   1.00
C536   C     0.79136   0.97872   0.24770   0.00000  Uiso   1.00
C537   C     0.83343   0.95727   0.24966   0.00000  Uiso   1.00
C538   C     0.96837   0.86358   0.27485   0.00000  Uiso   1.00
C539   C     0.68468   0.86360   0.27478   0.00000  Uiso   1.00
C540   C     0.81463   0.83170   0.48743   0.00000  Uiso   1.00
C541   C     0.69802   0.80269   0.22604   0.00000  Uiso   1.00
C542   C     0.98181   0.80281   0.22579   0.00000  Uiso   1.00
C543   C     0.83338   0.75401   0.24978   0.00000  Uiso   1.00
C544   C     0.85917   0.83150   0.15023   0.00000  Uiso   1.00
C545   C     0.93499   0.81480   0.01267   0.00000  Uiso   1.00
C546   C     0.87326   0.82676   0.09398   0.00000  Uiso   1.00
C547   C     0.74635   0.84637   0.43241   0.00000  Uiso   1.00
C548   C     0.73475   0.85650   0.48417   0.00000  Uiso   1.00
C549   C     0.76909   0.85099   0.01088   0.00000  Uiso   1.00
C550   C     0.77962   0.77261   0.09568   0.00000  Uiso   1.00
C551   C     0.82691   0.82161   0.43443   0.00000  Uiso   1.00
C552   C     0.72737   0.76565   0.09285   0.00000  Uiso   1.00
C553   C     0.71125   0.72111   0.10484   0.00000  Uiso   1.00
C554   C     0.84959   0.82452   0.01463   0.00000  Uiso   1.00
C555   C     0.89855   0.81490   0.48730   0.00000  Uiso   1.00
C556   C     0.90955   0.80300   0.43593   0.00000  Uiso   1.00
C557   C     0.87313   0.80323   0.41117   0.00000  Uiso   1.00
C558   C     0.83657   0.82379   0.06864   0.00000  Uiso   1.00
C559   C     0.92266   0.82288   0.06537   0.00000  Uiso   1.00
Cu560  Cu    0.78645   0.83333   0.25000   0.00000  Uiso   1.00
Cu561  Cu    0.88022   0.83334   0.25000   0.00000  Uiso   1.00
H562   H     0.95145   0.82372   0.08411   0.00000  Uiso   1.00
H563   H     0.97285   0.80854   0.49177   0.00000  Uiso   1.00
H564   H     0.71981   0.85332   0.41196   0.00000  Uiso   1.00
H565   H     0.75985   0.86341   0.04943   0.00000  Uiso   1.00
H566   H     0.69973   0.87056   0.00313   0.00000  Uiso   1.00
H567   H     0.88234   0.78898   0.37365   0.00000  Uiso   1.00
H568   H     0.90847   0.96272   0.25278   0.00000  Uiso   1.00
H569   H     0.78402   0.75898   0.13164   0.00000  Uiso   1.00
H570   H     0.80503   0.75588   0.06256   0.00000  Uiso   1.00
H571   H     0.70158   0.78624   0.12048   0.00000  Uiso   1.00
H572   H     0.72552   0.77341   0.05356   0.00000  Uiso   1.00
H573   H     0.90852   0.70398   0.25261   0.00000  Uiso   1.00
H574   H     0.73618   0.69998   0.07702   0.00000  Uiso   1.00
H575   H     0.67348   0.71712   0.10182   0.00000  Uiso   1.00
H576   H     0.71137   0.71303   0.14460   0.00000  Uiso   1.00
H577   H     0.75854   0.70398   0.24598   0.00000  Uiso   1.00
H578   H     0.75846   0.96270   0.24626   0.00000  Uiso   1.00
H579   H     0.94418   0.88773   0.29492   0.00000  Uiso   1.00
H580   H     0.69788   0.88777   0.29478   0.00000  Uiso   1.00
H581   H     0.72179   0.77797   0.20723   0.00000  Uiso   1.00
H582   H     0.96849   0.77838   0.20628   0.00000  Uiso   1.00
H583   H     0.94581   0.79185   0.41550   0.00000  Uiso   1.00
N584   N     0.71598   0.83332   0.24999   0.00000  Uiso   1.00
N585   N     0.95069   0.83335   0.25000   0.00000  Uiso   1.00
O586   O     0.79375   0.89345   0.25001   0.00000  Uiso   1.00
O587   O     0.87294   0.89346   0.25001   0.00000  Uiso   1.00
O588   O     0.77441   0.83332   0.32549   0.00000  Uiso   1.00
O589   O     0.85360   0.83333   0.32549   0.00000  Uiso   1.00
O590   O     0.79373   0.77321   0.25000   0.00000  Uiso   1.00
O591   O     0.87292   0.77322   0.25000   0.00000  Uiso   1.00
O592   O     0.81306   0.83334   0.17451   0.00000  Uiso   1.00
O593   O     0.89225   0.83335   0.17451   0.00000  Uiso   1.00
O594   O     0.78852   0.81551   0.09634   0.00000  Uiso   1.00
C595   C     0.16669   0.24599   0.74993   0.00000  Uiso   1.00
C596   C     0.12634   0.16441   0.90637   0.00000  Uiso   1.00
C597   C     0.20891   0.31206   0.75129   0.00000  Uiso   1.00
C598   C     0.14088   0.16455   0.84976   0.00000  Uiso   1.00
C599   C     0.20894   0.02130   0.75119   0.00000  Uiso   1.00
C600   C     0.16680   0.04274   0.74948   0.00000  Uiso   1.00
C601   C     0.12473   0.02130   0.74756   0.00000  Uiso   1.00
C602   C     0.12470   0.31206   0.74770   0.00000  Uiso   1.00
C603   C     0.16676   0.29061   0.74966   0.00000  Uiso   1.00
C604   C     0.30170   0.19692   0.77485   0.00000  Uiso   1.00
C605   C     0.01802   0.19693   0.77478   0.00000  Uiso   1.00
C606   C     0.14797   0.16504   0.98743   0.00000  Uiso   1.00
C607   C     0.03135   0.13603   0.72604   0.00000  Uiso   1.00
C608   C     0.31514   0.13614   0.72579   0.00000  Uiso   1.00
C609   C     0.16672   0.08735   0.74978   0.00000  Uiso   1.00
C610   C     0.19250   0.16484   0.65023   0.00000  Uiso   1.00
C611   C     0.26832   0.14814   0.51267   0.00000  Uiso   1.00
C612   C     0.20660   0.16009   0.59398   0.00000  Uiso   1.00
C613   C     0.07969   0.17971   0.93241   0.00000  Uiso   1.00
C614   C     0.06808   0.18983   0.98417   0.00000  Uiso   1.00
C615   C     0.10242   0.18432   0.51088   0.00000  Uiso   1.00
C616   C     0.11296   0.10595   0.59568   0.00000  Uiso   1.00
C617   C     0.16024   0.15495   0.93443   0.00000  Uiso   1.00
C618   C     0.06071   0.09898   0.59285   0.00000  Uiso   1.00
C619   C     0.04458   0.05444   0.60484   0.00000  Uiso   1.00
C620   C     0.18293   0.15785   0.51463   0.00000  Uiso   1.00
C621   C     0.23188   0.14823   0.98730   0.00000  Uiso   1.00
C622   C     0.24288   0.13634   0.93593   0.00000  Uiso   1.00
C623   C     0.20647   0.13656   0.91117   0.00000  Uiso   1.00
C624   C     0.16990   0.15712   0.56864   0.00000  Uiso   1.00
C625   C     0.25600   0.15621   0.56537   0.00000  Uiso   1.00
Cu626  Cu    0.11978   0.16666   0.75000   0.00000  Uiso   1.00
Cu627  Cu    0.21355   0.16667   0.75000   0.00000  Uiso   1.00
H628   H     0.28479   0.15705   0.58411   0.00000  Uiso   1.00
H629   H     0.30618   0.14188   0.99177   0.00000  Uiso   1.00
H630   H     0.05314   0.18665   0.91196   0.00000  Uiso   1.00
H631   H     0.09318   0.19674   0.54943   0.00000  Uiso   1.00
H632   H     0.03307   0.20389   0.50313   0.00000  Uiso   1.00
H633   H     0.21567   0.12231   0.87365   0.00000  Uiso   1.00
H634   H     0.24181   0.29605   0.75278   0.00000  Uiso   1.00
H635   H     0.11736   0.09231   0.63164   0.00000  Uiso   1.00
H636   H     0.13836   0.08922   0.56256   0.00000  Uiso   1.00
H637   H     0.03492   0.11958   0.62048   0.00000  Uiso   1.00
H638   H     0.05885   0.10674   0.55356   0.00000  Uiso   1.00
H639   H     0.24185   0.03732   0.75261   0.00000  Uiso   1.00
H640   H     0.06951   0.03331   0.57702   0.00000  Uiso   1.00
H641   H     0.00681   0.05045   0.60182   0.00000  Uiso   1.00
H642   H     0.04470   0.04636   0.64460   0.00000  Uiso   1.00
H643   H     0.09187   0.03732   0.74598   0.00000  Uiso   1.00
H644   H     0.09180   0.29604   0.74626   0.00000  Uiso   1.00
H645   H     0.27752   0.22106   0.79492   0.00000  Uiso   1.00
H646   H     0.03121   0.22110   0.79478   0.00000  Uiso   1.00
H647   H     0.05513   0.11131   0.70723   0.00000  Uiso   1.00
H648   H     0.30182   0.11172   0.70628   0.00000  Uiso   1.00
H649   H     0.27914   0.12518   0.91550   0.00000  Uiso   1.00
N650   N     0.04931   0.16666   0.74999   0.00000  Uiso   1.00
N651   N     0.28402   0.16669   0.75000   0.00000  Uiso   1.00
O652   O     0.12708   0.22678   0.75001   0.00000  Uiso   1.00
O653   O     0.20627   0.22679   0.75001   0.00000  Uiso   1.00
O654   O     0.10775   0.16665   0.82549   0.00000  Uiso   1.00
O655   O     0.18694   0.16666   0.82549   0.00000  Uiso   1.00
O656   O     0.12706   0.10654   0.75000   0.00000  Uiso   1.00
O657   O     0.20625   0.10655   0.75000   0.00000  Uiso   1.00
O658   O     0.14640   0.16667   0.67451   0.00000  Uiso   1.00
O659   O     0.22559   0.16668   0.67451   0.00000  Uiso   1.00
O660   O     0.12185   0.14885   0.59634   0.00000  Uiso   1.00
C661   C     0.50003   0.24599   0.74993   0.00000  Uiso   1.00
C662   C     0.45967   0.16441   0.90637   0.00000  Uiso   1.00
C663   C     0.54225   0.31206   0.75129   0.00000  Uiso   1.00
C664   C     0.47422   0.16455   0.84976   0.00000  Uiso   1.00
C665   C     0.54227   0.02130   0.75119   0.00000  Uiso   1.00
C666   C     0.50014   0.04274   0.74948   0.00000  Uiso   1.00
C667   C     0.45807   0.02130   0.74756   0.00000  Uiso   1.00
C668   C     0.45803   0.31206   0.74770   0.00000  Uiso   1.00
C669   C     0.50009   0.29061   0.74966   0.00000  Uiso   1.00
C670   C     0.63503   0.19692   0.77485   0.00000  Uiso   1.00
C671   C     0.35135   0.19693   0.77478   0.00000  Uiso   1.00
C672   C     0.48130   0.16504   0.98743   0.00000  Uiso   1.00
C673   C     0.36468   0.13603   0.72604   0.00000  Uiso   1.00
C674   C     0.64848   0.13614   0.72579   0.00000  Uiso   1.00
C675   C     0.50005   0.08735   0.74978   0.00000  Uiso   1.00
C676   C     0.52583   0.16484   0.65023   0.00000  Uiso   1.00
C677   C     0.60165   0.14814   0.51267   0.00000  Uiso   1.00
C678   C     0.53993   0.16009   0.59398   0.00000  Uiso   1.00
C679   C     0.41302   0.17971   0.93241   0.00000  Uiso   1.00
C680   C     0.40142   0.18983   0.98417   0.00000  Uiso   1.00
C681   C     0.43576   0.18432   0.51088   0.00000  Uiso   1.00
C682   C     0.44629   0.10595   0.59568   0.00000  Uiso   1.00
C683   C     0.49357   0.15495   0.93443   0.00000  Uiso   1.00
C684   C     0.39404   0.09898   0.59285   0.00000  Uiso   1.00
C685   C     0.37791   0.05444   0.60484   0.00000  Uiso   1.00
C686   C     0.51626   0.15785   0.51463   0.00000  Uiso   1.00
C687   C     0.56522   0.14823   0.98730   0.00000  Uiso   1.00
C688   C     0.57622   0.13634   0.93593   0.00000  Uiso   1.00
C689   C     0.53980   0.13656   0.91117   0.00000  Uiso   1.00
C690   C     0.50324   0.15712   0.56864   0.00000  Uiso   1.00
C691   C     0.58933   0.15621   0.56537   0.00000  Uiso   1.00
Cu692  Cu    0.45311   0.16666   0.75000   0.00000  Uiso   1.00
Cu693  Cu    0.54689   0.16667   0.75000   0.00000  Uiso   1.00
H694   H     0.61812   0.15705   0.58411   0.00000  Uiso   1.00
H695   H     0.63952   0.14188   0.99177   0.00000  Uiso   1.00
H696   H     0.38648   0.18665   0.91196   0.00000  Uiso   1.00
H697   H     0.42652   0.19674   0.54943   0.00000  Uiso   1.00
H698   H     0.36640   0.20389   0.50313   0.00000  Uiso   1.00
H699   H     0.54901   0.12231   0.87365   0.00000  Uiso   1.00
H700   H     0.57514   0.29605   0.75278   0.00000  Uiso   1.00
H701   H     0.45069   0.09231   0.63164   0.00000  Uiso   1.00
H702   H     0.47170   0.08922   0.56256   0.00000  Uiso   1.00
H703   H     0.36825   0.11958   0.62048   0.00000  Uiso   1.00
H704   H     0.39219   0.10674   0.55356   0.00000  Uiso   1.00
H705   H     0.57518   0.03732   0.75261   0.00000  Uiso   1.00
H706   H     0.40284   0.03331   0.57702   0.00000  Uiso   1.00
H707   H     0.34014   0.05045   0.60182   0.00000  Uiso   1.00
H708   H     0.37803   0.04636   0.64460   0.00000  Uiso   1.00
H709   H     0.42520   0.03732   0.74598   0.00000  Uiso   1.00
H710   H     0.42513   0.29604   0.74626   0.00000  Uiso   1.00
H711   H     0.61085   0.22106   0.79492   0.00000  Uiso   1.00
H712   H     0.36454   0.22110   0.79478   0.00000  Uiso   1.00
H713   H     0.38846   0.11131   0.70723   0.00000  Uiso   1.00
H714   H     0.63516   0.11172   0.70628   0.00000  Uiso   1.00
H715   H     0.61248   0.12518   0.91550   0.00000  Uiso   1.00
N716   N     0.38265   0.16666   0.74999   0.00000  Uiso   1.00
N717   N     0.61735   0.16669   0.75000   0.00000  Uiso   1.00
O718   O     0.46042   0.22678   0.75001   0.00000  Uiso   1.00
O719   O     0.53961   0.22679   0.75001   0.00000  Uiso   1.00
O720   O     0.44108   0.16665   0.82549   0.00000  Uiso   1.00
O721   O     0.52027   0.16666   0.82549   0.00000  Uiso   1.00
O722   O     0.46039   0.10654   0.75000   0.00000  Uiso   1.00
O723   O     0.53958   0.10655   0.75000   0.00000  Uiso   1.00
O724   O     0.47973   0.16667   0.67451   0.00000  Uiso   1.00
O725   O     0.55892   0.16668   0.67451   0.00000  Uiso   1.00
O726   O     0.45518   0.14885   0.59634   0.00000  Uiso   1.00
C727   C     0.83336   0.24599   0.74993   0.00000  Uiso   1.00
C728   C     0.79301   0.16441   0.90637   0.00000  Uiso   1.00
C729   C     0.87558   0.31206   0.75129   0.00000  Uiso   1.00
C730   C     0.80755   0.16455   0.84976   0.00000  Uiso   1.00
C731   C     0.87561   0.02130   0.75119   0.00000  Uiso   1.00
C732   C     0.83347   0.04274   0.74948   0.00000  Uiso   1.00
C733   C     0.79140   0.02130   0.74756   0.00000  Uiso   1.00
C734   C     0.79136   0.31206   0.74770   0.00000  Uiso   1.00
C735   C     0.83343   0.29061   0.74966   0.00000  Uiso   1.00
C736   C     0.96837   0.19692   0.77485   0.00000  Uiso   1.00
C737   C     0.68468   0.19693   0.77478   0.00000  Uiso   1.00
C738   C     0.81463   0.16504   0.98743   0.00000  Uiso   1.00
C739   C     0.69802   0.13603   0.72604   0.00000  Uiso   1.00
C740   C     0.98181   0.13614   0.72579   0.00000  Uiso   1.00
C741   C     0.83338   0.08735   0.74978   0.00000  Uiso   1.00
C742   C     0.85917   0.16484   0.65023   0.00000  Uiso   1.00
C743   C     0.93499   0.14814   0.51267   0.00000  Uiso   1.00
C744   C     0.87326   0.16009   0.59398   0.00000  Uiso   1.00
C745   C     0.74635   0.17971   0.93241   0.00000  Uiso   1.00
C746   C     0.73475   0.18983   0.98417   0.00000  Uiso   1.00
C747   C     0.76909   0.18432   0.51088   0.00000  Uiso   1.00
C748   C     0.77962   0.10595   0.59568   0.00000  Uiso   1.00
C749   C     0.82691   0.15495   0.93443   0.00000  Uiso   1.00
C750   C     0.72737   0.09898   0.59285   0.00000  Uiso   1.00
C751   C     0.71125   0.05444   0.60484   0.00000  Uiso   1.00
C752   C     0.84959   0.15785   0.51463   0.00000  Uiso   1.00
C753   C     0.89855   0.14823   0.98730   0.00000  Uiso   1.00
C754   C     0.90955   0.13634   0.93593   0.00000  Uiso   1.00
C755   C     0.87313   0.13656   0.91117   0.00000  Uiso   1.00
C756   C     0.83657   0.15712   0.56864   0.00000  Uiso   1.00
C757   C     0.92266   0.15621   0.56537   0.00000  Uiso   1.00
Cu758  Cu    0.78645   0.16666   0.75000   0.00000  Uiso   1.00
Cu759  Cu    0.88022   0.16667   0.75000   0.00000  Uiso   1.00
H760   H     0.95145   0.15705   0.58411   0.00000  Uiso   1.00
H761   H     0.97285   0.14188   0.99177   0.00000  Uiso   1.00
H762   H     0.71981   0.18665   0.91196   0.00000  Uiso   1.00
H763   H     0.75985   0.19674   0.54943   0.00000  Uiso   1.00
H764   H     0.69973   0.20389   0.50313   0.00000  Uiso   1.00
H765   H     0.88234   0.12231   0.87365   0.00000  Uiso   1.00
H766   H     0.90847   0.29605   0.75278   0.00000  Uiso   1.00
H767   H     0.78402   0.09231   0.63164   0.00000  Uiso   1.00
H768   H     0.80503   0.08922   0.56256   0.00000  Uiso   1.00
H769   H     0.70158   0.11958   0.62048   0.00000  Uiso   1.00
H770   H     0.72552   0.10674   0.55356   0.00000  Uiso   1.00
H771   H     0.90852   0.03732   0.75261   0.00000  Uiso   1.00
H772   H     0.73618   0.03331   0.57702   0.00000  Uiso   1.00
H773   H     0.67348   0.05045   0.60182   0.00000  Uiso   1.00
H774   H     0.71137   0.04636   0.64460   0.00000  Uiso   1.00
H775   H     0.75854   0.03732   0.74598   0.00000  Uiso   1.00
H776   H     0.75846   0.29604   0.74626   0.00000  Uiso   1.00
H777   H     0.94418   0.22106   0.79492   0.00000  Uiso   1.00
H778   H     0.69788   0.22110   0.79478   0.00000  Uiso   1.00
H779   H     0.72179   0.11131   0.70723   0.00000  Uiso   1.00
H780   H     0.96849   0.11172   0.70628   0.00000  Uiso   1.00
H781   H     0.94581   0.12518   0.91550   0.00000  Uiso   1.00
N782   N     0.71598   0.16666   0.74999   0.00000  Uiso   1.00
N783   N     0.95069   0.16669   0.75000   0.00000  Uiso   1.00
O784   O     0.79375   0.22678   0.75001   0.00000  Uiso   1.00
O785   O     0.87294   0.22679   0.75001   0.00000  Uiso   1.00
O786   O     0.77441   0.16665   0.82549   0.00000  Uiso   1.00
O787   O     0.85360   0.16666   0.82549   0.00000  Uiso   1.00
O788   O     0.79373   0.10654   0.75000   0.00000  Uiso   1.00
O789   O     0.87292   0.10655   0.75000   0.00000  Uiso   1.00
O790   O     0.81306   0.16667   0.67451   0.00000  Uiso   1.00
O791   O     0.89225   0.16668   0.67451   0.00000  Uiso   1.00
O792   O     0.78852   0.14885   0.59634   0.00000  Uiso   1.00
C793   C     0.16669   0.57933   0.74993   0.00000  Uiso   1.00
C794   C     0.12634   0.49775   0.90637   0.00000  Uiso   1.00
C795   C     0.20891   0.64540   0.75129   0.00000  Uiso   1.00
C796   C     0.14088   0.49788   0.84976   0.00000  Uiso   1.00
C797   C     0.20894   0.35463   0.75119   0.00000  Uiso   1.00
C798   C     0.16680   0.37608   0.74948   0.00000  Uiso   1.00
C799   C     0.12473   0.35463   0.74756   0.00000  Uiso   1.00
C800   C     0.12470   0.64539   0.74770   0.00000  Uiso   1.00
C801   C     0.16676   0.62394   0.74966   0.00000  Uiso   1.00
C802   C     0.30170   0.53025   0.77485   0.00000  Uiso   1.00
C803   C     0.01802   0.53027   0.77478   0.00000  Uiso   1.00
C804   C     0.14797   0.49837   0.98743   0.00000  Uiso   1.00
C805   C     0.03135   0.46936   0.72604   0.00000  Uiso   1.00
C806   C     0.31514   0.46947   0.72579   0.00000  Uiso   1.00
C807   C     0.16672   0.42068   0.74978   0.00000  Uiso   1.00
C808   C     0.19250   0.49817   0.65023   0.00000  Uiso   1.00
C809   C     0.26832   0.48147   0.51267   0.00000  Uiso   1.00
C810   C     0.20660   0.49342   0.59398   0.00000  Uiso   1.00
C811   C     0.07969   0.51304   0.93241   0.00000  Uiso   1.00
C812   C     0.06808   0.52317   0.98417   0.00000  Uiso   1.00
C813   C     0.10242   0.51765   0.51088   0.00000  Uiso   1.00
C814   C     0.11296   0.43928   0.59568   0.00000  Uiso   1.00
C815   C     0.16024   0.48828   0.93443   0.00000  Uiso   1.00
C816   C     0.06071   0.43231   0.59285   0.00000  Uiso   1.00
C817   C     0.04458   0.38777   0.60484   0.00000  Uiso   1.00
C818   C     0.18293   0.49118   0.51463   0.00000  Uiso   1.00
C819   C     0.23188   0.48156   0.98730   0.00000  Uiso   1.00
C820   C     0.24288   0.46967   0.93593   0.00000  Uiso   1.00
C821   C     0.20647   0.46989   0.91117   0.00000  Uiso   1.00
C822   C     0.16990   0.49045   0.56864   0.00000  Uiso   1.00
C823   C     0.25600   0.48954   0.56537   0.00000  Uiso   1.00
Cu824  Cu    0.11978   0.49999   0.75000   0.00000  Uiso   1.00
Cu825  Cu    0.21355   0.50001   0.75000   0.00000  Uiso   1.00
H826   H     0.28479   0.49039   0.58411   0.00000  Uiso   1.00
H827   H     0.30618   0.47521   0.99177   0.00000  Uiso   1.00
H828   H     0.05314   0.51998   0.91196   0.00000  Uiso   1.00
H829   H     0.09318   0.53007   0.54943   0.00000  Uiso   1.00
H830   H     0.03307   0.53722   0.50313   0.00000  Uiso   1.00
H831   H     0.21567   0.45565   0.87365   0.00000  Uiso   1.00
H832   H     0.24181   0.62939   0.75278   0.00000  Uiso   1.00
H833   H     0.11736   0.42564   0.63164   0.00000  Uiso   1.00
H834   H     0.13836   0.42255   0.56256   0.00000  Uiso   1.00
H835   H     0.03492   0.45291   0.62048   0.00000  Uiso   1.00
H836   H     0.05885   0.44007   0.55356   0.00000  Uiso   1.00
H837   H     0.24185   0.37065   0.75261   0.00000  Uiso   1.00
H838   H     0.06951   0.36664   0.57702   0.00000  Uiso   1.00
H839   H     0.00681   0.38378   0.60182   0.00000  Uiso   1.00
H840   H     0.04470   0.37969   0.64460   0.00000  Uiso   1.00
H841   H     0.09187   0.37065   0.74598   0.00000  Uiso   1.00
H842   H     0.09180   0.62937   0.74626   0.00000  Uiso   1.00
H843   H     0.27752   0.55440   0.79492   0.00000  Uiso   1.00
H844   H     0.03121   0.55444   0.79478   0.00000  Uiso   1.00
H845   H     0.05513   0.44464   0.70723   0.00000  Uiso   1.00
H846   H     0.30182   0.44505   0.70628   0.00000  Uiso   1.00
H847   H     0.27914   0.45852   0.91550   0.00000  Uiso   1.00
N848   N     0.04931   0.49999   0.74999   0.00000  Uiso   1.00
N849   N     0.28402   0.50002   0.75000   0.00000  Uiso   1.00
O850   O     0.12708   0.56011   0.75001   0.00000  Uiso   1.00
O851   O     0.20627   0.56012   0.75001   0.00000  Uiso   1.00
O852   O     0.10775   0.49998   0.82549   0.00000  Uiso   1.00
O853   O     0.18694   0.49999   0.82549   0.00000  Uiso   1.00
O854   O     0.12706   0.43988   0.75000   0.00000  Uiso   1.00
O855   O     0.20625   0.43989   0.75000   0.00000  Uiso   1.00
O856   O     0.14640   0.50001   0.67451   0.00000  Uiso   1.00
O857   O     0.22559   0.50002   0.67451   0.00000  Uiso   1.00
O858   O     0.12185   0.48218   0.59634   0.00000  Uiso   1.00
C859   C     0.50003   0.57933   0.74993   0.00000  Uiso   1.00
C860   C     0.45967   0.49775   0.90637   0.00000  Uiso   1.00
C861   C     0.54225   0.64540   0.75129   0.00000  Uiso   1.00
C862   C     0.47422   0.49788   0.84976   0.00000  Uiso   1.00
C863   C     0.54227   0.35463   0.75119   0.00000  Uiso   1.00
C864   C     0.50014   0.37608   0.74948   0.00000  Uiso   1.00
C865   C     0.45807   0.35463   0.74756   0.00000  Uiso   1.00
C866   C     0.45803   0.64539   0.74770   0.00000  Uiso   1.00
C867   C     0.50009   0.62394   0.74966   0.00000  Uiso   1.00
C868   C     0.63503   0.53025   0.77485   0.00000  Uiso   1.00
C869   C     0.35135   0.53027   0.77478   0.00000  Uiso   1.00
C870   C     0.48130   0.49837   0.98743   0.00000  Uiso   1.00
C871   C     0.36468   0.46936   0.72604   0.00000  Uiso   1.00
C872   C     0.64848   0.46947   0.72579   0.00000  Uiso   1.00
C873   C     0.50005   0.42068   0.74978   0.00000  Uiso   1.00
C874   C     0.52583   0.49817   0.65023   0.00000  Uiso   1.00
C875   C     0.60165   0.48147   0.51267   0.00000  Uiso   1.00
C876   C     0.53993   0.49342   0.59398   0.00000  Uiso   1.00
C877   C     0.41302   0.51304   0.93241   0.00000  Uiso   1.00
C878   C     0.40142   0.52317   0.98417   0.00000  Uiso   1.00
C879   C     0.43576   0.51765   0.51088   0.00000  Uiso   1.00
C880   C     0.44629   0.43928   0.59568   0.00000  Uiso   1.00
C881   C     0.49357   0.48828   0.93443   0.00000  Uiso   1.00
C882   C     0.39404   0.43231   0.59285   0.00000  Uiso   1.00
C883   C     0.37791   0.38777   0.60484   0.00000  Uiso   1.00
C884   C     0.51626   0.49118   0.51463   0.00000  Uiso   1.00
C885   C     0.56522   0.48156   0.98730   0.00000  Uiso   1.00
C886   C     0.57622   0.46967   0.93593   0.00000  Uiso   1.00
C887   C     0.53980   0.46989   0.91117   0.00000  Uiso   1.00
C888   C     0.50324   0.49045   0.56864   0.00000  Uiso   1.00
C889   C     0.58933   0.48954   0.56537   0.00000  Uiso   1.00
Cu890  Cu    0.45311   0.49999   0.75000   0.00000  Uiso   1.00
Cu891  Cu    0.54689   0.50001   0.75000   0.00000  Uiso   1.00
H892   H     0.61812   0.49039   0.58411   0.00000  Uiso   1.00
H893   H     0.63952   0.47521   0.99177   0.00000  Uiso   1.00
H894   H     0.38648   0.51998   0.91196   0.00000  Uiso   1.00
H895   H     0.42652   0.53007   0.54943   0.00000  Uiso   1.00
H896   H     0.36640   0.53722   0.50313   0.00000  Uiso   1.00
H897   H     0.54901   0.45565   0.87365   0.00000  Uiso   1.00
H898   H     0.57514   0.62939   0.75278   0.00000  Uiso   1.00
H899   H     0.45069   0.42564   0.63164   0.00000  Uiso   1.00
H900   H     0.47170   0.42255   0.56256   0.00000  Uiso   1.00
H901   H     0.36825   0.45291   0.62048   0.00000  Uiso   1.00
H902   H     0.39219   0.44007   0.55356   0.00000  Uiso   1.00
H903   H     0.57518   0.37065   0.75261   0.00000  Uiso   1.00
H904   H     0.40284   0.36664   0.57702   0.00000  Uiso   1.00
H905   H     0.34014   0.38378   0.60182   0.00000  Uiso   1.00
H906   H     0.37803   0.37969   0.64460   0.00000  Uiso   1.00
H907   H     0.42520   0.37065   0.74598   0.00000  Uiso   1.00
H908   H     0.42513   0.62937   0.74626   0.00000  Uiso   1.00
H909   H     0.61085   0.55440   0.79492   0.00000  Uiso   1.00
H910   H     0.36454   0.55444   0.79478   0.00000  Uiso   1.00
H911   H     0.38846   0.44464   0.70723   0.00000  Uiso   1.00
H912   H     0.63516   0.44505   0.70628   0.00000  Uiso   1.00
H913   H     0.61248   0.45852   0.91550   0.00000  Uiso   1.00
N914   N     0.38265   0.49999   0.74999   0.00000  Uiso   1.00
N915   N     0.61735   0.50002   0.75000   0.00000  Uiso   1.00
O916   O     0.46042   0.56011   0.75001   0.00000  Uiso   1.00
O917   O     0.53961   0.56012   0.75001   0.00000  Uiso   1.00
O918   O     0.44108   0.49998   0.82549   0.00000  Uiso   1.00
O919   O     0.52027   0.49999   0.82549   0.00000  Uiso   1.00
O920   O     0.46039   0.43988   0.75000   0.00000  Uiso   1.00
O921   O     0.53958   0.43989   0.75000   0.00000  Uiso   1.00
O922   O     0.47973   0.50001   0.67451   0.00000  Uiso   1.00
O923   O     0.55892   0.50002   0.67451   0.00000  Uiso   1.00
O924   O     0.45518   0.48218   0.59634   0.00000  Uiso   1.00
C925   C     0.83336   0.57933   0.74993   0.00000  Uiso   1.00
C926   C     0.79301   0.49775   0.90637   0.00000  Uiso   1.00
C927   C     0.87558   0.64540   0.75129   0.00000  Uiso   1.00
C928   C     0.80755   0.49788   0.84976   0.00000  Uiso   1.00
C929   C     0.87561   0.35463   0.75119   0.00000  Uiso   1.00
C930   C     0.83347   0.37608   0.74948   0.00000  Uiso   1.00
C931   C     0.79140   0.35463   0.74756   0.00000  Uiso   1.00
C932   C     0.79136   0.64539   0.74770   0.00000  Uiso   1.00
C933   C     0.83343   0.62394   0.74966   0.00000  Uiso   1.00
C934   C     0.96837   0.53025   0.77485   0.00000  Uiso   1.00
C935   C     0.68468   0.53027   0.77478   0.00000  Uiso   1.00
C936   C     0.81463   0.49837   0.98743   0.00000  Uiso   1.00
C937   C     0.69802   0.46936   0.72604   0.00000  Uiso   1.00
C938   C     0.98181   0.46947   0.72579   0.00000  Uiso   1.00
C939   C     0.83338   0.42068   0.74978   0.00000  Uiso   1.00
C940   C     0.85917   0.49817   0.65023   0.00000  Uiso   1.00
C941   C     0.93499   0.48147   0.51267   0.00000  Uiso   1.00
C942   C     0.87326   0.49342   0.59398   0.00000  Uiso   1.00
C943   C     0.74635   0.51304   0.93241   0.00000  Uiso   1.00
C944   C     0.73475   0.52317   0.98417   0.00000  Uiso   1.00
C945   C     0.76909   0.51765   0.51088   0.00000  Uiso   1.00
C946   C     0.77962   0.43928   0.59568   0.00000  Uiso   1.00
C947   C     0.82691   0.48828   0.93443   0.00000  Uiso   1.00
C948   C     0.72737   0.43231   0.59285   0.00000  Uiso   1.00
C949   C     0.71125   0.38777   0.60484   0.00000  Uiso   1.00
C950   C     0.84959   0.49118   0.51463   0.00000  Uiso   1.00
C951   C     0.89855   0.48156   0.98730   0.00000  Uiso   1.00
C952   C     0.90955   0.46967   0.93593   0.00000  Uiso   1.00
C953   C     0.87313   0.46989   0.91117   0.00000  Uiso   1.00
C954   C     0.83657   0.49045   0.56864   0.00000  Uiso   1.00
C955   C     0.92266   0.48954   0.56537   0.00000  Uiso   1.00
Cu956  Cu    0.78645   0.49999   0.75000   0.00000  Uiso   1.00
Cu957  Cu    0.88022   0.50001   0.75000   0.00000  Uiso   1.00
H958   H     0.95145   0.49039   0.58411   0.00000  Uiso   1.00
H959   H     0.97285   0.47521   0.99177   0.00000  Uiso   1.00
H960   H     0.71981   0.51998   0.91196   0.00000  Uiso   1.00
H961   H     0.75985   0.53007   0.54943   0.00000  Uiso   1.00
H962   H     0.69973   0.53722   0.50313   0.00000  Uiso   1.00
H963   H     0.88234   0.45565   0.87365   0.00000  Uiso   1.00
H964   H     0.90847   0.62939   0.75278   0.00000  Uiso   1.00
H965   H     0.78402   0.42564   0.63164   0.00000  Uiso   1.00
H966   H     0.80503   0.42255   0.56256   0.00000  Uiso   1.00
H967   H     0.70158   0.45291   0.62048   0.00000  Uiso   1.00
H968   H     0.72552   0.44007   0.55356   0.00000  Uiso   1.00
H969   H     0.90852   0.37065   0.75261   0.00000  Uiso   1.00
H970   H     0.73618   0.36664   0.57702   0.00000  Uiso   1.00
H971   H     0.67348   0.38378   0.60182   0.00000  Uiso   1.00
H972   H     0.71137   0.37969   0.64460   0.00000  Uiso   1.00
H973   H     0.75854   0.37065   0.74598   0.00000  Uiso   1.00
H974   H     0.75846   0.62937   0.74626   0.00000  Uiso   1.00
H975   H     0.94418   0.55440   0.79492   0.00000  Uiso   1.00
H976   H     0.69788   0.55444   0.79478   0.00000  Uiso   1.00
H977   H     0.72179   0.44464   0.70723   0.00000  Uiso   1.00
H978   H     0.96849   0.44505   0.70628   0.00000  Uiso   1.00
H979   H     0.94581   0.45852   0.91550   0.00000  Uiso   1.00
N980   N     0.71598   0.49999   0.74999   0.00000  Uiso   1.00
N981   N     0.95069   0.50002   0.75000   0.00000  Uiso   1.00
O982   O     0.79375   0.56011   0.75001   0.00000  Uiso   1.00
O983   O     0.87294   0.56012   0.75001   0.00000  Uiso   1.00
O984   O     0.77441   0.49998   0.82549   0.00000  Uiso   1.00
O985   O     0.85360   0.49999   0.82549   0.00000  Uiso   1.00
O986   O     0.79373   0.43988   0.75000   0.00000  Uiso   1.00
O987   O     0.87292   0.43989   0.75000   0.00000  Uiso   1.00
O988   O     0.81306   0.50001   0.67451   0.00000  Uiso   1.00
O989   O     0.89225   0.50002   0.67451   0.00000  Uiso   1.00
O990   O     0.78852   0.48218   0.59634   0.00000  Uiso   1.00
C991   C     0.16669   0.91266   0.74993   0.00000  Uiso   1.00
C992   C     0.12634   0.83108   0.90637   0.00000  Uiso   1.00
C993   C     0.20891   0.97873   0.75129   0.00000  Uiso   1.00
C994   C     0.14088   0.83122   0.84976   0.00000  Uiso   1.00
C995   C     0.20894   0.68797   0.75119   0.00000  Uiso   1.00
C996   C     0.16680   0.70941   0.74948   0.00000  Uiso   1.00
C997   C     0.12473   0.68796   0.74756   0.00000  Uiso   1.00
C998   C     0.12470   0.97872   0.74770   0.00000  Uiso   1.00
C999   C     0.16676   0.95727   0.74966   0.00000  Uiso   1.00
C1000  C     0.30170   0.86358   0.77485   0.00000  Uiso   1.00
C1001  C     0.01802   0.86360   0.77478   0.00000  Uiso   1.00
C1002  C     0.14797   0.83170   0.98743   0.00000  Uiso   1.00
C1003  C     0.03135   0.80269   0.72604   0.00000  Uiso   1.00
C1004  C     0.31514   0.80281   0.72579   0.00000  Uiso   1.00
C1005  C     0.16672   0.75401   0.74978   0.00000  Uiso   1.00
C1006  C     0.19250   0.83150   0.65023   0.00000  Uiso   1.00
C1007  C     0.26832   0.81480   0.51267   0.00000  Uiso   1.00
C1008  C     0.20660   0.82676   0.59398   0.00000  Uiso   1.00
C1009  C     0.07969   0.84637   0.93241   0.00000  Uiso   1.00
C1010  C     0.06808   0.85650   0.98417   0.00000  Uiso   1.00
C1011  C     0.10242   0.85099   0.51088   0.00000  Uiso   1.00
C1012  C     0.11296   0.77261   0.59568   0.00000  Uiso   1.00
C1013  C     0.16024   0.82161   0.93443   0.00000  Uiso   1.00
C1014  C     0.06071   0.76565   0.59285   0.00000  Uiso   1.00
C1015  C     0.04458   0.72111   0.60484   0.00000  Uiso   1.00
C1016  C     0.18293   0.82452   0.51463   0.00000  Uiso   1.00
C1017  C     0.23188   0.81490   0.98730   0.00000  Uiso   1.00
C1018  C     0.24288   0.80300   0.93593   0.00000  Uiso   1.00
C1019  C     0.20647   0.80323   0.91117   0.00000  Uiso   1.00
C1020  C     0.16990   0.82379   0.56864   0.00000  Uiso   1.00
C1021  C     0.25600   0.82288   0.56537   0.00000  Uiso   1.00
Cu1022 Cu    0.11978   0.83333   0.75000   0.00000  Uiso   1.00
Cu1023 Cu    0.21355   0.83334   0.75000   0.00000  Uiso   1.00
H1024  H     0.28479   0.82372   0.58411   0.00000  Uiso   1.00
H1025  H     0.30618   0.80854   0.99177   0.00000  Uiso   1.00
H1026  H     0.05314   0.85332   0.91196   0.00000  Uiso   1.00
H1027  H     0.09318   0.86341   0.54943   0.00000  Uiso   1.00
H1028  H     0.03307   0.87056   0.50313   0.00000  Uiso   1.00
H1029  H     0.21567   0.78898   0.87365   0.00000  Uiso   1.00
H1030  H     0.24181   0.96272   0.75278   0.00000  Uiso   1.00
H1031  H     0.11736   0.75898   0.63164   0.00000  Uiso   1.00
H1032  H     0.13836   0.75588   0.56256   0.00000  Uiso   1.00
H1033  H     0.03492   0.78624   0.62048   0.00000  Uiso   1.00
H1034  H     0.05885   0.77341   0.55356   0.00000  Uiso   1.00
H1035  H     0.24185   0.70398   0.75261   0.00000  Uiso   1.00
H1036  H     0.06951   0.69998   0.57702   0.00000  Uiso   1.00
H1037  H     0.00681   0.71712   0.60182   0.00000  Uiso   1.00
H1038  H     0.04470   0.71303   0.64460   0.00000  Uiso   1.00
H1039  H     0.09187   0.70398   0.74598   0.00000  Uiso   1.00
H1040  H     0.09180   0.96270   0.74626   0.00000  Uiso   1.00
H1041  H     0.27752   0.88773   0.79492   0.00000  Uiso   1.00
H1042  H     0.03121   0.88777   0.79478   0.00000  Uiso   1.00
H1043  H     0.05513   0.77797   0.70723   0.00000  Uiso   1.00
H1044  H     0.30182   0.77838   0.70628   0.00000  Uiso   1.00
H1045  H     0.27914   0.79185   0.91550   0.00000  Uiso   1.00
N1046  N     0.04931   0.83332   0.74999   0.00000  Uiso   1.00
N1047  N     0.28402   0.83335   0.75000   0.00000  Uiso   1.00
O1048  O     0.12708   0.89345   0.75001   0.00000  Uiso   1.00
O1049  O     0.20627   0.89346   0.75001   0.00000  Uiso   1.00
O1050  O     0.10775   0.83332   0.82549   0.00000  Uiso   1.00
O1051  O     0.18694   0.83333   0.82549   0.00000  Uiso   1.00
O1052  O     0.12706   0.77321   0.75000   0.00000  Uiso   1.00
O1053  O     0.20625   0.77322   0.75000   0.00000  Uiso   1.00
O1054  O     0.14640   0.83334   0.67451   0.00000  Uiso   1.00
O1055  O     0.22559   0.83335   0.67451   0.00000  Uiso   1.00
O1056  O     0.12185   0.81551   0.59634   0.00000  Uiso   1.00
C1057  C     0.50003   0.91266   0.74993   0.00000  Uiso   1.00
C1058  C     0.45967   0.83108   0.90637   0.00000  Uiso   1.00
C1059  C     0.54225   0.97873   0.75129   0.00000  Uiso   1.00
C1060  C     0.47422   0.83122   0.84976   0.00000  Uiso   1.00
C1061  C     0.54227   0.68797   0.75119   0.00000  Uiso   1.00
C1062  C     0.50014   0.70941   0.74948   0.00000  Uiso   1.00
C1063  C     0.45807   0.68796   0.74756   0.00000  Uiso   1.00
C1064  C     0.45803   0.97872   0.74770   0.00000  Uiso   1.00
C1065  C     0.50009   0.95727   0.74966   0.00000  Uiso   1.00
C1066  C     0.63503   0.86358   0.77485   0.00000  Uiso   1.00
C1067  C     0.35135   0.86360   0.77478   0.00000  Uiso   1.00
C1068  C     0.48130   0.83170   0.98743   0.00000  Uiso   1.00
C1069  C     0.36468   0.80269   0.72604   0.00000  Uiso   1.00
C1070  C     0.64848   0.80281   0.72579   0.00000  Uiso   1.00
C1071  C     0.50005   0.75401   0.74978   0.00000  Uiso   1.00
C1072  C     0.52583   0.83150   0.65023   0.00000  Uiso   1.00
C1073  C     0.60165   0.81480   0.51267   0.00000  Uiso   1.00
C1074  C     0.53993   0.82676   0.59398   0.00000  Uiso   1.00
C1075  C     0.41302   0.84637   0.93241   0.00000  Uiso   1.00
C1076  C     0.40142   0.85650   0.98417   0.00000  Uiso   1.00
C1077  C     0.43576   0.85099   0.51088   0.00000  Uiso   1.00
C1078  C     0.44629   0.77261   0.59568   0.00000  Uiso   1.00
C1079  C     0.49357   0.82161   0.93443   0.00000  Uiso   1.00
C1080  C     0.39404   0.76565   0.59285   0.00000  Uiso   1.00
C1081  C     0.37791   0.72111   0.60484   0.00000  Uiso   1.00
C1082  C     0.51626   0.82452   0.51463   0.00000  Uiso   1.00
C1083  C     0.56522   0.81490   0.98730   0.00000  Uiso   1.00
C1084  C     0.57622   0.80300   0.93593   0.00000  Uiso   1.00
C1085  C     0.53980   0.80323   0.91117   0.00000  Uiso   1.00
C1086  C     0.50324   0.82379   0.56864   0.00000  Uiso   1.00
C1087  C     0.58933   0.82288   0.56537   0.00000  Uiso   1.00
Cu1088 Cu    0.45311   0.83333   0.75000   0.00000  Uiso   1.00
Cu1089 Cu    0.54689   0.83334   0.75000   0.00000  Uiso   1.00
H1090  H     0.61812   0.82372   0.58411   0.00000  Uiso   1.00
H1091  H     0.63952   0.80854   0.99177   0.00000  Uiso   1.00
H1092  H     0.38648   0.85332   0.91196   0.00000  Uiso   1.00
H1093  H     0.42652   0.86341   0.54943   0.00000  Uiso   1.00
H1094  H     0.36640   0.87056   0.50313   0.00000  Uiso   1.00
H1095  H     0.54901   0.78898   0.87365   0.00000  Uiso   1.00
H1096  H     0.57514   0.96272   0.75278   0.00000  Uiso   1.00
H1097  H     0.45069   0.75898   0.63164   0.00000  Uiso   1.00
H1098  H     0.47170   0.75588   0.56256   0.00000  Uiso   1.00
H1099  H     0.36825   0.78624   0.62048   0.00000  Uiso   1.00
H1100  H     0.39219   0.77341   0.55356   0.00000  Uiso   1.00
H1101  H     0.57518   0.70398   0.75261   0.00000  Uiso   1.00
H1102  H     0.40284   0.69998   0.57702   0.00000  Uiso   1.00
H1103  H     0.34014   0.71712   0.60182   0.00000  Uiso   1.00
H1104  H     0.37803   0.71303   0.64460   0.00000  Uiso   1.00
H1105  H     0.42520   0.70398   0.74598   0.00000  Uiso   1.00
H1106  H     0.42513   0.96270   0.74626   0.00000  Uiso   1.00
H1107  H     0.61085   0.88773   0.79492   0.00000  Uiso   1.00
H1108  H     0.36454   0.88777   0.79478   0.00000  Uiso   1.00
H1109  H     0.38846   0.77797   0.70723   0.00000  Uiso   1.00
H1110  H     0.63516   0.77838   0.70628   0.00000  Uiso   1.00
H1111  H     0.61248   0.79185   0.91550   0.00000  Uiso   1.00
N1112  N     0.38265   0.83332   0.74999   0.00000  Uiso   1.00
N1113  N     0.61735   0.83335   0.75000   0.00000  Uiso   1.00
O1114  O     0.46042   0.89345   0.75001   0.00000  Uiso   1.00
O1115  O     0.53961   0.89346   0.75001   0.00000  Uiso   1.00
O1116  O     0.44108   0.83332   0.82549   0.00000  Uiso   1.00
O1117  O     0.52027   0.83333   0.82549   0.00000  Uiso   1.00
O1118  O     0.46039   0.77321   0.75000   0.00000  Uiso   1.00
O1119  O     0.53958   0.77322   0.75000   0.00000  Uiso   1.00
O1120  O     0.47973   0.83334   0.67451   0.00000  Uiso   1.00
O1121  O     0.55892   0.83335   0.67451   0.00000  Uiso   1.00
O1122  O     0.45518   0.81551   0.59634   0.00000  Uiso   1.00
C1123  C     0.83336   0.91266   0.74993   0.00000  Uiso   1.00
C1124  C     0.79301   0.83108   0.90637   0.00000  Uiso   1.00
C1125  C     0.87558   0.97873   0.75129   0.00000  Uiso   1.00
C1126  C     0.80755   0.83122   0.84976   0.00000  Uiso   1.00
C1127  C     0.87561   0.68797   0.75119   0.00000  Uiso   1.00
C1128  C     0.83347   0.70941   0.74948   0.00000  Uiso   1.00
C1129  C     0.79140   0.68796   0.74756   0.00000  Uiso   1.00
C1130  C     0.79136   0.97872   0.74770   0.00000  Uiso   1.00
C1131  C     0.83343   0.95727   0.74966   0.00000  Uiso   1.00
C1132  C     0.96837   0.86358   0.77485   0.00000  Uiso   1.00
C1133  C     0.68468   0.86360   0.77478   0.00000  Uiso   1.00
C1134  C     0.81463   0.83170   0.98743   0.00000  Uiso   1.00
C1135  C     0.69802   0.80269   0.72604   0.00000  Uiso   1.00
C1136  C     0.98181   0.80281   0.72579   0.00000  Uiso   1.00
C1137  C     0.83338   0.75401   0.74978   0.00000  Uiso   1.00
C1138  C     0.85917   0.83150   0.65023   0.00000  Uiso   1.00
C1139  C     0.93499   0.81480   0.51267   0.00000  Uiso   1.00
C1140  C     0.87326   0.82676   0.59398   0.00000  Uiso   1.00
C1141  C     0.74635   0.84637   0.93241   0.00000  Uiso   1.00
C1142  C     0.73475   0.85650   0.98417   0.00000  Uiso   1.00
C1143  C     0.76909   0.85099   0.51088   0.00000  Uiso   1.00
C1144  C     0.77962   0.77261   0.59568   0.00000  Uiso   1.00
C1145  C     0.82691   0.82161   0.93443   0.00000  Uiso   1.00
C1146  C     0.72737   0.76565   0.59285   0.00000  Uiso   1.00
C1147  C     0.71125   0.72111   0.60484   0.00000  Uiso   1.00
C1148  C     0.84959   0.82452   0.51463   0.00000  Uiso   1.00
C1149  C     0.89855   0.81490   0.98730   0.00000  Uiso   1.00
C1150  C     0.90955   0.80300   0.93593   0.00000  Uiso   1.00
C1151  C     0.87313   0.80323   0.91117   0.00000  Uiso   1.00
C1152  C     0.83657   0.82379   0.56864   0.00000  Uiso   1.00
C1153  C     0.92266   0.82288   0.56537   0.00000  Uiso   1.00
Cu1154 Cu    0.78645   0.83333   0.75000   0.00000  Uiso   1.00
Cu1155 Cu    0.88022   0.83334   0.75000   0.00000  Uiso   1.00
H1156  H     0.95145   0.82372   0.58411   0.00000  Uiso   1.00
H1157  H     0.97285   0.80854   0.99177   0.00000  Uiso   1.00
H1158  H     0.71981   0.85332   0.91196   0.00000  Uiso   1.00
H1159  H     0.75985   0.86341   0.54943   0.00000  Uiso   1.00
H1160  H     0.69973   0.87056   0.50313   0.00000  Uiso   1.00
H1161  H     0.88234   0.78898   0.87365   0.00000  Uiso   1.00
H1162  H     0.90847   0.96272   0.75278   0.00000  Uiso   1.00
H1163  H     0.78402   0.75898   0.63164   0.00000  Uiso   1.00
H1164  H     0.80503   0.75588   0.56256   0.00000  Uiso   1.00
H1165  H     0.70158   0.78624   0.62048   0.00000  Uiso   1.00
H1166  H     0.72552   0.77341   0.55356   0.00000  Uiso   1.00
H1167  H     0.90852   0.70398   0.75261   0.00000  Uiso   1.00
H1168  H     0.73618   0.69998   0.57702   0.00000  Uiso   1.00
H1169  H     0.67348   0.71712   0.60182   0.00000  Uiso   1.00
H1170  H     0.71137   0.71303   0.64460   0.00000  Uiso   1.00
H1171  H     0.75854   0.70398   0.74598   0.00000  Uiso   1.00
H1172  H     0.75846   0.96270   0.74626   0.00000  Uiso   1.00
H1173  H     0.94418   0.88773   0.79492   0.00000  Uiso   1.00
H1174  H     0.69788   0.88777   0.79478   0.00000  Uiso   1.00
H1175  H     0.72179   0.77797   0.70723   0.00000  Uiso   1.00
H1176  H     0.96849   0.77838   0.70628   0.00000  Uiso   1.00
H1177  H     0.94581   0.79185   0.91550   0.00000  Uiso   1.00
N1178  N     0.71598   0.83332   0.74999   0.00000  Uiso   1.00
N1179  N     0.95069   0.83335   0.75000   0.00000  Uiso   1.00
O1180  O     0.79375   0.89345   0.75001   0.00000  Uiso   1.00
O1181  O     0.87294   0.89346   0.75001   0.00000  Uiso   1.00
O1182  O     0.77441   0.83332   0.82549   0.00000  Uiso   1.00
O1183  O     0.85360   0.83333   0.82549   0.00000  Uiso   1.00
O1184  O     0.79373   0.77321   0.75000   0.00000  Uiso   1.00
O1185  O     0.87292   0.77322   0.75000   0.00000  Uiso   1.00
O1186  O     0.81306   0.83334   0.67451   0.00000  Uiso   1.00
O1187  O     0.89225   0.83335   0.67451   0.00000  Uiso   1.00
O1188  O     0.78852   0.81551   0.59634   0.00000  Uiso   1.00
loop_
_geom_bond_atom_site_label_1
_geom_bond_atom_site_label_2
_geom_bond_distance
_geom_bond_site_symmetry_2
_ccdc_geom_bond_type
C1     O59     1.290   .     A
C1     C9      1.450   .     S
C1     O58     1.290   .     A
C2     C4      1.470   .     S
C2     C19     1.404   .     A
C2     C23     1.426   .     A
C3     C9      1.401   .     A
C3     H40     1.083   .     S
C3     C203    1.383   .     S
C4     O61     1.289   .     A
C4     O60     1.300   .     A
C5     C6      1.401   .     A
C5     H45     1.083   .     S
C5     C399    1.383   1_545 S
C6     C7      1.401   .     A
C6     C15     1.449   .     S
C7     H49     1.083   .     S
C7     C404    1.383   1_545 S
C8     H50     1.083   .     S
C8     C9      1.401   .     A
C8     C205    1.383   .     S
C10    H51     1.081   .     S
C10    N57     1.367   .     A
C10    C77     1.415   .     S
C11    H52     1.081   .     S
C11    N56     1.367   .     A
C11    C142    1.415   1_455 S
C12    C23     1.416   .     A
C12    C615    1.416   .     S
C12    C620    1.420   .     S
C13    N56     1.366   .     A
C13    H53     1.079   .     S
C13    C146    1.414   1_455 S
C14    H54     1.081   .     S
C14    N57     1.366   .     A
C14    C79     1.414   .     S
C15    O62     1.290   .     A
C15    O63     1.290   .     A
C16    O64     1.290   .     A
C16    O65     1.298   .     A
C16    C18     1.469   .     S
C17    C31     1.394   .     A
C17    C621    1.402   1_554 S
C17    H629    1.084   1_554 S
C18    C30     1.411   .     A
C18    C31     1.403   .     A
C19    C20     1.385   .     A
C19    H36     1.083   .     S
C20    C615    1.387   .     S
C20    H632    1.083   .     S
C21    H37     1.079   .     S
C21    C614    1.387   1_554 S
C21    C606    1.416   1_554 S
C22    H42     1.118   .     S
C22    C24     1.530   .     S
C22    H41     1.111   .     S
C22    O66     1.418   .     S
C23    C29     1.418   .     A
C24    H44     1.111   .     S
C24    C25     1.525   .     S
C24    H43     1.109   .     S
C25    H47     1.111   .     S
C25    H48     1.111   .     S
C25    H46     1.111   .     S
C26    C30     1.403   .     A
C26    C606    1.420   1_554 S
C26    C621    1.413   1_554 S
C27    C28     1.391   .     A
C27    C611    1.402   .     S
C27    C620    1.413   .     S
C28    C29     1.390   .     A
C28    H55     1.084   .     S
C29    H39     1.078   .     S
C30    O66     1.385   .     S
C31    H34     1.083   .     S
Cu32   O58     1.965   .     S
Cu32   Cu33    2.673   .     S
Cu32   O62     1.965   .     S
Cu32   O60     1.976   .     S
Cu32   O64     1.967   .     S
Cu32   N56     2.009   .     S
Cu33   O63     1.965   .     S
Cu33   O59     1.965   .     S
Cu33   O61     1.967   .     S
Cu33   O65     1.976   .     S
Cu33   N57     2.009   .     S
H35    C611    1.084   .     S
H38    C614    1.083   1_554 S
C67    O125    1.290   .     A
C67    C75     1.450   .     S
C67    O124    1.290   .     A
C68    C70     1.470   .     S
C68    C85     1.404   .     A
C68    C89     1.426   .     A
C69    C75     1.401   .     A
C69    H106    1.083   .     S
C69    C269    1.383   .     S
C70    O127    1.289   .     A
C70    O126    1.300   .     A
C71    C72     1.401   .     A
C71    H111    1.083   .     S
C71    C465    1.383   1_545 S
C72    C73     1.401   .     A
C72    C81     1.449   .     S
C73    H115    1.083   .     S
C73    C470    1.383   1_545 S
C74    H116    1.083   .     S
C74    C75     1.401   .     A
C74    C271    1.383   .     S
C76    H117    1.081   .     S
C76    N123    1.367   .     A
C76    C143    1.415   .     S
C77    H118    1.081   .     S
C77    N122    1.367   .     A
C78    C89     1.416   .     A
C78    C681    1.416   .     S
C78    C686    1.420   .     S
C79    N122    1.366   .     A
C79    H119    1.079   .     S
C80    H120    1.081   .     S
C80    N123    1.366   .     A
C80    C145    1.414   .     S
C81    O128    1.290   .     A
C81    O129    1.290   .     A
C82    O130    1.290   .     A
C82    O131    1.298   .     A
C82    C84     1.469   .     S
C83    C97     1.394   .     A
C83    C687    1.402   1_554 S
C83    H695    1.084   1_554 S
C84    C96     1.411   .     A
C84    C97     1.403   .     A
C85    C86     1.385   .     A
C85    H102    1.083   .     S
C86    C681    1.387   .     S
C86    H698    1.083   .     S
C87    H103    1.079   .     S
C87    C680    1.387   1_554 S
C87    C672    1.416   1_554 S
C88    H108    1.118   .     S
C88    C90     1.530   .     S
C88    H107    1.111   .     S
C88    O132    1.418   .     S
C89    C95     1.418   .     A
C90    H110    1.111   .     S
C90    C91     1.525   .     S
C90    H109    1.109   .     S
C91    H113    1.111   .     S
C91    H114    1.111   .     S
C91    H112    1.111   .     S
C92    C96     1.403   .     A
C92    C672    1.420   1_554 S
C92    C687    1.413   1_554 S
C93    C94     1.391   .     A
C93    C677    1.402   .     S
C93    C686    1.413   .     S
C94    C95     1.390   .     A
C94    H121    1.084   .     S
C95    H105    1.078   .     S
C96    O132    1.385   .     S
C97    H100    1.083   .     S
Cu98   O124    1.965   .     S
Cu98   Cu99    2.673   .     S
Cu98   O128    1.965   .     S
Cu98   O126    1.976   .     S
Cu98   O130    1.967   .     S
Cu98   N122    2.009   .     S
Cu99   O129    1.965   .     S
Cu99   O125    1.965   .     S
Cu99   O127    1.967   .     S
Cu99   O131    1.976   .     S
Cu99   N123    2.009   .     S
H101   C677    1.084   .     S
H104   C680    1.083   1_554 S
C133   O191    1.290   .     A
C133   C141    1.450   .     S
C133   O190    1.290   .     A
C134   C136    1.470   .     S
C134   C151    1.404   .     A
C134   C155    1.426   .     A
C135   C141    1.401   .     A
C135   H172    1.083   .     S
C135   C335    1.383   .     S
C136   O193    1.289   .     A
C136   O192    1.300   .     A
C137   C138    1.401   .     A
C137   H177    1.083   .     S
C137   C531    1.383   1_545 S
C138   C139    1.401   .     A
C138   C147    1.449   .     S
C139   H181    1.083   .     S
C139   C536    1.383   1_545 S
C140   H182    1.083   .     S
C140   C141    1.401   .     A
C140   C337    1.383   .     S
C142   H183    1.081   .     S
C142   N189    1.367   .     A
C142   C11     1.415   1_655 S
C143   H184    1.081   .     S
C143   N188    1.367   .     A
C144   C155    1.416   .     A
C144   C747    1.416   .     S
C144   C752    1.420   .     S
C145   N188    1.366   .     A
C145   H185    1.079   .     S
C146   H186    1.081   .     S
C146   N189    1.366   .     A
C146   C13     1.414   1_655 S
C147   O194    1.290   .     A
C147   O195    1.290   .     A
C148   O196    1.290   .     A
C148   O197    1.298   .     A
C148   C150    1.469   .     S
C149   C163    1.394   .     A
C149   C753    1.402   1_554 S
C149   H761    1.084   1_554 S
C150   C162    1.411   .     A
C150   C163    1.403   .     A
C151   C152    1.385   .     A
C151   H168    1.083   .     S
C152   C747    1.387   .     S
C152   H764    1.083   .     S
C153   H169    1.079   .     S
C153   C746    1.387   1_554 S
C153   C738    1.416   1_554 S
C154   H174    1.118   .     S
C154   C156    1.530   .     S
C154   H173    1.111   .     S
C154   O198    1.418   .     S
C155   C161    1.418   .     A
C156   H176    1.111   .     S
C156   C157    1.525   .     S
C156   H175    1.109   .     S
C157   H179    1.111   .     S
C157   H180    1.111   .     S
C157   H178    1.111   .     S
C158   C162    1.403   .     A
C158   C738    1.420   1_554 S
C158   C753    1.413   1_554 S
C159   C160    1.391   .     A
C159   C743    1.402   .     S
C159   C752    1.413   .     S
C160   C161    1.390   .     A
C160   H187    1.084   .     S
C161   H171    1.078   .     S
C162   O198    1.385   .     S
C163   H166    1.083   .     S
Cu164  O190    1.965   .     S
Cu164  Cu165   2.673   .     S
Cu164  O194    1.965   .     S
Cu164  O192    1.976   .     S
Cu164  O196    1.967   .     S
Cu164  N188    2.009   .     S
Cu165  O195    1.965   .     S
Cu165  O191    1.965   .     S
Cu165  O193    1.967   .     S
Cu165  O197    1.976   .     S
Cu165  N189    2.009   .     S
H167   C743    1.084   .     S
H170   C746    1.083   1_554 S
C199   O257    1.290   .     A
C199   C207    1.450   .     S
C199   O256    1.290   .     A
C200   C202    1.470   .     S
C200   C217    1.404   .     A
C200   C221    1.426   .     A
C201   C207    1.401   .     A
C201   H238    1.083   .     S
C201   C401    1.383   .     S
C202   O259    1.289   .     A
C202   O258    1.300   .     A
C203   C204    1.401   .     A
C203   H243    1.083   .     S
C204   C205    1.401   .     A
C204   C213    1.449   .     S
C205   H247    1.083   .     S
C206   H248    1.083   .     S
C206   C207    1.401   .     A
C206   C403    1.383   .     S
C208   H249    1.081   .     S
C208   N255    1.367   .     A
C208   C275    1.415   .     S
C209   H250    1.081   .     S
C209   N254    1.367   .     A
C209   C340    1.415   1_455 S
C210   C221    1.416   .     A
C210   C813    1.416   .     S
C210   C818    1.420   .     S
C211   N254    1.366   .     A
C211   H251    1.079   .     S
C211   C344    1.414   1_455 S
C212   H252    1.081   .     S
C212   N255    1.366   .     A
C212   C277    1.414   .     S
C213   O260    1.290   .     A
C213   O261    1.290   .     A
C214   O262    1.290   .     A
C214   O263    1.298   .     A
C214   C216    1.469   .     S
C215   C229    1.394   .     A
C215   C819    1.402   1_554 S
C215   H827    1.084   1_554 S
C216   C228    1.411   .     A
C216   C229    1.403   .     A
C217   C218    1.385   .     A
C217   H234    1.083   .     S
C218   C813    1.387   .     S
C218   H830    1.083   .     S
C219   H235    1.079   .     S
C219   C812    1.387   1_554 S
C219   C804    1.416   1_554 S
C220   H240    1.118   .     S
C220   C222    1.530   .     S
C220   H239    1.111   .     S
C220   O264    1.418   .     S
C221   C227    1.418   .     A
C222   H242    1.111   .     S
C222   C223    1.525   .     S
C222   H241    1.109   .     S
C223   H245    1.111   .     S
C223   H246    1.111   .     S
C223   H244    1.111   .     S
C224   C228    1.403   .     A
C224   C804    1.420   1_554 S
C224   C819    1.413   1_554 S
C225   C226    1.391   .     A
C225   C809    1.402   .     S
C225   C818    1.413   .     S
C226   C227    1.390   .     A
C226   H253    1.084   .     S
C227   H237    1.078   .     S
C228   O264    1.385   .     S
C229   H232    1.083   .     S
Cu230  O256    1.965   .     S
Cu230  Cu231   2.673   .     S
Cu230  O260    1.965   .     S
Cu230  O258    1.976   .     S
Cu230  O262    1.967   .     S
Cu230  N254    2.009   .     S
Cu231  O261    1.965   .     S
Cu231  O257    1.965   .     S
Cu231  O259    1.967   .     S
Cu231  O263    1.976   .     S
Cu231  N255    2.009   .     S
H233   C809    1.084   .     S
H236   C812    1.083   1_554 S
C265   O323    1.290   .     A
C265   C273    1.450   .     S
C265   O322    1.290   .     A
C266   C268    1.470   .     S
C266   C283    1.404   .     A
C266   C287    1.426   .     A
C267   C273    1.401   .     A
C267   H304    1.083   .     S
C267   C467    1.383   .     S
C268   O325    1.289   .     A
C268   O324    1.300   .     A
C269   C270    1.401   .     A
C269   H309    1.083   .     S
C270   C271    1.401   .     A
C270   C279    1.449   .     S
C271   H313    1.083   .     S
C272   H314    1.083   .     S
C272   C273    1.401   .     A
C272   C469    1.383   .     S
C274   H315    1.081   .     S
C274   N321    1.367   .     A
C274   C341    1.415   .     S
C275   H316    1.081   .     S
C275   N320    1.367   .     A
C276   C287    1.416   .     A
C276   C879    1.416   .     S
C276   C884    1.420   .     S
C277   N320    1.366   .     A
C277   H317    1.079   .     S
C278   H318    1.081   .     S
C278   N321    1.366   .     A
C278   C343    1.414   .     S
C279   O326    1.290   .     A
C279   O327    1.290   .     A
C280   O328    1.290   .     A
C280   O329    1.298   .     A
C280   C282    1.469   .     S
C281   C295    1.394   .     A
C281   C885    1.402   1_554 S
C281   H893    1.084   1_554 S
C282   C294    1.411   .     A
C282   C295    1.403   .     A
C283   C284    1.385   .     A
C283   H300    1.083   .     S
C284   C879    1.387   .     S
C284   H896    1.083   .     S
C285   H301    1.079   .     S
C285   C878    1.387   1_554 S
C285   C870    1.416   1_554 S
C286   H306    1.118   .     S
C286   C288    1.530   .     S
C286   H305    1.111   .     S
C286   O330    1.418   .     S
C287   C293    1.418   .     A
C288   H308    1.111   .     S
C288   C289    1.525   .     S
C288   H307    1.109   .     S
C289   H311    1.111   .     S
C289   H312    1.111   .     S
C289   H310    1.111   .     S
C290   C294    1.403   .     A
C290   C870    1.420   1_554 S
C290   C885    1.413   1_554 S
C291   C292    1.391   .     A
C291   C875    1.402   .     S
C291   C884    1.413   .     S
C292   C293    1.390   .     A
C292   H319    1.084   .     S
C293   H303    1.078   .     S
C294   O330    1.385   .     S
C295   H298    1.083   .     S
Cu296  O322    1.965   .     S
Cu296  Cu297   2.673   .     S
Cu296  O326    1.965   .     S
Cu296  O324    1.976   .     S
Cu296  O328    1.967   .     S
Cu296  N320    2.009   .     S
Cu297  O327    1.965   .     S
Cu297  O323    1.965   .     S
Cu297  O325    1.967   .     S
Cu297  O329    1.976   .     S
Cu297  N321    2.009   .     S
H299   C875    1.084   .     S
H302   C878    1.083   1_554 S
C331   O389    1.290   .     A
C331   C339    1.450   .     S
C331   O388    1.290   .     A
C332   C334    1.470   .     S
C332   C349    1.404   .     A
C332   C353    1.426   .     A
C333   C339    1.401   .     A
C333   H370    1.083   .     S
C333   C533    1.383   .     S
C334   O391    1.289   .     A
C334   O390    1.300   .     A
C335   C336    1.401   .     A
C335   H375    1.083   .     S
C336   C337    1.401   .     A
C336   C345    1.449   .     S
C337   H379    1.083   .     S
C338   H380    1.083   .     S
C338   C339    1.401   .     A
C338   C535    1.383   .     S
C340   H381    1.081   .     S
C340   N387    1.367   .     A
C340   C209    1.415   1_655 S
C341   H382    1.081   .     S
C341   N386    1.367   .     A
C342   C353    1.416   .     A
C342   C945    1.416   .     S
C342   C950    1.420   .     S
C343   N386    1.366   .     A
C343   H383    1.079   .     S
C344   H384    1.081   .     S
C344   N387    1.366   .     A
C344   C211    1.414   1_655 S
C345   O392    1.290   .     A
C345   O393    1.290   .     A
C346   O394    1.290   .     A
C346   O395    1.298   .     A
C346   C348    1.469   .     S
C347   C361    1.394   .     A
C347   C951    1.402   1_554 S
C347   H959    1.084   1_554 S
C348   C360    1.411   .     A
C348   C361    1.403   .     A
C349   C350    1.385   .     A
C349   H366    1.083   .     S
C350   C945    1.387   .     S
C350   H962    1.083   .     S
C351   H367    1.079   .     S
C351   C944    1.387   1_554 S
C351   C936    1.416   1_554 S
C352   H372    1.118   .     S
C352   C354    1.530   .     S
C352   H371    1.111   .     S
C352   O396    1.418   .     S
C353   C359    1.418   .     A
C354   H374    1.111   .     S
C354   C355    1.525   .     S
C354   H373    1.109   .     S
C355   H377    1.111   .     S
C355   H378    1.111   .     S
C355   H376    1.111   .     S
C356   C360    1.403   .     A
C356   C936    1.420   1_554 S
C356   C951    1.413   1_554 S
C357   C358    1.391   .     A
C357   C941    1.402   .     S
C357   C950    1.413   .     S
C358   C359    1.390   .     A
C358   H385    1.084   .     S
C359   H369    1.078   .     S
C360   O396    1.385   .     S
C361   H364    1.083   .     S
Cu362  O388    1.965   .     S
Cu362  Cu363   2.673   .     S
Cu362  O392    1.965   .     S
Cu362  O390    1.976   .     S
Cu362  O394    1.967   .     S
Cu362  N386    2.009   .     S
Cu363  O393    1.965   .     S
Cu363  O389    1.965   .     S
Cu363  O391    1.967   .     S
Cu363  O395    1.976   .     S
Cu363  N387    2.009   .     S
H365   C941    1.084   .     S
H368   C944    1.083   1_554 S
C397   O455    1.290   .     A
C397   C405    1.450   .     S
C397   O454    1.290   .     A
C398   C400    1.470   .     S
C398   C415    1.404   .     A
C398   C419    1.426   .     A
C399   C405    1.401   .     A
C399   H436    1.083   .     S
C399   C5      1.383   1_565 S
C400   O457    1.289   .     A
C400   O456    1.300   .     A
C401   C402    1.401   .     A
C401   H441    1.083   .     S
C402   C403    1.401   .     A
C402   C411    1.449   .     S
C403   H445    1.083   .     S
C404   H446    1.083   .     S
C404   C405    1.401   .     A
C404   C7      1.383   1_565 S
C406   H447    1.081   .     S
C406   N453    1.367   .     A
C406   C473    1.415   .     S
C407   H448    1.081   .     S
C407   N452    1.367   .     A
C407   C538    1.415   1_455 S
C408   C419    1.416   .     A
C408   C1011   1.416   .     S
C408   C1016   1.420   .     S
C409   N452    1.366   .     A
C409   H449    1.079   .     S
C409   C542    1.414   1_455 S
C410   H450    1.081   .     S
C410   N453    1.366   .     A
C410   C475    1.414   .     S
C411   O458    1.290   .     A
C411   O459    1.290   .     A
C412   O460    1.290   .     A
C412   O461    1.298   .     A
C412   C414    1.469   .     S
C413   C427    1.394   .     A
C413   C1017   1.402   1_554 S
C413   H1025   1.084   1_554 S
C414   C426    1.411   .     A
C414   C427    1.403   .     A
C415   C416    1.385   .     A
C415   H432    1.083   .     S
C416   C1011   1.387   .     S
C416   H1028   1.083   .     S
C417   H433    1.079   .     S
C417   C1010   1.387   1_554 S
C417   C1002   1.416   1_554 S
C418   H438    1.118   .     S
C418   C420    1.530   .     S
C418   H437    1.111   .     S
C418   O462    1.418   .     S
C419   C425    1.418   .     A
C420   H440    1.111   .     S
C420   C421    1.525   .     S
C420   H439    1.109   .     S
C421   H443    1.111   .     S
C421   H444    1.111   .     S
C421   H442    1.111   .     S
C422   C426    1.403   .     A
C422   C1002   1.420   1_554 S
C422   C1017   1.413   1_554 S
C423   C424    1.391   .     A
C423   C1007   1.402   .     S
C423   C1016   1.413   .     S
C424   C425    1.390   .     A
C424   H451    1.084   .     S
C425   H435    1.078   .     S
C426   O462    1.385   .     S
C427   H430    1.083   .     S
Cu428  O454    1.965   .     S
Cu428  Cu429   2.673   .     S
Cu428  O458    1.965   .     S
Cu428  O456    1.976   .     S
Cu428  O460    1.967   .     S
Cu428  N452    2.009   .     S
Cu429  O459    1.965   .     S
Cu429  O455    1.965   .     S
Cu429  O457    1.967   .     S
Cu429  O461    1.976   .     S
Cu429  N453    2.009   .     S
H431   C1007   1.084   .     S
H434   C1010   1.083   1_554 S
C463   O521    1.290   .     A
C463   C471    1.450   .     S
C463   O520    1.290   .     A
C464   C466    1.470   .     S
C464   C481    1.404   .     A
C464   C485    1.426   .     A
C465   C471    1.401   .     A
C465   H502    1.083   .     S
C465   C71     1.383   1_565 S
C466   O523    1.289   .     A
C466   O522    1.300   .     A
C467   C468    1.401   .     A
C467   H507    1.083   .     S
C468   C469    1.401   .     A
C468   C477    1.449   .     S
C469   H511    1.083   .     S
C470   H512    1.083   .     S
C470   C471    1.401   .     A
C470   C73     1.383   1_565 S
C472   H513    1.081   .     S
C472   N519    1.367   .     A
C472   C539    1.415   .     S
C473   H514    1.081   .     S
C473   N518    1.367   .     A
C474   C485    1.416   .     A
C474   C1077   1.416   .     S
C474   C1082   1.420   .     S
C475   N518    1.366   .     A
C475   H515    1.079   .     S
C476   H516    1.081   .     S
C476   N519    1.366   .     A
C476   C541    1.414   .     S
C477   O524    1.290   .     A
C477   O525    1.290   .     A
C478   O526    1.290   .     A
C478   O527    1.298   .     A
C478   C480    1.469   .     S
C479   C493    1.394   .     A
C479   C1083   1.402   1_554 S
C479   H1091   1.084   1_554 S
C480   C492    1.411   .     A
C480   C493    1.403   .     A
C481   C482    1.385   .     A
C481   H498    1.083   .     S
C482   C1077   1.387   .     S
C482   H1094   1.083   .     S
C483   H499    1.079   .     S
C483   C1076   1.387   1_554 S
C483   C1068   1.416   1_554 S
C484   H504    1.118   .     S
C484   C486    1.530   .     S
C484   H503    1.111   .     S
C484   O528    1.418   .     S
C485   C491    1.418   .     A
C486   H506    1.111   .     S
C486   C487    1.525   .     S
C486   H505    1.109   .     S
C487   H509    1.111   .     S
C487   H510    1.111   .     S
C487   H508    1.111   .     S
C488   C492    1.403   .     A
C488   C1068   1.420   1_554 S
C488   C1083   1.413   1_554 S
C489   C490    1.391   .     A
C489   C1073   1.402   .     S
C489   C1082   1.413   .     S
C490   C491    1.390   .     A
C490   H517    1.084   .     S
C491   H501    1.078   .     S
C492   O528    1.385   .     S
C493   H496    1.083   .     S
Cu494  O520    1.965   .     S
Cu494  Cu495   2.673   .     S
Cu494  O524    1.965   .     S
Cu494  O522    1.976   .     S
Cu494  O526    1.967   .     S
Cu494  N518    2.009   .     S
Cu495  O525    1.965   .     S
Cu495  O521    1.965   .     S
Cu495  O523    1.967   .     S
Cu495  O527    1.976   .     S
Cu495  N519    2.009   .     S
H497   C1073   1.084   .     S
H500   C1076   1.083   1_554 S
C529   O587    1.290   .     A
C529   C537    1.450   .     S
C529   O586    1.290   .     A
C530   C532    1.470   .     S
C530   C547    1.404   .     A
C530   C551    1.426   .     A
C531   C537    1.401   .     A
C531   H568    1.083   .     S
C531   C137    1.383   1_565 S
C532   O589    1.289   .     A
C532   O588    1.300   .     A
C533   C534    1.401   .     A
C533   H573    1.083   .     S
C534   C535    1.401   .     A
C534   C543    1.449   .     S
C535   H577    1.083   .     S
C536   H578    1.083   .     S
C536   C537    1.401   .     A
C536   C139    1.383   1_565 S
C538   H579    1.081   .     S
C538   N585    1.367   .     A
C538   C407    1.415   1_655 S
C539   H580    1.081   .     S
C539   N584    1.367   .     A
C540   C551    1.416   .     A
C540   C1143   1.416   .     S
C540   C1148   1.420   .     S
C541   N584    1.366   .     A
C541   H581    1.079   .     S
C542   H582    1.081   .     S
C542   N585    1.366   .     A
C542   C409    1.414   1_655 S
C543   O590    1.290   .     A
C543   O591    1.290   .     A
C544   O592    1.290   .     A
C544   O593    1.298   .     A
C544   C546    1.469   .     S
C545   C559    1.394   .     A
C545   C1149   1.402   1_554 S
C545   H1157   1.084   1_554 S
C546   C558    1.411   .     A
C546   C559    1.403   .     A
C547   C548    1.385   .     A
C547   H564    1.083   .     S
C548   C1143   1.387   .     S
C548   H1160   1.083   .     S
C549   H565    1.079   .     S
C549   C1142   1.387   1_554 S
C549   C1134   1.416   1_554 S
C550   H570    1.118   .     S
C550   C552    1.530   .     S
C550   H569    1.111   .     S
C550   O594    1.418   .     S
C551   C557    1.418   .     A
C552   H572    1.111   .     S
C552   C553    1.525   .     S
C552   H571    1.109   .     S
C553   H575    1.111   .     S
C553   H576    1.111   .     S
C553   H574    1.111   .     S
C554   C558    1.403   .     A
C554   C1134   1.420   1_554 S
C554   C1149   1.413   1_554 S
C555   C556    1.391   .     A
C555   C1139   1.402   .     S
C555   C1148   1.413   .     S
C556   C557    1.390   .     A
C556   H583    1.084   .     S
C557   H567    1.078   .     S
C558   O594    1.385   .     S
C559   H562    1.083   .     S
Cu560  O586    1.965   .     S
Cu560  Cu561   2.673   .     S
Cu560  O590    1.965   .     S
Cu560  O588    1.976   .     S
Cu560  O592    1.967   .     S
Cu560  N584    2.009   .     S
Cu561  O591    1.965   .     S
Cu561  O587    1.965   .     S
Cu561  O589    1.967   .     S
Cu561  O593    1.976   .     S
Cu561  N585    2.009   .     S
H563   C1139   1.084   .     S
H566   C1142   1.083   1_554 S
C595   O653    1.290   .     A
C595   C603    1.450   .     S
C595   O652    1.290   .     A
C596   C598    1.470   .     S
C596   C613    1.404   .     A
C596   C617    1.426   .     A
C597   C603    1.401   .     A
C597   H634    1.083   .     S
C597   C797    1.383   .     S
C598   O655    1.289   .     A
C598   O654    1.300   .     A
C599   C600    1.401   .     A
C599   H639    1.083   .     S
C599   C993    1.383   1_545 S
C600   C601    1.401   .     A
C600   C609    1.449   .     S
C601   H643    1.083   .     S
C601   C998    1.383   1_545 S
C602   H644    1.083   .     S
C602   C603    1.401   .     A
C602   C799    1.383   .     S
C604   H645    1.081   .     S
C604   N651    1.367   .     A
C604   C671    1.415   .     S
C605   H646    1.081   .     S
C605   N650    1.367   .     A
C605   C736    1.415   1_455 S
C606   C617    1.416   .     A
C606   C21     1.416   1_556 S
C606   C26     1.420   1_556 S
C607   N650    1.366   .     A
C607   H647    1.079   .     S
C607   C740    1.414   1_455 S
C608   H648    1.081   .     S
C608   N651    1.366   .     A
C608   C673    1.414   .     S
C609   O656    1.290   .     A
C609   O657    1.290   .     A
C610   O658    1.290   .     A
C610   O659    1.298   .     A
C610   C612    1.469   .     S
C611   C625    1.394   .     A
C612   C624    1.411   .     A
C612   C625    1.403   .     A
C613   C614    1.385   .     A
C613   H630    1.083   .     S
C614   C21     1.387   1_556 S
C614   H38     1.083   1_556 S
C615   H631    1.079   .     S
C616   H636    1.118   .     S
C616   C618    1.530   .     S
C616   H635    1.111   .     S
C616   O660    1.418   .     S
C617   C623    1.418   .     A
C618   H638    1.111   .     S
C618   C619    1.525   .     S
C618   H637    1.109   .     S
C619   H641    1.111   .     S
C619   H642    1.111   .     S
C619   H640    1.111   .     S
C620   C624    1.403   .     A
C621   C622    1.391   .     A
C621   C17     1.402   1_556 S
C621   C26     1.413   1_556 S
C622   C623    1.390   .     A
C622   H649    1.084   .     S
C623   H633    1.078   .     S
C624   O660    1.385   .     S
C625   H628    1.083   .     S
Cu626  O652    1.965   .     S
Cu626  Cu627   2.673   .     S
Cu626  O656    1.965   .     S
Cu626  O654    1.976   .     S
Cu626  O658    1.967   .     S
Cu626  N650    2.009   .     S
Cu627  O657    1.965   .     S
Cu627  O653    1.965   .     S
Cu627  O655    1.967   .     S
Cu627  O659    1.976   .     S
Cu627  N651    2.009   .     S
H629   C17     1.084   1_556 S
C661   O719    1.290   .     A
C661   C669    1.450   .     S
C661   O718    1.290   .     A
C662   C664    1.470   .     S
C662   C679    1.404   .     A
C662   C683    1.426   .     A
C663   C669    1.401   .     A
C663   H700    1.083   .     S
C663   C863    1.383   .     S
C664   O721    1.289   .     A
C664   O720    1.300   .     A
C665   C666    1.401   .     A
C665   H705    1.083   .     S
C665   C1059   1.383   1_545 S
C666   C667    1.401   .     A
C666   C675    1.449   .     S
C667   H709    1.083   .     S
C667   C1064   1.383   1_545 S
C668   H710    1.083   .     S
C668   C669    1.401   .     A
C668   C865    1.383   .     S
C670   H711    1.081   .     S
C670   N717    1.367   .     A
C670   C737    1.415   .     S
C671   H712    1.081   .     S
C671   N716    1.367   .     A
C672   C683    1.416   .     A
C672   C87     1.416   1_556 S
C672   C92     1.420   1_556 S
C673   N716    1.366   .     A
C673   H713    1.079   .     S
C674   H714    1.081   .     S
C674   N717    1.366   .     A
C674   C739    1.414   .     S
C675   O722    1.290   .     A
C675   O723    1.290   .     A
C676   O724    1.290   .     A
C676   O725    1.298   .     A
C676   C678    1.469   .     S
C677   C691    1.394   .     A
C678   C690    1.411   .     A
C678   C691    1.403   .     A
C679   C680    1.385   .     A
C679   H696    1.083   .     S
C680   C87     1.387   1_556 S
C680   H104    1.083   1_556 S
C681   H697    1.079   .     S
C682   H702    1.118   .     S
C682   C684    1.530   .     S
C682   H701    1.111   .     S
C682   O726    1.418   .     S
C683   C689    1.418   .     A
C684   H704    1.111   .     S
C684   C685    1.525   .     S
C684   H703    1.109   .     S
C685   H707    1.111   .     S
C685   H708    1.111   .     S
C685   H706    1.111   .     S
C686   C690    1.403   .     A
C687   C688    1.391   .     A
C687   C83     1.402   1_556 S
C687   C92     1.413   1_556 S
C688   C689    1.390   .     A
C688   H715    1.084   .     S
C689   H699    1.078   .     S
C690   O726    1.385   .     S
C691   H694    1.083   .     S
Cu692  O718    1.965   .     S
Cu692  Cu693   2.673   .     S
Cu692  O722    1.965   .     S
Cu692  O720    1.976   .     S
Cu692  O724    1.967   .     S
Cu692  N716    2.009   .     S
Cu693  O723    1.965   .     S
Cu693  O719    1.965   .     S
Cu693  O721    1.967   .     S
Cu693  O725    1.976   .     S
Cu693  N717    2.009   .     S
H695   C83     1.084   1_556 S
C727   O785    1.290   .     A
C727   C735    1.450   .     S
C727   O784    1.290   .     A
C728   C730    1.470   .     S
C728   C745    1.404   .     A
C728   C749    1.426   .     A
C729   C735    1.401   .     A
C729   H766    1.083   .     S
C729   C929    1.383   .     S
C730   O787    1.289   .     A
C730   O786    1.300   .     A
C731   C732    1.401   .     A
C731   H771    1.083   .     S
C731   C1125   1.383   1_545 S
C732   C733    1.401   .     A
C732   C741    1.449   .     S
C733   H775    1.083   .     S
C733   C1130   1.383   1_545 S
C734   H776    1.083   .     S
C734   C735    1.401   .     A
C734   C931    1.383   .     S
C736   H777    1.081   .     S
C736   N783    1.367   .     A
C736   C605    1.415   1_655 S
C737   H778    1.081   .     S
C737   N782    1.367   .     A
C738   C749    1.416   .     A
C738   C153    1.416   1_556 S
C738   C158    1.420   1_556 S
C739   N782    1.366   .     A
C739   H779    1.079   .     S
C740   H780    1.081   .     S
C740   N783    1.366   .     A
C740   C607    1.414   1_655 S
C741   O788    1.290   .     A
C741   O789    1.290   .     A
C742   O790    1.290   .     A
C742   O791    1.298   .     A
C742   C744    1.469   .     S
C743   C757    1.394   .     A
C744   C756    1.411   .     A
C744   C757    1.403   .     A
C745   C746    1.385   .     A
C745   H762    1.083   .     S
C746   C153    1.387   1_556 S
C746   H170    1.083   1_556 S
C747   H763    1.079   .     S
C748   H768    1.118   .     S
C748   C750    1.530   .     S
C748   H767    1.111   .     S
C748   O792    1.418   .     S
C749   C755    1.418   .     A
C750   H770    1.111   .     S
C750   C751    1.525   .     S
C750   H769    1.109   .     S
C751   H773    1.111   .     S
C751   H774    1.111   .     S
C751   H772    1.111   .     S
C752   C756    1.403   .     A
C753   C754    1.391   .     A
C753   C149    1.402   1_556 S
C753   C158    1.413   1_556 S
C754   C755    1.390   .     A
C754   H781    1.084   .     S
C755   H765    1.078   .     S
C756   O792    1.385   .     S
C757   H760    1.083   .     S
Cu758  O784    1.965   .     S
Cu758  Cu759   2.673   .     S
Cu758  O788    1.965   .     S
Cu758  O786    1.976   .     S
Cu758  O790    1.967   .     S
Cu758  N782    2.009   .     S
Cu759  O789    1.965   .     S
Cu759  O785    1.965   .     S
Cu759  O787    1.967   .     S
Cu759  O791    1.976   .     S
Cu759  N783    2.009   .     S
H761   C149    1.084   1_556 S
C793   O851    1.290   .     A
C793   C801    1.450   .     S
C793   O850    1.290   .     A
C794   C796    1.470   .     S
C794   C811    1.404   .     A
C794   C815    1.426   .     A
C795   C801    1.401   .     A
C795   H832    1.083   .     S
C795   C995    1.383   .     S
C796   O853    1.289   .     A
C796   O852    1.300   .     A
C797   C798    1.401   .     A
C797   H837    1.083   .     S
C798   C799    1.401   .     A
C798   C807    1.449   .     S
C799   H841    1.083   .     S
C800   H842    1.083   .     S
C800   C801    1.401   .     A
C800   C997    1.383   .     S
C802   H843    1.081   .     S
C802   N849    1.367   .     A
C802   C869    1.415   .     S
C803   H844    1.081   .     S
C803   N848    1.367   .     A
C803   C934    1.415   1_455 S
C804   C815    1.416   .     A
C804   C219    1.416   1_556 S
C804   C224    1.420   1_556 S
C805   N848    1.366   .     A
C805   H845    1.079   .     S
C805   C938    1.414   1_455 S
C806   H846    1.081   .     S
C806   N849    1.366   .     A
C806   C871    1.414   .     S
C807   O854    1.290   .     A
C807   O855    1.290   .     A
C808   O856    1.290   .     A
C808   O857    1.298   .     A
C808   C810    1.469   .     S
C809   C823    1.394   .     A
C810   C822    1.411   .     A
C810   C823    1.403   .     A
C811   C812    1.385   .     A
C811   H828    1.083   .     S
C812   C219    1.387   1_556 S
C812   H236    1.083   1_556 S
C813   H829    1.079   .     S
C814   H834    1.118   .     S
C814   C816    1.530   .     S
C814   H833    1.111   .     S
C814   O858    1.418   .     S
C815   C821    1.418   .     A
C816   H836    1.111   .     S
C816   C817    1.525   .     S
C816   H835    1.109   .     S
C817   H839    1.111   .     S
C817   H840    1.111   .     S
C817   H838    1.111   .     S
C818   C822    1.403   .     A
C819   C820    1.391   .     A
C819   C215    1.402   1_556 S
C819   C224    1.413   1_556 S
C820   C821    1.390   .     A
C820   H847    1.084   .     S
C821   H831    1.078   .     S
C822   O858    1.385   .     S
C823   H826    1.083   .     S
Cu824  O850    1.965   .     S
Cu824  Cu825   2.673   .     S
Cu824  O854    1.965   .     S
Cu824  O852    1.976   .     S
Cu824  O856    1.967   .     S
Cu824  N848    2.009   .     S
Cu825  O855    1.965   .     S
Cu825  O851    1.965   .     S
Cu825  O853    1.967   .     S
Cu825  O857    1.976   .     S
Cu825  N849    2.009   .     S
H827   C215    1.084   1_556 S
C859   O917    1.290   .     A
C859   C867    1.450   .     S
C859   O916    1.290   .     A
C860   C862    1.470   .     S
C860   C877    1.404   .     A
C860   C881    1.426   .     A
C861   C867    1.401   .     A
C861   H898    1.083   .     S
C861   C1061   1.383   .     S
C862   O919    1.289   .     A
C862   O918    1.300   .     A
C863   C864    1.401   .     A
C863   H903    1.083   .     S
C864   C865    1.401   .     A
C864   C873    1.449   .     S
C865   H907    1.083   .     S
C866   H908    1.083   .     S
C866   C867    1.401   .     A
C866   C1063   1.383   .     S
C868   H909    1.081   .     S
C868   N915    1.367   .     A
C868   C935    1.415   .     S
C869   H910    1.081   .     S
C869   N914    1.367   .     A
C870   C881    1.416   .     A
C870   C285    1.416   1_556 S
C870   C290    1.420   1_556 S
C871   N914    1.366   .     A
C871   H911    1.079   .     S
C872   H912    1.081   .     S
C872   N915    1.366   .     A
C872   C937    1.414   .     S
C873   O920    1.290   .     A
C873   O921    1.290   .     A
C874   O922    1.290   .     A
C874   O923    1.298   .     A
C874   C876    1.469   .     S
C875   C889    1.394   .     A
C876   C888    1.411   .     A
C876   C889    1.403   .     A
C877   C878    1.385   .     A
C877   H894    1.083   .     S
C878   C285    1.387   1_556 S
C878   H302    1.083   1_556 S
C879   H895    1.079   .     S
C880   H900    1.118   .     S
C880   C882    1.530   .     S
C880   H899    1.111   .     S
C880   O924    1.418   .     S
C881   C887    1.418   .     A
C882   H902    1.111   .     S
C882   C883    1.525   .     S
C882   H901    1.109   .     S
C883   H905    1.111   .     S
C883   H906    1.111   .     S
C883   H904    1.111   .     S
C884   C888    1.403   .     A
C885   C886    1.391   .     A
C885   C281    1.402   1_556 S
C885   C290    1.413   1_556 S
C886   C887    1.390   .     A
C886   H913    1.084   .     S
C887   H897    1.078   .     S
C888   O924    1.385   .     S
C889   H892    1.083   .     S
Cu890  O916    1.965   .     S
Cu890  Cu891   2.673   .     S
Cu890  O920    1.965   .     S
Cu890  O918    1.976   .     S
Cu890  O922    1.967   .     S
Cu890  N914    2.009   .     S
Cu891  O921    1.965   .     S
Cu891  O917    1.965   .     S
Cu891  O919    1.967   .     S
Cu891  O923    1.976   .     S
Cu891  N915    2.009   .     S
H893   C281    1.084   1_556 S
C925   O983    1.290   .     A
C925   C933    1.450   .     S
C925   O982    1.290   .     A
C926   C928    1.470   .     S
C926   C943    1.404   .     A
C926   C947    1.426   .     A
C927   C933    1.401   .     A
C927   H964    1.083   .     S
C927   C1127   1.383   .     S
C928   O985    1.289   .     A
C928   O984    1.300   .     A
C929   C930    1.401   .     A
C929   H969    1.083   .     S
C930   C931    1.401   .     A
C930   C939    1.449   .     S
C931   H973    1.083   .     S
C932   H974    1.083   .     S
C932   C933    1.401   .     A
C932   C1129   1.383   .     S
C934   H975    1.081   .     S
C934   N981    1.367   .     A
C934   C803    1.415   1_655 S
C935   H976    1.081   .     S
C935   N980    1.367   .     A
C936   C947    1.416   .     A
C936   C351    1.416   1_556 S
C936   C356    1.420   1_556 S
C937   N980    1.366   .     A
C937   H977    1.079   .     S
C938   H978    1.081   .     S
C938   N981    1.366   .     A
C938   C805    1.414   1_655 S
C939   O986    1.290   .     A
C939   O987    1.290   .     A
C940   O988    1.290   .     A
C940   O989    1.298   .     A
C940   C942    1.469   .     S
C941   C955    1.394   .     A
C942   C954    1.411   .     A
C942   C955    1.403   .     A
C943   C944    1.385   .     A
C943   H960    1.083   .     S
C944   C351    1.387   1_556 S
C944   H368    1.083   1_556 S
C945   H961    1.079   .     S
C946   H966    1.118   .     S
C946   C948    1.530   .     S
C946   H965    1.111   .     S
C946   O990    1.418   .     S
C947   C953    1.418   .     A
C948   H968    1.111   .     S
C948   C949    1.525   .     S
C948   H967    1.109   .     S
C949   H971    1.111   .     S
C949   H972    1.111   .     S
C949   H970    1.111   .     S
C950   C954    1.403   .     A
C951   C952    1.391   .     A
C951   C347    1.402   1_556 S
C951   C356    1.413   1_556 S
C952   C953    1.390   .     A
C952   H979    1.084   .     S
C953   H963    1.078   .     S
C954   O990    1.385   .     S
C955   H958    1.083   .     S
Cu956  O982    1.965   .     S
Cu956  Cu957   2.673   .     S
Cu956  O986    1.965   .     S
Cu956  O984    1.976   .     S
Cu956  O988    1.967   .     S
Cu956  N980    2.009   .     S
Cu957  O987    1.965   .     S
Cu957  O983    1.965   .     S
Cu957  O985    1.967   .     S
Cu957  O989    1.976   .     S
Cu957  N981    2.009   .     S
H959   C347    1.084   1_556 S
C991   O1049   1.290   .     A
C991   C999    1.450   .     S
C991   O1048   1.290   .     A
C992   C994    1.470   .     S
C992   C1009   1.404   .     A
C992   C1013   1.426   .     A
C993   C999    1.401   .     A
C993   H1030   1.083   .     S
C993   C599    1.383   1_565 S
C994   O1051   1.289   .     A
C994   O1050   1.300   .     A
C995   C996    1.401   .     A
C995   H1035   1.083   .     S
C996   C997    1.401   .     A
C996   C1005   1.449   .     S
C997   H1039   1.083   .     S
C998   H1040   1.083   .     S
C998   C999    1.401   .     A
C998   C601    1.383   1_565 S
C1000  H1041   1.081   .     S
C1000  N1047   1.367   .     A
C1000  C1067   1.415   .     S
C1001  H1042   1.081   .     S
C1001  N1046   1.367   .     A
C1001  C1132   1.415   1_455 S
C1002  C1013   1.416   .     A
C1002  C417    1.416   1_556 S
C1002  C422    1.420   1_556 S
C1003  N1046   1.366   .     A
C1003  H1043   1.079   .     S
C1003  C1136   1.414   1_455 S
C1004  H1044   1.081   .     S
C1004  N1047   1.366   .     A
C1004  C1069   1.414   .     S
C1005  O1052   1.290   .     A
C1005  O1053   1.290   .     A
C1006  O1054   1.290   .     A
C1006  O1055   1.298   .     A
C1006  C1008   1.469   .     S
C1007  C1021   1.394   .     A
C1008  C1020   1.411   .     A
C1008  C1021   1.403   .     A
C1009  C1010   1.385   .     A
C1009  H1026   1.083   .     S
C1010  C417    1.387   1_556 S
C1010  H434    1.083   1_556 S
C1011  H1027   1.079   .     S
C1012  H1032   1.118   .     S
C1012  C1014   1.530   .     S
C1012  H1031   1.111   .     S
C1012  O1056   1.418   .     S
C1013  C1019   1.418   .     A
C1014  H1034   1.111   .     S
C1014  C1015   1.525   .     S
C1014  H1033   1.109   .     S
C1015  H1037   1.111   .     S
C1015  H1038   1.111   .     S
C1015  H1036   1.111   .     S
C1016  C1020   1.403   .     A
C1017  C1018   1.391   .     A
C1017  C413    1.402   1_556 S
C1017  C422    1.413   1_556 S
C1018  C1019   1.390   .     A
C1018  H1045   1.084   .     S
C1019  H1029   1.078   .     S
C1020  O1056   1.385   .     S
C1021  H1024   1.083   .     S
Cu1022 O1048   1.965   .     S
Cu1022 Cu1023  2.673   .     S
Cu1022 O1052   1.965   .     S
Cu1022 O1050   1.976   .     S
Cu1022 O1054   1.967   .     S
Cu1022 N1046   2.009   .     S
Cu1023 O1053   1.965   .     S
Cu1023 O1049   1.965   .     S
Cu1023 O1051   1.967   .     S
Cu1023 O1055   1.976   .     S
Cu1023 N1047   2.009   .     S
H1025  C413    1.084   1_556 S
C1057  O1115   1.290   .     A
C1057  C1065   1.450   .     S
C1057  O1114   1.290   .     A
C1058  C1060   1.470   .     S
C1058  C1075   1.404   .     A
C1058  C1079   1.426   .     A
C1059  C1065   1.401   .     A
C1059  H1096   1.083   .     S
C1059  C665    1.383   1_565 S
C1060  O1117   1.289   .     A
C1060  O1116   1.300   .     A
C1061  C1062   1.401   .     A
C1061  H1101   1.083   .     S
C1062  C1063   1.401   .     A
C1062  C1071   1.449   .     S
C1063  H1105   1.083   .     S
C1064  H1106   1.083   .     S
C1064  C1065   1.401   .     A
C1064  C667    1.383   1_565 S
C1066  H1107   1.081   .     S
C1066  N1113   1.367   .     A
C1066  C1133   1.415   .     S
C1067  H1108   1.081   .     S
C1067  N1112   1.367   .     A
C1068  C1079   1.416   .     A
C1068  C483    1.416   1_556 S
C1068  C488    1.420   1_556 S
C1069  N1112   1.366   .     A
C1069  H1109   1.079   .     S
C1070  H1110   1.081   .     S
C1070  N1113   1.366   .     A
C1070  C1135   1.414   .     S
C1071  O1118   1.290   .     A
C1071  O1119   1.290   .     A
C1072  O1120   1.290   .     A
C1072  O1121   1.298   .     A
C1072  C1074   1.469   .     S
C1073  C1087   1.394   .     A
C1074  C1086   1.411   .     A
C1074  C1087   1.403   .     A
C1075  C1076   1.385   .     A
C1075  H1092   1.083   .     S
C1076  C483    1.387   1_556 S
C1076  H500    1.083   1_556 S
C1077  H1093   1.079   .     S
C1078  H1098   1.118   .     S
C1078  C1080   1.530   .     S
C1078  H1097   1.111   .     S
C1078  O1122   1.418   .     S
C1079  C1085   1.418   .     A
C1080  H1100   1.111   .     S
C1080  C1081   1.525   .     S
C1080  H1099   1.109   .     S
C1081  H1103   1.111   .     S
C1081  H1104   1.111   .     S
C1081  H1102   1.111   .     S
C1082  C1086   1.403   .     A
C1083  C1084   1.391   .     A
C1083  C479    1.402   1_556 S
C1083  C488    1.413   1_556 S
C1084  C1085   1.390   .     A
C1084  H1111   1.084   .     S
C1085  H1095   1.078   .     S
C1086  O1122   1.385   .     S
C1087  H1090   1.083   .     S
Cu1088 O1114   1.965   .     S
Cu1088 Cu1089  2.673   .     S
Cu1088 O1118   1.965   .     S
Cu1088 O1116   1.976   .     S
Cu1088 O1120   1.967   .     S
Cu1088 N1112   2.009   .     S
Cu1089 O1119   1.965   .     S
Cu1089 O1115   1.965   .     S
Cu1089 O1117   1.967   .     S
Cu1089 O1121   1.976   .     S
Cu1089 N1113   2.009   .     S
H1091  C479    1.084   1_556 S
C1123  O1181   1.290   .     A
C1123  C1131   1.450   .     S
C1123  O1180   1.290   .     A
C1124  C1126   1.470   .     S
C1124  C1141   1.404   .     A
C1124  C1145   1.426   .     A
C1125  C1131   1.401   .     A
C1125  H1162   1.083   .     S
C1125  C731    1.383   1_565 S
C1126  O1183   1.289   .     A
C1126  O1182   1.300   .     A
C1127  C1128   1.401   .     A
C1127  H1167   1.083   .     S
C1128  C1129   1.401   .     A
C1128  C1137   1.449   .     S
C1129  H1171   1.083   .     S
C1130  H1172   1.083   .     S
C1130  C1131   1.401   .     A
C1130  C733    1.383   1_565 S
C1132  H1173   1.081   .     S
C1132  N1179   1.367   .     A
C1132  C1001   1.415   1_655 S
C1133  H1174   1.081   .     S
C1133  N1178   1.367   .     A
C1134  C1145   1.416   .     A
C1134  C549    1.416   1_556 S
C1134  C554    1.420   1_556 S
C1135  N1178   1.366   .     A
C1135  H1175   1.079   .     S
C1136  H1176   1.081   .     S
C1136  N1179   1.366   .     A
C1136  C1003   1.414   1_655 S
C1137  O1184   1.290   .     A
C1137  O1185   1.290   .     A
C1138  O1186   1.290   .     A
C1138  O1187   1.298   .     A
C1138  C1140   1.469   .     S
C1139  C1153   1.394   .     A
C1140  C1152   1.411   .     A
C1140  C1153   1.403   .     A
C1141  C1142   1.385   .     A
C1141  H1158   1.083   .     S
C1142  C549    1.387   1_556 S
C1142  H566    1.083   1_556 S
C1143  H1159   1.079   .     S
C1144  H1164   1.118   .     S
C1144  C1146   1.530   .     S
C1144  H1163   1.111   .     S
C1144  O1188   1.418   .     S
C1145  C1151   1.418   .     A
C1146  H1166   1.111   .     S
C1146  C1147   1.525   .     S
C1146  H1165   1.109   .     S
C1147  H1169   1.111   .     S
C1147  H1170   1.111   .     S
C1147  H1168   1.111   .     S
C1148  C1152   1.403   .     A
C1149  C1150   1.391   .     A
C1149  C545    1.402   1_556 S
C1149  C554    1.413   1_556 S
C1150  C1151   1.390   .     A
C1150  H1177   1.084   .     S
C1151  H1161   1.078   .     S
C1152  O1188   1.385   .     S
C1153  H1156   1.083   .     S
Cu1154 O1180   1.965   .     S
Cu1154 Cu1155  2.673   .     S
Cu1154 O1184   1.965   .     S
Cu1154 O1182   1.976   .     S
Cu1154 O1186   1.967   .     S
Cu1154 N1178   2.009   .     S
Cu1155 O1185   1.965   .     S
Cu1155 O1181   1.965   .     S
Cu1155 O1183   1.967   .     S
Cu1155 O1187   1.976   .     S
Cu1155 N1179   2.009   .     S
H1157  C545    1.084   1_556 S
