data_str_m2_o1_o10_pcu_sym.207
_audit_creation_date              2020-01-03
_audit_creation_method            'Materials Studio'
_symmetry_space_group_name_H-M    'P1'
_symmetry_Int_Tables_number       1
_symmetry_cell_setting            triclinic
loop_
_symmetry_equiv_pos_as_xyz
  x,y,z
_cell_length_a                    26.1699
_cell_length_b                    32.4246
_cell_length_c                    28.7874
_cell_angle_alpha                 89.1990
_cell_angle_beta                  97.4427
_cell_angle_gamma                 91.4180
loop_
_atom_site_label
_atom_site_type_symbol
_atom_site_fract_x
_atom_site_fract_y
_atom_site_fract_z
_atom_site_U_iso_or_equiv
_atom_site_adp_type
_atom_site_occupancy
C1     C     0.16650   0.08745   0.16684   0.00000  Uiso   1.00
C2     C     0.16676   0.24589   0.16650   0.00000  Uiso   1.00
C3     C     0.06806   0.16646   0.15473   0.00000  Uiso   1.00
C4     C     0.26528   0.16674   0.17861   0.00000  Uiso   1.00
C5     C     0.01282   0.16589   0.14817   0.00000  Uiso   1.00
C6     C     0.32052   0.16709   0.18519   0.00000  Uiso   1.00
C7     C     0.14981   0.02158   0.12538   0.00000  Uiso   1.00
C8     C     0.18322   0.31177   0.20801   0.00000  Uiso   1.00
C9     C     0.14990   0.31222   0.12518   0.00000  Uiso   1.00
C10    C     0.18306   0.02112   0.20822   0.00000  Uiso   1.00
C11    C     0.16680   0.29055   0.16643   0.00000  Uiso   1.00
C12    C     0.16631   0.04279   0.16693   0.00000  Uiso   1.00
C13    C     0.14251   0.13584   0.02300   0.00000  Uiso   1.00
C14    C     0.19099   0.19741   0.31037   0.00000  Uiso   1.00
C15    C     0.14198   0.13563   0.30705   0.00000  Uiso   1.00
C16    C     0.19132   0.19770   0.02631   0.00000  Uiso   1.00
Cu17   Cu    0.16667   0.16667   0.21355   0.00000  Uiso   1.00
Cu18   Cu    0.16667   0.16666   0.11978   0.00000  Uiso   1.00
H19    H     0.32651   0.16434   0.11256   0.00000  Uiso   1.00
H20    H     0.00686   0.16851   0.22081   0.00000  Uiso   1.00
H21    H     0.13633   0.03792   0.09320   0.00000  Uiso   1.00
H22    H     0.19666   0.29543   0.24020   0.00000  Uiso   1.00
H23    H     0.13603   0.29623   0.09308   0.00000  Uiso   1.00
H24    H     0.19672   0.03712   0.24038   0.00000  Uiso   1.00
H25    H     0.12278   0.11145   0.04019   0.00000  Uiso   1.00
H26    H     0.21073   0.22182   0.29320   0.00000  Uiso   1.00
N27    N     0.16668   0.16668   0.28403   0.00000  Uiso   1.00
N28    N     0.16665   0.16666   0.04931   0.00000  Uiso   1.00
O29    O     0.16666   0.10655   0.20625   0.00000  Uiso   1.00
O30    O     0.16667   0.22678   0.12709   0.00000  Uiso   1.00
O31    O     0.16666   0.10654   0.12706   0.00000  Uiso   1.00
O32    O     0.16667   0.22679   0.20628   0.00000  Uiso   1.00
O33    O     0.09161   0.16667   0.19712   0.00000  Uiso   1.00
O34    O     0.24172   0.16666   0.13621   0.00000  Uiso   1.00
O35    O     0.09161   0.16666   0.11793   0.00000  Uiso   1.00
O36    O     0.24172   0.16667   0.21540   0.00000  Uiso   1.00
C37    C     0.11425   0.10040   0.28273   0.00000  Uiso   1.00
O38    O     0.07778   0.10593   0.25254   0.00000  Uiso   1.00
O39    O     0.12734   0.06031   0.29738   0.00000  Uiso   1.00
H40    H     0.10491   0.03853   0.27916   0.00000  Uiso   1.00
C41    C     0.21848   0.23306   0.05078   0.00000  Uiso   1.00
O42    O     0.20372   0.26795   0.04090   0.00000  Uiso   1.00
O43    O     0.26322   0.22730   0.08194   0.00000  Uiso   1.00
H44    H     0.27860   0.25415   0.09570   0.00000  Uiso   1.00
C45    C     0.49983   0.08745   0.16684   0.00000  Uiso   1.00
C46    C     0.50010   0.24589   0.16650   0.00000  Uiso   1.00
C47    C     0.40139   0.16646   0.15473   0.00000  Uiso   1.00
C48    C     0.59861   0.16674   0.17861   0.00000  Uiso   1.00
C49    C     0.34616   0.16589   0.14817   0.00000  Uiso   1.00
C50    C     0.65386   0.16709   0.18519   0.00000  Uiso   1.00
C51    C     0.48314   0.02158   0.12538   0.00000  Uiso   1.00
C52    C     0.51655   0.31177   0.20801   0.00000  Uiso   1.00
C53    C     0.48323   0.31222   0.12518   0.00000  Uiso   1.00
C54    C     0.51639   0.02112   0.20822   0.00000  Uiso   1.00
C55    C     0.50013   0.29055   0.16643   0.00000  Uiso   1.00
C56    C     0.49964   0.04279   0.16693   0.00000  Uiso   1.00
C57    C     0.47584   0.13584   0.02300   0.00000  Uiso   1.00
C58    C     0.52432   0.19741   0.31037   0.00000  Uiso   1.00
C59    C     0.47531   0.13563   0.30705   0.00000  Uiso   1.00
C60    C     0.52466   0.19770   0.02631   0.00000  Uiso   1.00
Cu61   Cu    0.50000   0.16667   0.21355   0.00000  Uiso   1.00
Cu62   Cu    0.50000   0.16666   0.11978   0.00000  Uiso   1.00
H63    H     0.65984   0.16434   0.11256   0.00000  Uiso   1.00
H64    H     0.34019   0.16851   0.22081   0.00000  Uiso   1.00
H65    H     0.46966   0.03792   0.09320   0.00000  Uiso   1.00
H66    H     0.53000   0.29543   0.24020   0.00000  Uiso   1.00
H67    H     0.46936   0.29623   0.09308   0.00000  Uiso   1.00
H68    H     0.53005   0.03712   0.24038   0.00000  Uiso   1.00
H69    H     0.45611   0.11145   0.04019   0.00000  Uiso   1.00
H70    H     0.54406   0.22182   0.29320   0.00000  Uiso   1.00
N71    N     0.50001   0.16668   0.28403   0.00000  Uiso   1.00
N72    N     0.49999   0.16666   0.04931   0.00000  Uiso   1.00
O73    O     0.50000   0.10655   0.20625   0.00000  Uiso   1.00
O74    O     0.50000   0.22678   0.12709   0.00000  Uiso   1.00
O75    O     0.50000   0.10654   0.12706   0.00000  Uiso   1.00
O76    O     0.50000   0.22679   0.20628   0.00000  Uiso   1.00
O77    O     0.42495   0.16667   0.19712   0.00000  Uiso   1.00
O78    O     0.57505   0.16666   0.13621   0.00000  Uiso   1.00
O79    O     0.42494   0.16666   0.11793   0.00000  Uiso   1.00
O80    O     0.57506   0.16667   0.21540   0.00000  Uiso   1.00
C81    C     0.44758   0.10040   0.28273   0.00000  Uiso   1.00
O82    O     0.41111   0.10593   0.25254   0.00000  Uiso   1.00
O83    O     0.46067   0.06031   0.29738   0.00000  Uiso   1.00
H84    H     0.43825   0.03853   0.27916   0.00000  Uiso   1.00
C85    C     0.55182   0.23306   0.05078   0.00000  Uiso   1.00
O86    O     0.53705   0.26795   0.04090   0.00000  Uiso   1.00
O87    O     0.59655   0.22730   0.08194   0.00000  Uiso   1.00
H88    H     0.61194   0.25415   0.09570   0.00000  Uiso   1.00
C89    C     0.83317   0.08745   0.16684   0.00000  Uiso   1.00
C90    C     0.83343   0.24589   0.16650   0.00000  Uiso   1.00
C91    C     0.73472   0.16646   0.15473   0.00000  Uiso   1.00
C92    C     0.93195   0.16674   0.17861   0.00000  Uiso   1.00
C93    C     0.67949   0.16589   0.14817   0.00000  Uiso   1.00
C94    C     0.98719   0.16709   0.18519   0.00000  Uiso   1.00
C95    C     0.81647   0.02158   0.12538   0.00000  Uiso   1.00
C96    C     0.84989   0.31177   0.20801   0.00000  Uiso   1.00
C97    C     0.81657   0.31222   0.12518   0.00000  Uiso   1.00
C98    C     0.84973   0.02112   0.20822   0.00000  Uiso   1.00
C99    C     0.83347   0.29055   0.16643   0.00000  Uiso   1.00
C100   C     0.83297   0.04279   0.16693   0.00000  Uiso   1.00
C101   C     0.80918   0.13584   0.02300   0.00000  Uiso   1.00
C102   C     0.85765   0.19741   0.31037   0.00000  Uiso   1.00
C103   C     0.80864   0.13563   0.30705   0.00000  Uiso   1.00
C104   C     0.85799   0.19770   0.02631   0.00000  Uiso   1.00
Cu105  Cu    0.83333   0.16667   0.21355   0.00000  Uiso   1.00
Cu106  Cu    0.83333   0.16666   0.11978   0.00000  Uiso   1.00
H107   H     0.99317   0.16434   0.11256   0.00000  Uiso   1.00
H108   H     0.67353   0.16851   0.22081   0.00000  Uiso   1.00
H109   H     0.80299   0.03792   0.09320   0.00000  Uiso   1.00
H110   H     0.86333   0.29543   0.24020   0.00000  Uiso   1.00
H111   H     0.80269   0.29623   0.09308   0.00000  Uiso   1.00
H112   H     0.86338   0.03712   0.24038   0.00000  Uiso   1.00
H113   H     0.78944   0.11145   0.04019   0.00000  Uiso   1.00
H114   H     0.87740   0.22182   0.29320   0.00000  Uiso   1.00
N115   N     0.83335   0.16668   0.28403   0.00000  Uiso   1.00
N116   N     0.83332   0.16666   0.04931   0.00000  Uiso   1.00
O117   O     0.83333   0.10655   0.20625   0.00000  Uiso   1.00
O118   O     0.83334   0.22678   0.12709   0.00000  Uiso   1.00
O119   O     0.83333   0.10654   0.12706   0.00000  Uiso   1.00
O120   O     0.83334   0.22679   0.20628   0.00000  Uiso   1.00
O121   O     0.75828   0.16667   0.19712   0.00000  Uiso   1.00
O122   O     0.90839   0.16666   0.13621   0.00000  Uiso   1.00
O123   O     0.75828   0.16666   0.11793   0.00000  Uiso   1.00
O124   O     0.90839   0.16667   0.21540   0.00000  Uiso   1.00
C125   C     0.78092   0.10040   0.28273   0.00000  Uiso   1.00
O126   O     0.74445   0.10593   0.25254   0.00000  Uiso   1.00
O127   O     0.79400   0.06031   0.29738   0.00000  Uiso   1.00
H128   H     0.77158   0.03853   0.27916   0.00000  Uiso   1.00
C129   C     0.88515   0.23306   0.05078   0.00000  Uiso   1.00
O130   O     0.87038   0.26795   0.04090   0.00000  Uiso   1.00
O131   O     0.92988   0.22730   0.08194   0.00000  Uiso   1.00
H132   H     0.94527   0.25415   0.09570   0.00000  Uiso   1.00
C133   C     0.16650   0.42078   0.16684   0.00000  Uiso   1.00
C134   C     0.16676   0.57922   0.16650   0.00000  Uiso   1.00
C135   C     0.06806   0.49980   0.15473   0.00000  Uiso   1.00
C136   C     0.26528   0.50008   0.17861   0.00000  Uiso   1.00
C137   C     0.01282   0.49922   0.14817   0.00000  Uiso   1.00
C138   C     0.32052   0.50042   0.18519   0.00000  Uiso   1.00
C139   C     0.14981   0.35491   0.12538   0.00000  Uiso   1.00
C140   C     0.18322   0.64510   0.20801   0.00000  Uiso   1.00
C141   C     0.14990   0.64556   0.12518   0.00000  Uiso   1.00
C142   C     0.18306   0.35445   0.20822   0.00000  Uiso   1.00
C143   C     0.16680   0.62388   0.16643   0.00000  Uiso   1.00
C144   C     0.16631   0.37613   0.16693   0.00000  Uiso   1.00
C145   C     0.14251   0.46918   0.02300   0.00000  Uiso   1.00
C146   C     0.19099   0.53075   0.31037   0.00000  Uiso   1.00
C147   C     0.14198   0.46896   0.30705   0.00000  Uiso   1.00
C148   C     0.19132   0.53104   0.02631   0.00000  Uiso   1.00
Cu149  Cu    0.16667   0.50001   0.21355   0.00000  Uiso   1.00
Cu150  Cu    0.16667   0.49999   0.11978   0.00000  Uiso   1.00
H151   H     0.32651   0.49767   0.11256   0.00000  Uiso   1.00
H152   H     0.00686   0.50185   0.22081   0.00000  Uiso   1.00
H153   H     0.13633   0.37125   0.09320   0.00000  Uiso   1.00
H154   H     0.19666   0.62876   0.24020   0.00000  Uiso   1.00
H155   H     0.13603   0.62957   0.09308   0.00000  Uiso   1.00
H156   H     0.19672   0.37046   0.24038   0.00000  Uiso   1.00
H157   H     0.12278   0.44478   0.04019   0.00000  Uiso   1.00
H158   H     0.21073   0.55516   0.29320   0.00000  Uiso   1.00
N159   N     0.16668   0.50001   0.28403   0.00000  Uiso   1.00
N160   N     0.16665   0.49999   0.04931   0.00000  Uiso   1.00
O161   O     0.16666   0.43989   0.20625   0.00000  Uiso   1.00
O162   O     0.16667   0.56011   0.12709   0.00000  Uiso   1.00
O163   O     0.16666   0.43988   0.12706   0.00000  Uiso   1.00
O164   O     0.16667   0.56012   0.20628   0.00000  Uiso   1.00
O165   O     0.09161   0.50000   0.19712   0.00000  Uiso   1.00
O166   O     0.24172   0.50000   0.13621   0.00000  Uiso   1.00
O167   O     0.09161   0.49999   0.11793   0.00000  Uiso   1.00
O168   O     0.24172   0.50001   0.21540   0.00000  Uiso   1.00
C169   C     0.11425   0.43373   0.28273   0.00000  Uiso   1.00
O170   O     0.07778   0.43926   0.25254   0.00000  Uiso   1.00
O171   O     0.12734   0.39364   0.29738   0.00000  Uiso   1.00
H172   H     0.10491   0.37186   0.27916   0.00000  Uiso   1.00
C173   C     0.21848   0.56639   0.05078   0.00000  Uiso   1.00
O174   O     0.20372   0.60129   0.04090   0.00000  Uiso   1.00
O175   O     0.26322   0.56063   0.08194   0.00000  Uiso   1.00
H176   H     0.27860   0.58748   0.09570   0.00000  Uiso   1.00
C177   C     0.49983   0.42078   0.16684   0.00000  Uiso   1.00
C178   C     0.50010   0.57922   0.16650   0.00000  Uiso   1.00
C179   C     0.40139   0.49980   0.15473   0.00000  Uiso   1.00
C180   C     0.59861   0.50008   0.17861   0.00000  Uiso   1.00
C181   C     0.34616   0.49922   0.14817   0.00000  Uiso   1.00
C182   C     0.65386   0.50042   0.18519   0.00000  Uiso   1.00
C183   C     0.48314   0.35491   0.12538   0.00000  Uiso   1.00
C184   C     0.51655   0.64510   0.20801   0.00000  Uiso   1.00
C185   C     0.48323   0.64556   0.12518   0.00000  Uiso   1.00
C186   C     0.51639   0.35445   0.20822   0.00000  Uiso   1.00
C187   C     0.50013   0.62388   0.16643   0.00000  Uiso   1.00
C188   C     0.49964   0.37613   0.16693   0.00000  Uiso   1.00
C189   C     0.47584   0.46918   0.02300   0.00000  Uiso   1.00
C190   C     0.52432   0.53075   0.31037   0.00000  Uiso   1.00
C191   C     0.47531   0.46896   0.30705   0.00000  Uiso   1.00
C192   C     0.52466   0.53104   0.02631   0.00000  Uiso   1.00
Cu193  Cu    0.50000   0.50001   0.21355   0.00000  Uiso   1.00
Cu194  Cu    0.50000   0.49999   0.11978   0.00000  Uiso   1.00
H195   H     0.65984   0.49767   0.11256   0.00000  Uiso   1.00
H196   H     0.34019   0.50185   0.22081   0.00000  Uiso   1.00
H197   H     0.46966   0.37125   0.09320   0.00000  Uiso   1.00
H198   H     0.53000   0.62876   0.24020   0.00000  Uiso   1.00
H199   H     0.46936   0.62957   0.09308   0.00000  Uiso   1.00
H200   H     0.53005   0.37046   0.24038   0.00000  Uiso   1.00
H201   H     0.45611   0.44478   0.04019   0.00000  Uiso   1.00
H202   H     0.54406   0.55516   0.29320   0.00000  Uiso   1.00
N203   N     0.50001   0.50001   0.28403   0.00000  Uiso   1.00
N204   N     0.49999   0.49999   0.04931   0.00000  Uiso   1.00
O205   O     0.50000   0.43989   0.20625   0.00000  Uiso   1.00
O206   O     0.50000   0.56011   0.12709   0.00000  Uiso   1.00
O207   O     0.50000   0.43988   0.12706   0.00000  Uiso   1.00
O208   O     0.50000   0.56012   0.20628   0.00000  Uiso   1.00
O209   O     0.42495   0.50000   0.19712   0.00000  Uiso   1.00
O210   O     0.57505   0.50000   0.13621   0.00000  Uiso   1.00
O211   O     0.42494   0.49999   0.11793   0.00000  Uiso   1.00
O212   O     0.57506   0.50001   0.21540   0.00000  Uiso   1.00
C213   C     0.44758   0.43373   0.28273   0.00000  Uiso   1.00
O214   O     0.41111   0.43926   0.25254   0.00000  Uiso   1.00
O215   O     0.46067   0.39364   0.29738   0.00000  Uiso   1.00
H216   H     0.43825   0.37186   0.27916   0.00000  Uiso   1.00
C217   C     0.55182   0.56639   0.05078   0.00000  Uiso   1.00
O218   O     0.53705   0.60129   0.04090   0.00000  Uiso   1.00
O219   O     0.59655   0.56063   0.08194   0.00000  Uiso   1.00
H220   H     0.61194   0.58748   0.09570   0.00000  Uiso   1.00
C221   C     0.83317   0.42078   0.16684   0.00000  Uiso   1.00
C222   C     0.83343   0.57922   0.16650   0.00000  Uiso   1.00
C223   C     0.73472   0.49980   0.15473   0.00000  Uiso   1.00
C224   C     0.93195   0.50008   0.17861   0.00000  Uiso   1.00
C225   C     0.67949   0.49922   0.14817   0.00000  Uiso   1.00
C226   C     0.98719   0.50042   0.18519   0.00000  Uiso   1.00
C227   C     0.81647   0.35491   0.12538   0.00000  Uiso   1.00
C228   C     0.84989   0.64510   0.20801   0.00000  Uiso   1.00
C229   C     0.81657   0.64556   0.12518   0.00000  Uiso   1.00
C230   C     0.84973   0.35445   0.20822   0.00000  Uiso   1.00
C231   C     0.83347   0.62388   0.16643   0.00000  Uiso   1.00
C232   C     0.83297   0.37613   0.16693   0.00000  Uiso   1.00
C233   C     0.80918   0.46918   0.02300   0.00000  Uiso   1.00
C234   C     0.85765   0.53075   0.31037   0.00000  Uiso   1.00
C235   C     0.80864   0.46896   0.30705   0.00000  Uiso   1.00
C236   C     0.85799   0.53104   0.02631   0.00000  Uiso   1.00
Cu237  Cu    0.83333   0.50001   0.21355   0.00000  Uiso   1.00
Cu238  Cu    0.83333   0.49999   0.11978   0.00000  Uiso   1.00
H239   H     0.99317   0.49767   0.11256   0.00000  Uiso   1.00
H240   H     0.67353   0.50185   0.22081   0.00000  Uiso   1.00
H241   H     0.80299   0.37125   0.09320   0.00000  Uiso   1.00
H242   H     0.86333   0.62876   0.24020   0.00000  Uiso   1.00
H243   H     0.80269   0.62957   0.09308   0.00000  Uiso   1.00
H244   H     0.86338   0.37046   0.24038   0.00000  Uiso   1.00
H245   H     0.78944   0.44478   0.04019   0.00000  Uiso   1.00
H246   H     0.87740   0.55516   0.29320   0.00000  Uiso   1.00
N247   N     0.83335   0.50001   0.28403   0.00000  Uiso   1.00
N248   N     0.83332   0.49999   0.04931   0.00000  Uiso   1.00
O249   O     0.83333   0.43989   0.20625   0.00000  Uiso   1.00
O250   O     0.83334   0.56011   0.12709   0.00000  Uiso   1.00
O251   O     0.83333   0.43988   0.12706   0.00000  Uiso   1.00
O252   O     0.83334   0.56012   0.20628   0.00000  Uiso   1.00
O253   O     0.75828   0.50000   0.19712   0.00000  Uiso   1.00
O254   O     0.90839   0.50000   0.13621   0.00000  Uiso   1.00
O255   O     0.75828   0.49999   0.11793   0.00000  Uiso   1.00
O256   O     0.90839   0.50001   0.21540   0.00000  Uiso   1.00
C257   C     0.78092   0.43373   0.28273   0.00000  Uiso   1.00
O258   O     0.74445   0.43926   0.25254   0.00000  Uiso   1.00
O259   O     0.79400   0.39364   0.29738   0.00000  Uiso   1.00
H260   H     0.77158   0.37186   0.27916   0.00000  Uiso   1.00
C261   C     0.88515   0.56639   0.05078   0.00000  Uiso   1.00
O262   O     0.87038   0.60129   0.04090   0.00000  Uiso   1.00
O263   O     0.92988   0.56063   0.08194   0.00000  Uiso   1.00
H264   H     0.94527   0.58748   0.09570   0.00000  Uiso   1.00
C265   C     0.16650   0.75411   0.16684   0.00000  Uiso   1.00
C266   C     0.16676   0.91256   0.16650   0.00000  Uiso   1.00
C267   C     0.06806   0.83313   0.15473   0.00000  Uiso   1.00
C268   C     0.26528   0.83341   0.17861   0.00000  Uiso   1.00
C269   C     0.01282   0.83255   0.14817   0.00000  Uiso   1.00
C270   C     0.32052   0.83376   0.18519   0.00000  Uiso   1.00
C271   C     0.14981   0.68824   0.12538   0.00000  Uiso   1.00
C272   C     0.18322   0.97843   0.20801   0.00000  Uiso   1.00
C273   C     0.14990   0.97889   0.12518   0.00000  Uiso   1.00
C274   C     0.18306   0.68779   0.20822   0.00000  Uiso   1.00
C275   C     0.16680   0.95721   0.16643   0.00000  Uiso   1.00
C276   C     0.16631   0.70946   0.16693   0.00000  Uiso   1.00
C277   C     0.14251   0.80251   0.02300   0.00000  Uiso   1.00
C278   C     0.19099   0.86408   0.31037   0.00000  Uiso   1.00
C279   C     0.14198   0.80229   0.30705   0.00000  Uiso   1.00
C280   C     0.19132   0.86437   0.02631   0.00000  Uiso   1.00
Cu281  Cu    0.16667   0.83334   0.21355   0.00000  Uiso   1.00
Cu282  Cu    0.16667   0.83333   0.11978   0.00000  Uiso   1.00
H283   H     0.32651   0.83101   0.11256   0.00000  Uiso   1.00
H284   H     0.00686   0.83518   0.22081   0.00000  Uiso   1.00
H285   H     0.13633   0.70458   0.09320   0.00000  Uiso   1.00
H286   H     0.19666   0.96210   0.24020   0.00000  Uiso   1.00
H287   H     0.13603   0.96290   0.09308   0.00000  Uiso   1.00
H288   H     0.19672   0.70379   0.24038   0.00000  Uiso   1.00
H289   H     0.12278   0.77811   0.04019   0.00000  Uiso   1.00
H290   H     0.21073   0.88849   0.29320   0.00000  Uiso   1.00
N291   N     0.16668   0.83334   0.28403   0.00000  Uiso   1.00
N292   N     0.16665   0.83332   0.04931   0.00000  Uiso   1.00
O293   O     0.16666   0.77322   0.20625   0.00000  Uiso   1.00
O294   O     0.16667   0.89345   0.12709   0.00000  Uiso   1.00
O295   O     0.16666   0.77321   0.12706   0.00000  Uiso   1.00
O296   O     0.16667   0.89346   0.20628   0.00000  Uiso   1.00
O297   O     0.09161   0.83334   0.19712   0.00000  Uiso   1.00
O298   O     0.24172   0.83333   0.13621   0.00000  Uiso   1.00
O299   O     0.09161   0.83333   0.11793   0.00000  Uiso   1.00
O300   O     0.24172   0.83334   0.21540   0.00000  Uiso   1.00
C301   C     0.11425   0.76707   0.28273   0.00000  Uiso   1.00
O302   O     0.07778   0.77259   0.25254   0.00000  Uiso   1.00
O303   O     0.12734   0.72697   0.29738   0.00000  Uiso   1.00
H304   H     0.10491   0.70519   0.27916   0.00000  Uiso   1.00
C305   C     0.21848   0.89972   0.05078   0.00000  Uiso   1.00
O306   O     0.20372   0.93462   0.04090   0.00000  Uiso   1.00
O307   O     0.26322   0.89397   0.08194   0.00000  Uiso   1.00
H308   H     0.27860   0.92082   0.09570   0.00000  Uiso   1.00
C309   C     0.49983   0.75411   0.16684   0.00000  Uiso   1.00
C310   C     0.50010   0.91256   0.16650   0.00000  Uiso   1.00
C311   C     0.40139   0.83313   0.15473   0.00000  Uiso   1.00
C312   C     0.59861   0.83341   0.17861   0.00000  Uiso   1.00
C313   C     0.34616   0.83255   0.14817   0.00000  Uiso   1.00
C314   C     0.65386   0.83376   0.18519   0.00000  Uiso   1.00
C315   C     0.48314   0.68824   0.12538   0.00000  Uiso   1.00
C316   C     0.51655   0.97843   0.20801   0.00000  Uiso   1.00
C317   C     0.48323   0.97889   0.12518   0.00000  Uiso   1.00
C318   C     0.51639   0.68779   0.20822   0.00000  Uiso   1.00
C319   C     0.50013   0.95721   0.16643   0.00000  Uiso   1.00
C320   C     0.49964   0.70946   0.16693   0.00000  Uiso   1.00
C321   C     0.47584   0.80251   0.02300   0.00000  Uiso   1.00
C322   C     0.52432   0.86408   0.31037   0.00000  Uiso   1.00
C323   C     0.47531   0.80229   0.30705   0.00000  Uiso   1.00
C324   C     0.52466   0.86437   0.02631   0.00000  Uiso   1.00
Cu325  Cu    0.50000   0.83334   0.21355   0.00000  Uiso   1.00
Cu326  Cu    0.50000   0.83333   0.11978   0.00000  Uiso   1.00
H327   H     0.65984   0.83101   0.11256   0.00000  Uiso   1.00
H328   H     0.34019   0.83518   0.22081   0.00000  Uiso   1.00
H329   H     0.46966   0.70458   0.09320   0.00000  Uiso   1.00
H330   H     0.53000   0.96210   0.24020   0.00000  Uiso   1.00
H331   H     0.46936   0.96290   0.09308   0.00000  Uiso   1.00
H332   H     0.53005   0.70379   0.24038   0.00000  Uiso   1.00
H333   H     0.45611   0.77811   0.04019   0.00000  Uiso   1.00
H334   H     0.54406   0.88849   0.29320   0.00000  Uiso   1.00
N335   N     0.50001   0.83334   0.28403   0.00000  Uiso   1.00
N336   N     0.49999   0.83332   0.04931   0.00000  Uiso   1.00
O337   O     0.50000   0.77322   0.20625   0.00000  Uiso   1.00
O338   O     0.50000   0.89345   0.12709   0.00000  Uiso   1.00
O339   O     0.50000   0.77321   0.12706   0.00000  Uiso   1.00
O340   O     0.50000   0.89346   0.20628   0.00000  Uiso   1.00
O341   O     0.42495   0.83334   0.19712   0.00000  Uiso   1.00
O342   O     0.57505   0.83333   0.13621   0.00000  Uiso   1.00
O343   O     0.42494   0.83333   0.11793   0.00000  Uiso   1.00
O344   O     0.57506   0.83334   0.21540   0.00000  Uiso   1.00
C345   C     0.44758   0.76707   0.28273   0.00000  Uiso   1.00
O346   O     0.41111   0.77259   0.25254   0.00000  Uiso   1.00
O347   O     0.46067   0.72697   0.29738   0.00000  Uiso   1.00
H348   H     0.43825   0.70519   0.27916   0.00000  Uiso   1.00
C349   C     0.55182   0.89972   0.05078   0.00000  Uiso   1.00
O350   O     0.53705   0.93462   0.04090   0.00000  Uiso   1.00
O351   O     0.59655   0.89397   0.08194   0.00000  Uiso   1.00
H352   H     0.61194   0.92082   0.09570   0.00000  Uiso   1.00
C353   C     0.83317   0.75411   0.16684   0.00000  Uiso   1.00
C354   C     0.83343   0.91256   0.16650   0.00000  Uiso   1.00
C355   C     0.73472   0.83313   0.15473   0.00000  Uiso   1.00
C356   C     0.93195   0.83341   0.17861   0.00000  Uiso   1.00
C357   C     0.67949   0.83255   0.14817   0.00000  Uiso   1.00
C358   C     0.98719   0.83376   0.18519   0.00000  Uiso   1.00
C359   C     0.81647   0.68824   0.12538   0.00000  Uiso   1.00
C360   C     0.84989   0.97843   0.20801   0.00000  Uiso   1.00
C361   C     0.81657   0.97889   0.12518   0.00000  Uiso   1.00
C362   C     0.84973   0.68779   0.20822   0.00000  Uiso   1.00
C363   C     0.83347   0.95721   0.16643   0.00000  Uiso   1.00
C364   C     0.83297   0.70946   0.16693   0.00000  Uiso   1.00
C365   C     0.80918   0.80251   0.02300   0.00000  Uiso   1.00
C366   C     0.85765   0.86408   0.31037   0.00000  Uiso   1.00
C367   C     0.80864   0.80229   0.30705   0.00000  Uiso   1.00
C368   C     0.85799   0.86437   0.02631   0.00000  Uiso   1.00
Cu369  Cu    0.83333   0.83334   0.21355   0.00000  Uiso   1.00
Cu370  Cu    0.83333   0.83333   0.11978   0.00000  Uiso   1.00
H371   H     0.99317   0.83101   0.11256   0.00000  Uiso   1.00
H372   H     0.67353   0.83518   0.22081   0.00000  Uiso   1.00
H373   H     0.80299   0.70458   0.09320   0.00000  Uiso   1.00
H374   H     0.86333   0.96210   0.24020   0.00000  Uiso   1.00
H375   H     0.80269   0.96290   0.09308   0.00000  Uiso   1.00
H376   H     0.86338   0.70379   0.24038   0.00000  Uiso   1.00
H377   H     0.78944   0.77811   0.04019   0.00000  Uiso   1.00
H378   H     0.87740   0.88849   0.29320   0.00000  Uiso   1.00
N379   N     0.83335   0.83334   0.28403   0.00000  Uiso   1.00
N380   N     0.83332   0.83332   0.04931   0.00000  Uiso   1.00
O381   O     0.83333   0.77322   0.20625   0.00000  Uiso   1.00
O382   O     0.83334   0.89345   0.12709   0.00000  Uiso   1.00
O383   O     0.83333   0.77321   0.12706   0.00000  Uiso   1.00
O384   O     0.83334   0.89346   0.20628   0.00000  Uiso   1.00
O385   O     0.75828   0.83334   0.19712   0.00000  Uiso   1.00
O386   O     0.90839   0.83333   0.13621   0.00000  Uiso   1.00
O387   O     0.75828   0.83333   0.11793   0.00000  Uiso   1.00
O388   O     0.90839   0.83334   0.21540   0.00000  Uiso   1.00
C389   C     0.78092   0.76707   0.28273   0.00000  Uiso   1.00
O390   O     0.74445   0.77259   0.25254   0.00000  Uiso   1.00
O391   O     0.79400   0.72697   0.29738   0.00000  Uiso   1.00
H392   H     0.77158   0.70519   0.27916   0.00000  Uiso   1.00
C393   C     0.88515   0.89972   0.05078   0.00000  Uiso   1.00
O394   O     0.87038   0.93462   0.04090   0.00000  Uiso   1.00
O395   O     0.92988   0.89397   0.08194   0.00000  Uiso   1.00
H396   H     0.94527   0.92082   0.09570   0.00000  Uiso   1.00
C397   C     0.16650   0.08745   0.50017   0.00000  Uiso   1.00
C398   C     0.16676   0.24589   0.49983   0.00000  Uiso   1.00
C399   C     0.06806   0.16646   0.48806   0.00000  Uiso   1.00
C400   C     0.26528   0.16674   0.51195   0.00000  Uiso   1.00
C401   C     0.01282   0.16589   0.48150   0.00000  Uiso   1.00
C402   C     0.32052   0.16709   0.51853   0.00000  Uiso   1.00
C403   C     0.14981   0.02158   0.45871   0.00000  Uiso   1.00
C404   C     0.18322   0.31177   0.54134   0.00000  Uiso   1.00
C405   C     0.14990   0.31222   0.45852   0.00000  Uiso   1.00
C406   C     0.18306   0.02112   0.54156   0.00000  Uiso   1.00
C407   C     0.16680   0.29055   0.49977   0.00000  Uiso   1.00
C408   C     0.16631   0.04279   0.50027   0.00000  Uiso   1.00
C409   C     0.14251   0.13584   0.35633   0.00000  Uiso   1.00
C410   C     0.19099   0.19741   0.64370   0.00000  Uiso   1.00
C411   C     0.14198   0.13563   0.64038   0.00000  Uiso   1.00
C412   C     0.19132   0.19770   0.35964   0.00000  Uiso   1.00
Cu413  Cu    0.16667   0.16667   0.54689   0.00000  Uiso   1.00
Cu414  Cu    0.16667   0.16666   0.45311   0.00000  Uiso   1.00
H415   H     0.32651   0.16434   0.44590   0.00000  Uiso   1.00
H416   H     0.00686   0.16851   0.55414   0.00000  Uiso   1.00
H417   H     0.13633   0.03792   0.42653   0.00000  Uiso   1.00
H418   H     0.19666   0.29543   0.57353   0.00000  Uiso   1.00
H419   H     0.13603   0.29623   0.42641   0.00000  Uiso   1.00
H420   H     0.19672   0.03712   0.57371   0.00000  Uiso   1.00
H421   H     0.12278   0.11145   0.37353   0.00000  Uiso   1.00
H422   H     0.21073   0.22182   0.62654   0.00000  Uiso   1.00
N423   N     0.16668   0.16668   0.61736   0.00000  Uiso   1.00
N424   N     0.16665   0.16666   0.38264   0.00000  Uiso   1.00
O425   O     0.16666   0.10655   0.53958   0.00000  Uiso   1.00
O426   O     0.16667   0.22678   0.46042   0.00000  Uiso   1.00
O427   O     0.16666   0.10654   0.46039   0.00000  Uiso   1.00
O428   O     0.16667   0.22679   0.53961   0.00000  Uiso   1.00
O429   O     0.09161   0.16667   0.53046   0.00000  Uiso   1.00
O430   O     0.24172   0.16666   0.46954   0.00000  Uiso   1.00
O431   O     0.09161   0.16666   0.45127   0.00000  Uiso   1.00
O432   O     0.24172   0.16667   0.54873   0.00000  Uiso   1.00
C433   C     0.11425   0.10040   0.61607   0.00000  Uiso   1.00
O434   O     0.07778   0.10593   0.58587   0.00000  Uiso   1.00
O435   O     0.12734   0.06031   0.63071   0.00000  Uiso   1.00
H436   H     0.10491   0.03853   0.61250   0.00000  Uiso   1.00
C437   C     0.21848   0.23306   0.38411   0.00000  Uiso   1.00
O438   O     0.20372   0.26795   0.37424   0.00000  Uiso   1.00
O439   O     0.26322   0.22730   0.41527   0.00000  Uiso   1.00
H440   H     0.27860   0.25415   0.42903   0.00000  Uiso   1.00
C441   C     0.49983   0.08745   0.50017   0.00000  Uiso   1.00
C442   C     0.50010   0.24589   0.49983   0.00000  Uiso   1.00
C443   C     0.40139   0.16646   0.48806   0.00000  Uiso   1.00
C444   C     0.59861   0.16674   0.51195   0.00000  Uiso   1.00
C445   C     0.34616   0.16589   0.48150   0.00000  Uiso   1.00
C446   C     0.65386   0.16709   0.51853   0.00000  Uiso   1.00
C447   C     0.48314   0.02158   0.45871   0.00000  Uiso   1.00
C448   C     0.51655   0.31177   0.54134   0.00000  Uiso   1.00
C449   C     0.48323   0.31222   0.45852   0.00000  Uiso   1.00
C450   C     0.51639   0.02112   0.54156   0.00000  Uiso   1.00
C451   C     0.50013   0.29055   0.49977   0.00000  Uiso   1.00
C452   C     0.49964   0.04279   0.50027   0.00000  Uiso   1.00
C453   C     0.47584   0.13584   0.35633   0.00000  Uiso   1.00
C454   C     0.52432   0.19741   0.64370   0.00000  Uiso   1.00
C455   C     0.47531   0.13563   0.64038   0.00000  Uiso   1.00
C456   C     0.52466   0.19770   0.35964   0.00000  Uiso   1.00
Cu457  Cu    0.50000   0.16667   0.54689   0.00000  Uiso   1.00
Cu458  Cu    0.50000   0.16666   0.45311   0.00000  Uiso   1.00
H459   H     0.65984   0.16434   0.44590   0.00000  Uiso   1.00
H460   H     0.34019   0.16851   0.55414   0.00000  Uiso   1.00
H461   H     0.46966   0.03792   0.42653   0.00000  Uiso   1.00
H462   H     0.53000   0.29543   0.57353   0.00000  Uiso   1.00
H463   H     0.46936   0.29623   0.42641   0.00000  Uiso   1.00
H464   H     0.53005   0.03712   0.57371   0.00000  Uiso   1.00
H465   H     0.45611   0.11145   0.37353   0.00000  Uiso   1.00
H466   H     0.54406   0.22182   0.62654   0.00000  Uiso   1.00
N467   N     0.50001   0.16668   0.61736   0.00000  Uiso   1.00
N468   N     0.49999   0.16666   0.38264   0.00000  Uiso   1.00
O469   O     0.50000   0.10655   0.53958   0.00000  Uiso   1.00
O470   O     0.50000   0.22678   0.46042   0.00000  Uiso   1.00
O471   O     0.50000   0.10654   0.46039   0.00000  Uiso   1.00
O472   O     0.50000   0.22679   0.53961   0.00000  Uiso   1.00
O473   O     0.42495   0.16667   0.53046   0.00000  Uiso   1.00
O474   O     0.57505   0.16666   0.46954   0.00000  Uiso   1.00
O475   O     0.42494   0.16666   0.45127   0.00000  Uiso   1.00
O476   O     0.57506   0.16667   0.54873   0.00000  Uiso   1.00
C477   C     0.44758   0.10040   0.61607   0.00000  Uiso   1.00
O478   O     0.41111   0.10593   0.58587   0.00000  Uiso   1.00
O479   O     0.46067   0.06031   0.63071   0.00000  Uiso   1.00
H480   H     0.43825   0.03853   0.61250   0.00000  Uiso   1.00
C481   C     0.55182   0.23306   0.38411   0.00000  Uiso   1.00
O482   O     0.53705   0.26795   0.37424   0.00000  Uiso   1.00
O483   O     0.59655   0.22730   0.41527   0.00000  Uiso   1.00
H484   H     0.61194   0.25415   0.42903   0.00000  Uiso   1.00
C485   C     0.83317   0.08745   0.50017   0.00000  Uiso   1.00
C486   C     0.83343   0.24589   0.49983   0.00000  Uiso   1.00
C487   C     0.73472   0.16646   0.48806   0.00000  Uiso   1.00
C488   C     0.93195   0.16674   0.51195   0.00000  Uiso   1.00
C489   C     0.67949   0.16589   0.48150   0.00000  Uiso   1.00
C490   C     0.98719   0.16709   0.51853   0.00000  Uiso   1.00
C491   C     0.81647   0.02158   0.45871   0.00000  Uiso   1.00
C492   C     0.84989   0.31177   0.54134   0.00000  Uiso   1.00
C493   C     0.81657   0.31222   0.45852   0.00000  Uiso   1.00
C494   C     0.84973   0.02112   0.54156   0.00000  Uiso   1.00
C495   C     0.83347   0.29055   0.49977   0.00000  Uiso   1.00
C496   C     0.83297   0.04279   0.50027   0.00000  Uiso   1.00
C497   C     0.80918   0.13584   0.35633   0.00000  Uiso   1.00
C498   C     0.85765   0.19741   0.64370   0.00000  Uiso   1.00
C499   C     0.80864   0.13563   0.64038   0.00000  Uiso   1.00
C500   C     0.85799   0.19770   0.35964   0.00000  Uiso   1.00
Cu501  Cu    0.83333   0.16667   0.54689   0.00000  Uiso   1.00
Cu502  Cu    0.83333   0.16666   0.45311   0.00000  Uiso   1.00
H503   H     0.99317   0.16434   0.44590   0.00000  Uiso   1.00
H504   H     0.67353   0.16851   0.55414   0.00000  Uiso   1.00
H505   H     0.80299   0.03792   0.42653   0.00000  Uiso   1.00
H506   H     0.86333   0.29543   0.57353   0.00000  Uiso   1.00
H507   H     0.80269   0.29623   0.42641   0.00000  Uiso   1.00
H508   H     0.86338   0.03712   0.57371   0.00000  Uiso   1.00
H509   H     0.78944   0.11145   0.37353   0.00000  Uiso   1.00
H510   H     0.87740   0.22182   0.62654   0.00000  Uiso   1.00
N511   N     0.83335   0.16668   0.61736   0.00000  Uiso   1.00
N512   N     0.83332   0.16666   0.38264   0.00000  Uiso   1.00
O513   O     0.83333   0.10655   0.53958   0.00000  Uiso   1.00
O514   O     0.83334   0.22678   0.46042   0.00000  Uiso   1.00
O515   O     0.83333   0.10654   0.46039   0.00000  Uiso   1.00
O516   O     0.83334   0.22679   0.53961   0.00000  Uiso   1.00
O517   O     0.75828   0.16667   0.53046   0.00000  Uiso   1.00
O518   O     0.90839   0.16666   0.46954   0.00000  Uiso   1.00
O519   O     0.75828   0.16666   0.45127   0.00000  Uiso   1.00
O520   O     0.90839   0.16667   0.54873   0.00000  Uiso   1.00
C521   C     0.78092   0.10040   0.61607   0.00000  Uiso   1.00
O522   O     0.74445   0.10593   0.58587   0.00000  Uiso   1.00
O523   O     0.79400   0.06031   0.63071   0.00000  Uiso   1.00
H524   H     0.77158   0.03853   0.61250   0.00000  Uiso   1.00
C525   C     0.88515   0.23306   0.38411   0.00000  Uiso   1.00
O526   O     0.87038   0.26795   0.37424   0.00000  Uiso   1.00
O527   O     0.92988   0.22730   0.41527   0.00000  Uiso   1.00
H528   H     0.94527   0.25415   0.42903   0.00000  Uiso   1.00
C529   C     0.16650   0.42078   0.50017   0.00000  Uiso   1.00
C530   C     0.16676   0.57922   0.49983   0.00000  Uiso   1.00
C531   C     0.06806   0.49980   0.48806   0.00000  Uiso   1.00
C532   C     0.26528   0.50008   0.51195   0.00000  Uiso   1.00
C533   C     0.01282   0.49922   0.48150   0.00000  Uiso   1.00
C534   C     0.32052   0.50042   0.51853   0.00000  Uiso   1.00
C535   C     0.14981   0.35491   0.45871   0.00000  Uiso   1.00
C536   C     0.18322   0.64510   0.54134   0.00000  Uiso   1.00
C537   C     0.14990   0.64556   0.45852   0.00000  Uiso   1.00
C538   C     0.18306   0.35445   0.54156   0.00000  Uiso   1.00
C539   C     0.16680   0.62388   0.49977   0.00000  Uiso   1.00
C540   C     0.16631   0.37613   0.50027   0.00000  Uiso   1.00
C541   C     0.14251   0.46918   0.35633   0.00000  Uiso   1.00
C542   C     0.19099   0.53075   0.64370   0.00000  Uiso   1.00
C543   C     0.14198   0.46896   0.64038   0.00000  Uiso   1.00
C544   C     0.19132   0.53104   0.35964   0.00000  Uiso   1.00
Cu545  Cu    0.16667   0.50001   0.54689   0.00000  Uiso   1.00
Cu546  Cu    0.16667   0.49999   0.45311   0.00000  Uiso   1.00
H547   H     0.32651   0.49767   0.44590   0.00000  Uiso   1.00
H548   H     0.00686   0.50185   0.55414   0.00000  Uiso   1.00
H549   H     0.13633   0.37125   0.42653   0.00000  Uiso   1.00
H550   H     0.19666   0.62876   0.57353   0.00000  Uiso   1.00
H551   H     0.13603   0.62957   0.42641   0.00000  Uiso   1.00
H552   H     0.19672   0.37046   0.57371   0.00000  Uiso   1.00
H553   H     0.12278   0.44478   0.37353   0.00000  Uiso   1.00
H554   H     0.21073   0.55516   0.62654   0.00000  Uiso   1.00
N555   N     0.16668   0.50001   0.61736   0.00000  Uiso   1.00
N556   N     0.16665   0.49999   0.38264   0.00000  Uiso   1.00
O557   O     0.16666   0.43989   0.53958   0.00000  Uiso   1.00
O558   O     0.16667   0.56011   0.46042   0.00000  Uiso   1.00
O559   O     0.16666   0.43988   0.46039   0.00000  Uiso   1.00
O560   O     0.16667   0.56012   0.53961   0.00000  Uiso   1.00
O561   O     0.09161   0.50000   0.53046   0.00000  Uiso   1.00
O562   O     0.24172   0.50000   0.46954   0.00000  Uiso   1.00
O563   O     0.09161   0.49999   0.45127   0.00000  Uiso   1.00
O564   O     0.24172   0.50001   0.54873   0.00000  Uiso   1.00
C565   C     0.11425   0.43373   0.61607   0.00000  Uiso   1.00
O566   O     0.07778   0.43926   0.58587   0.00000  Uiso   1.00
O567   O     0.12734   0.39364   0.63071   0.00000  Uiso   1.00
H568   H     0.10491   0.37186   0.61250   0.00000  Uiso   1.00
C569   C     0.21848   0.56639   0.38411   0.00000  Uiso   1.00
O570   O     0.20372   0.60129   0.37424   0.00000  Uiso   1.00
O571   O     0.26322   0.56063   0.41527   0.00000  Uiso   1.00
H572   H     0.27860   0.58748   0.42903   0.00000  Uiso   1.00
C573   C     0.49983   0.42078   0.50017   0.00000  Uiso   1.00
C574   C     0.50010   0.57922   0.49983   0.00000  Uiso   1.00
C575   C     0.40139   0.49980   0.48806   0.00000  Uiso   1.00
C576   C     0.59861   0.50008   0.51195   0.00000  Uiso   1.00
C577   C     0.34616   0.49922   0.48150   0.00000  Uiso   1.00
C578   C     0.65386   0.50042   0.51853   0.00000  Uiso   1.00
C579   C     0.48314   0.35491   0.45871   0.00000  Uiso   1.00
C580   C     0.51655   0.64510   0.54134   0.00000  Uiso   1.00
C581   C     0.48323   0.64556   0.45852   0.00000  Uiso   1.00
C582   C     0.51639   0.35445   0.54156   0.00000  Uiso   1.00
C583   C     0.50013   0.62388   0.49977   0.00000  Uiso   1.00
C584   C     0.49964   0.37613   0.50027   0.00000  Uiso   1.00
C585   C     0.47584   0.46918   0.35633   0.00000  Uiso   1.00
C586   C     0.52432   0.53075   0.64370   0.00000  Uiso   1.00
C587   C     0.47531   0.46896   0.64038   0.00000  Uiso   1.00
C588   C     0.52466   0.53104   0.35964   0.00000  Uiso   1.00
Cu589  Cu    0.50000   0.50001   0.54689   0.00000  Uiso   1.00
Cu590  Cu    0.50000   0.49999   0.45311   0.00000  Uiso   1.00
H591   H     0.65984   0.49767   0.44590   0.00000  Uiso   1.00
H592   H     0.34019   0.50185   0.55414   0.00000  Uiso   1.00
H593   H     0.46966   0.37125   0.42653   0.00000  Uiso   1.00
H594   H     0.53000   0.62876   0.57353   0.00000  Uiso   1.00
H595   H     0.46936   0.62957   0.42641   0.00000  Uiso   1.00
H596   H     0.53005   0.37046   0.57371   0.00000  Uiso   1.00
H597   H     0.45611   0.44478   0.37353   0.00000  Uiso   1.00
H598   H     0.54406   0.55516   0.62654   0.00000  Uiso   1.00
N599   N     0.50001   0.50001   0.61736   0.00000  Uiso   1.00
N600   N     0.49999   0.49999   0.38264   0.00000  Uiso   1.00
O601   O     0.50000   0.43989   0.53958   0.00000  Uiso   1.00
O602   O     0.50000   0.56011   0.46042   0.00000  Uiso   1.00
O603   O     0.50000   0.43988   0.46039   0.00000  Uiso   1.00
O604   O     0.50000   0.56012   0.53961   0.00000  Uiso   1.00
O605   O     0.42495   0.50000   0.53046   0.00000  Uiso   1.00
O606   O     0.57505   0.50000   0.46954   0.00000  Uiso   1.00
O607   O     0.42494   0.49999   0.45127   0.00000  Uiso   1.00
O608   O     0.57506   0.50001   0.54873   0.00000  Uiso   1.00
C609   C     0.44758   0.43373   0.61607   0.00000  Uiso   1.00
O610   O     0.41111   0.43926   0.58587   0.00000  Uiso   1.00
O611   O     0.46067   0.39364   0.63071   0.00000  Uiso   1.00
H612   H     0.43825   0.37186   0.61250   0.00000  Uiso   1.00
C613   C     0.55182   0.56639   0.38411   0.00000  Uiso   1.00
O614   O     0.53705   0.60129   0.37424   0.00000  Uiso   1.00
O615   O     0.59655   0.56063   0.41527   0.00000  Uiso   1.00
H616   H     0.61194   0.58748   0.42903   0.00000  Uiso   1.00
C617   C     0.83317   0.42078   0.50017   0.00000  Uiso   1.00
C618   C     0.83343   0.57922   0.49983   0.00000  Uiso   1.00
C619   C     0.73472   0.49980   0.48806   0.00000  Uiso   1.00
C620   C     0.93195   0.50008   0.51195   0.00000  Uiso   1.00
C621   C     0.67949   0.49922   0.48150   0.00000  Uiso   1.00
C622   C     0.98719   0.50042   0.51853   0.00000  Uiso   1.00
C623   C     0.81647   0.35491   0.45871   0.00000  Uiso   1.00
C624   C     0.84989   0.64510   0.54134   0.00000  Uiso   1.00
C625   C     0.81657   0.64556   0.45852   0.00000  Uiso   1.00
C626   C     0.84973   0.35445   0.54156   0.00000  Uiso   1.00
C627   C     0.83347   0.62388   0.49977   0.00000  Uiso   1.00
C628   C     0.83297   0.37613   0.50027   0.00000  Uiso   1.00
C629   C     0.80918   0.46918   0.35633   0.00000  Uiso   1.00
C630   C     0.85765   0.53075   0.64370   0.00000  Uiso   1.00
C631   C     0.80864   0.46896   0.64038   0.00000  Uiso   1.00
C632   C     0.85799   0.53104   0.35964   0.00000  Uiso   1.00
Cu633  Cu    0.83333   0.50001   0.54689   0.00000  Uiso   1.00
Cu634  Cu    0.83333   0.49999   0.45311   0.00000  Uiso   1.00
H635   H     0.99317   0.49767   0.44590   0.00000  Uiso   1.00
H636   H     0.67353   0.50185   0.55414   0.00000  Uiso   1.00
H637   H     0.80299   0.37125   0.42653   0.00000  Uiso   1.00
H638   H     0.86333   0.62876   0.57353   0.00000  Uiso   1.00
H639   H     0.80269   0.62957   0.42641   0.00000  Uiso   1.00
H640   H     0.86338   0.37046   0.57371   0.00000  Uiso   1.00
H641   H     0.78944   0.44478   0.37353   0.00000  Uiso   1.00
H642   H     0.87740   0.55516   0.62654   0.00000  Uiso   1.00
N643   N     0.83335   0.50001   0.61736   0.00000  Uiso   1.00
N644   N     0.83332   0.49999   0.38264   0.00000  Uiso   1.00
O645   O     0.83333   0.43989   0.53958   0.00000  Uiso   1.00
O646   O     0.83334   0.56011   0.46042   0.00000  Uiso   1.00
O647   O     0.83333   0.43988   0.46039   0.00000  Uiso   1.00
O648   O     0.83334   0.56012   0.53961   0.00000  Uiso   1.00
O649   O     0.75828   0.50000   0.53046   0.00000  Uiso   1.00
O650   O     0.90839   0.50000   0.46954   0.00000  Uiso   1.00
O651   O     0.75828   0.49999   0.45127   0.00000  Uiso   1.00
O652   O     0.90839   0.50001   0.54873   0.00000  Uiso   1.00
C653   C     0.78092   0.43373   0.61607   0.00000  Uiso   1.00
O654   O     0.74445   0.43926   0.58587   0.00000  Uiso   1.00
O655   O     0.79400   0.39364   0.63071   0.00000  Uiso   1.00
H656   H     0.77158   0.37186   0.61250   0.00000  Uiso   1.00
C657   C     0.88515   0.56639   0.38411   0.00000  Uiso   1.00
O658   O     0.87038   0.60129   0.37424   0.00000  Uiso   1.00
O659   O     0.92988   0.56063   0.41527   0.00000  Uiso   1.00
H660   H     0.94527   0.58748   0.42903   0.00000  Uiso   1.00
C661   C     0.16650   0.75411   0.50017   0.00000  Uiso   1.00
C662   C     0.16676   0.91256   0.49983   0.00000  Uiso   1.00
C663   C     0.06806   0.83313   0.48806   0.00000  Uiso   1.00
C664   C     0.26528   0.83341   0.51195   0.00000  Uiso   1.00
C665   C     0.01282   0.83255   0.48150   0.00000  Uiso   1.00
C666   C     0.32052   0.83376   0.51853   0.00000  Uiso   1.00
C667   C     0.14981   0.68824   0.45871   0.00000  Uiso   1.00
C668   C     0.18322   0.97843   0.54134   0.00000  Uiso   1.00
C669   C     0.14990   0.97889   0.45852   0.00000  Uiso   1.00
C670   C     0.18306   0.68779   0.54156   0.00000  Uiso   1.00
C671   C     0.16680   0.95721   0.49977   0.00000  Uiso   1.00
C672   C     0.16631   0.70946   0.50027   0.00000  Uiso   1.00
C673   C     0.14251   0.80251   0.35633   0.00000  Uiso   1.00
C674   C     0.19099   0.86408   0.64370   0.00000  Uiso   1.00
C675   C     0.14198   0.80229   0.64038   0.00000  Uiso   1.00
C676   C     0.19132   0.86437   0.35964   0.00000  Uiso   1.00
Cu677  Cu    0.16667   0.83334   0.54689   0.00000  Uiso   1.00
Cu678  Cu    0.16667   0.83333   0.45311   0.00000  Uiso   1.00
H679   H     0.32651   0.83101   0.44590   0.00000  Uiso   1.00
H680   H     0.00686   0.83518   0.55414   0.00000  Uiso   1.00
H681   H     0.13633   0.70458   0.42653   0.00000  Uiso   1.00
H682   H     0.19666   0.96210   0.57353   0.00000  Uiso   1.00
H683   H     0.13603   0.96290   0.42641   0.00000  Uiso   1.00
H684   H     0.19672   0.70379   0.57371   0.00000  Uiso   1.00
H685   H     0.12278   0.77811   0.37353   0.00000  Uiso   1.00
H686   H     0.21073   0.88849   0.62654   0.00000  Uiso   1.00
N687   N     0.16668   0.83334   0.61736   0.00000  Uiso   1.00
N688   N     0.16665   0.83332   0.38264   0.00000  Uiso   1.00
O689   O     0.16666   0.77322   0.53958   0.00000  Uiso   1.00
O690   O     0.16667   0.89345   0.46042   0.00000  Uiso   1.00
O691   O     0.16666   0.77321   0.46039   0.00000  Uiso   1.00
O692   O     0.16667   0.89346   0.53961   0.00000  Uiso   1.00
O693   O     0.09161   0.83334   0.53046   0.00000  Uiso   1.00
O694   O     0.24172   0.83333   0.46954   0.00000  Uiso   1.00
O695   O     0.09161   0.83333   0.45127   0.00000  Uiso   1.00
O696   O     0.24172   0.83334   0.54873   0.00000  Uiso   1.00
C697   C     0.11425   0.76707   0.61607   0.00000  Uiso   1.00
O698   O     0.07778   0.77259   0.58587   0.00000  Uiso   1.00
O699   O     0.12734   0.72697   0.63071   0.00000  Uiso   1.00
H700   H     0.10491   0.70519   0.61250   0.00000  Uiso   1.00
C701   C     0.21848   0.89972   0.38411   0.00000  Uiso   1.00
O702   O     0.20372   0.93462   0.37424   0.00000  Uiso   1.00
O703   O     0.26322   0.89397   0.41527   0.00000  Uiso   1.00
H704   H     0.27860   0.92082   0.42903   0.00000  Uiso   1.00
C705   C     0.49983   0.75411   0.50017   0.00000  Uiso   1.00
C706   C     0.50010   0.91256   0.49983   0.00000  Uiso   1.00
C707   C     0.40139   0.83313   0.48806   0.00000  Uiso   1.00
C708   C     0.59861   0.83341   0.51195   0.00000  Uiso   1.00
C709   C     0.34616   0.83255   0.48150   0.00000  Uiso   1.00
C710   C     0.65386   0.83376   0.51853   0.00000  Uiso   1.00
C711   C     0.48314   0.68824   0.45871   0.00000  Uiso   1.00
C712   C     0.51655   0.97843   0.54134   0.00000  Uiso   1.00
C713   C     0.48323   0.97889   0.45852   0.00000  Uiso   1.00
C714   C     0.51639   0.68779   0.54156   0.00000  Uiso   1.00
C715   C     0.50013   0.95721   0.49977   0.00000  Uiso   1.00
C716   C     0.49964   0.70946   0.50027   0.00000  Uiso   1.00
C717   C     0.47584   0.80251   0.35633   0.00000  Uiso   1.00
C718   C     0.52432   0.86408   0.64370   0.00000  Uiso   1.00
C719   C     0.47531   0.80229   0.64038   0.00000  Uiso   1.00
C720   C     0.52466   0.86437   0.35964   0.00000  Uiso   1.00
Cu721  Cu    0.50000   0.83334   0.54689   0.00000  Uiso   1.00
Cu722  Cu    0.50000   0.83333   0.45311   0.00000  Uiso   1.00
H723   H     0.65984   0.83101   0.44590   0.00000  Uiso   1.00
H724   H     0.34019   0.83518   0.55414   0.00000  Uiso   1.00
H725   H     0.46966   0.70458   0.42653   0.00000  Uiso   1.00
H726   H     0.53000   0.96210   0.57353   0.00000  Uiso   1.00
H727   H     0.46936   0.96290   0.42641   0.00000  Uiso   1.00
H728   H     0.53005   0.70379   0.57371   0.00000  Uiso   1.00
H729   H     0.45611   0.77811   0.37353   0.00000  Uiso   1.00
H730   H     0.54406   0.88849   0.62654   0.00000  Uiso   1.00
N731   N     0.50001   0.83334   0.61736   0.00000  Uiso   1.00
N732   N     0.49999   0.83332   0.38264   0.00000  Uiso   1.00
O733   O     0.50000   0.77322   0.53958   0.00000  Uiso   1.00
O734   O     0.50000   0.89345   0.46042   0.00000  Uiso   1.00
O735   O     0.50000   0.77321   0.46039   0.00000  Uiso   1.00
O736   O     0.50000   0.89346   0.53961   0.00000  Uiso   1.00
O737   O     0.42495   0.83334   0.53046   0.00000  Uiso   1.00
O738   O     0.57505   0.83333   0.46954   0.00000  Uiso   1.00
O739   O     0.42494   0.83333   0.45127   0.00000  Uiso   1.00
O740   O     0.57506   0.83334   0.54873   0.00000  Uiso   1.00
C741   C     0.44758   0.76707   0.61607   0.00000  Uiso   1.00
O742   O     0.41111   0.77259   0.58587   0.00000  Uiso   1.00
O743   O     0.46067   0.72697   0.63071   0.00000  Uiso   1.00
H744   H     0.43825   0.70519   0.61250   0.00000  Uiso   1.00
C745   C     0.55182   0.89972   0.38411   0.00000  Uiso   1.00
O746   O     0.53705   0.93462   0.37424   0.00000  Uiso   1.00
O747   O     0.59655   0.89397   0.41527   0.00000  Uiso   1.00
H748   H     0.61194   0.92082   0.42903   0.00000  Uiso   1.00
C749   C     0.83317   0.75411   0.50017   0.00000  Uiso   1.00
C750   C     0.83343   0.91256   0.49983   0.00000  Uiso   1.00
C751   C     0.73472   0.83313   0.48806   0.00000  Uiso   1.00
C752   C     0.93195   0.83341   0.51195   0.00000  Uiso   1.00
C753   C     0.67949   0.83255   0.48150   0.00000  Uiso   1.00
C754   C     0.98719   0.83376   0.51853   0.00000  Uiso   1.00
C755   C     0.81647   0.68824   0.45871   0.00000  Uiso   1.00
C756   C     0.84989   0.97843   0.54134   0.00000  Uiso   1.00
C757   C     0.81657   0.97889   0.45852   0.00000  Uiso   1.00
C758   C     0.84973   0.68779   0.54156   0.00000  Uiso   1.00
C759   C     0.83347   0.95721   0.49977   0.00000  Uiso   1.00
C760   C     0.83297   0.70946   0.50027   0.00000  Uiso   1.00
C761   C     0.80918   0.80251   0.35633   0.00000  Uiso   1.00
C762   C     0.85765   0.86408   0.64370   0.00000  Uiso   1.00
C763   C     0.80864   0.80229   0.64038   0.00000  Uiso   1.00
C764   C     0.85799   0.86437   0.35964   0.00000  Uiso   1.00
Cu765  Cu    0.83333   0.83334   0.54689   0.00000  Uiso   1.00
Cu766  Cu    0.83333   0.83333   0.45311   0.00000  Uiso   1.00
H767   H     0.99317   0.83101   0.44590   0.00000  Uiso   1.00
H768   H     0.67353   0.83518   0.55414   0.00000  Uiso   1.00
H769   H     0.80299   0.70458   0.42653   0.00000  Uiso   1.00
H770   H     0.86333   0.96210   0.57353   0.00000  Uiso   1.00
H771   H     0.80269   0.96290   0.42641   0.00000  Uiso   1.00
H772   H     0.86338   0.70379   0.57371   0.00000  Uiso   1.00
H773   H     0.78944   0.77811   0.37353   0.00000  Uiso   1.00
H774   H     0.87740   0.88849   0.62654   0.00000  Uiso   1.00
N775   N     0.83335   0.83334   0.61736   0.00000  Uiso   1.00
N776   N     0.83332   0.83332   0.38264   0.00000  Uiso   1.00
O777   O     0.83333   0.77322   0.53958   0.00000  Uiso   1.00
O778   O     0.83334   0.89345   0.46042   0.00000  Uiso   1.00
O779   O     0.83333   0.77321   0.46039   0.00000  Uiso   1.00
O780   O     0.83334   0.89346   0.53961   0.00000  Uiso   1.00
O781   O     0.75828   0.83334   0.53046   0.00000  Uiso   1.00
O782   O     0.90839   0.83333   0.46954   0.00000  Uiso   1.00
O783   O     0.75828   0.83333   0.45127   0.00000  Uiso   1.00
O784   O     0.90839   0.83334   0.54873   0.00000  Uiso   1.00
C785   C     0.78092   0.76707   0.61607   0.00000  Uiso   1.00
O786   O     0.74445   0.77259   0.58587   0.00000  Uiso   1.00
O787   O     0.79400   0.72697   0.63071   0.00000  Uiso   1.00
H788   H     0.77158   0.70519   0.61250   0.00000  Uiso   1.00
C789   C     0.88515   0.89972   0.38411   0.00000  Uiso   1.00
O790   O     0.87038   0.93462   0.37424   0.00000  Uiso   1.00
O791   O     0.92988   0.89397   0.41527   0.00000  Uiso   1.00
H792   H     0.94527   0.92082   0.42903   0.00000  Uiso   1.00
C793   C     0.16650   0.08745   0.83350   0.00000  Uiso   1.00
C794   C     0.16676   0.24589   0.83316   0.00000  Uiso   1.00
C795   C     0.06806   0.16646   0.82139   0.00000  Uiso   1.00
C796   C     0.26528   0.16674   0.84528   0.00000  Uiso   1.00
C797   C     0.01282   0.16589   0.81484   0.00000  Uiso   1.00
C798   C     0.32052   0.16709   0.85186   0.00000  Uiso   1.00
C799   C     0.14981   0.02158   0.79204   0.00000  Uiso   1.00
C800   C     0.18322   0.31177   0.87468   0.00000  Uiso   1.00
C801   C     0.14990   0.31222   0.79185   0.00000  Uiso   1.00
C802   C     0.18306   0.02112   0.87489   0.00000  Uiso   1.00
C803   C     0.16680   0.29055   0.83310   0.00000  Uiso   1.00
C804   C     0.16631   0.04279   0.83360   0.00000  Uiso   1.00
C805   C     0.14251   0.13584   0.68967   0.00000  Uiso   1.00
C806   C     0.19099   0.19741   0.97703   0.00000  Uiso   1.00
C807   C     0.14198   0.13563   0.97372   0.00000  Uiso   1.00
C808   C     0.19132   0.19770   0.69298   0.00000  Uiso   1.00
Cu809  Cu    0.16667   0.16667   0.88022   0.00000  Uiso   1.00
Cu810  Cu    0.16667   0.16666   0.78645   0.00000  Uiso   1.00
H811   H     0.32651   0.16434   0.77923   0.00000  Uiso   1.00
H812   H     0.00686   0.16851   0.88748   0.00000  Uiso   1.00
H813   H     0.13633   0.03792   0.75987   0.00000  Uiso   1.00
H814   H     0.19666   0.29543   0.90686   0.00000  Uiso   1.00
H815   H     0.13603   0.29623   0.75975   0.00000  Uiso   1.00
H816   H     0.19672   0.03712   0.90705   0.00000  Uiso   1.00
H817   H     0.12278   0.11145   0.70686   0.00000  Uiso   1.00
H818   H     0.21073   0.22182   0.95987   0.00000  Uiso   1.00
N819   N     0.16668   0.16668   0.95069   0.00000  Uiso   1.00
N820   N     0.16665   0.16666   0.71597   0.00000  Uiso   1.00
O821   O     0.16666   0.10655   0.87291   0.00000  Uiso   1.00
O822   O     0.16667   0.22678   0.79375   0.00000  Uiso   1.00
O823   O     0.16666   0.10654   0.79372   0.00000  Uiso   1.00
O824   O     0.16667   0.22679   0.87294   0.00000  Uiso   1.00
O825   O     0.09161   0.16667   0.86379   0.00000  Uiso   1.00
O826   O     0.24172   0.16666   0.80288   0.00000  Uiso   1.00
O827   O     0.09161   0.16666   0.78460   0.00000  Uiso   1.00
O828   O     0.24172   0.16667   0.88207   0.00000  Uiso   1.00
C829   C     0.11425   0.10040   0.94940   0.00000  Uiso   1.00
O830   O     0.07778   0.10593   0.91921   0.00000  Uiso   1.00
O831   O     0.12734   0.06031   0.96405   0.00000  Uiso   1.00
H832   H     0.10491   0.03853   0.94583   0.00000  Uiso   1.00
C833   C     0.21848   0.23306   0.71745   0.00000  Uiso   1.00
O834   O     0.20372   0.26795   0.70757   0.00000  Uiso   1.00
O835   O     0.26322   0.22730   0.74860   0.00000  Uiso   1.00
H836   H     0.27860   0.25415   0.76236   0.00000  Uiso   1.00
C837   C     0.49983   0.08745   0.83350   0.00000  Uiso   1.00
C838   C     0.50010   0.24589   0.83316   0.00000  Uiso   1.00
C839   C     0.40139   0.16646   0.82139   0.00000  Uiso   1.00
C840   C     0.59861   0.16674   0.84528   0.00000  Uiso   1.00
C841   C     0.34616   0.16589   0.81484   0.00000  Uiso   1.00
C842   C     0.65386   0.16709   0.85186   0.00000  Uiso   1.00
C843   C     0.48314   0.02158   0.79204   0.00000  Uiso   1.00
C844   C     0.51655   0.31177   0.87468   0.00000  Uiso   1.00
C845   C     0.48323   0.31222   0.79185   0.00000  Uiso   1.00
C846   C     0.51639   0.02112   0.87489   0.00000  Uiso   1.00
C847   C     0.50013   0.29055   0.83310   0.00000  Uiso   1.00
C848   C     0.49964   0.04279   0.83360   0.00000  Uiso   1.00
C849   C     0.47584   0.13584   0.68967   0.00000  Uiso   1.00
C850   C     0.52432   0.19741   0.97703   0.00000  Uiso   1.00
C851   C     0.47531   0.13563   0.97372   0.00000  Uiso   1.00
C852   C     0.52466   0.19770   0.69298   0.00000  Uiso   1.00
Cu853  Cu    0.50000   0.16667   0.88022   0.00000  Uiso   1.00
Cu854  Cu    0.50000   0.16666   0.78645   0.00000  Uiso   1.00
H855   H     0.65984   0.16434   0.77923   0.00000  Uiso   1.00
H856   H     0.34019   0.16851   0.88748   0.00000  Uiso   1.00
H857   H     0.46966   0.03792   0.75987   0.00000  Uiso   1.00
H858   H     0.53000   0.29543   0.90686   0.00000  Uiso   1.00
H859   H     0.46936   0.29623   0.75975   0.00000  Uiso   1.00
H860   H     0.53005   0.03712   0.90705   0.00000  Uiso   1.00
H861   H     0.45611   0.11145   0.70686   0.00000  Uiso   1.00
H862   H     0.54406   0.22182   0.95987   0.00000  Uiso   1.00
N863   N     0.50001   0.16668   0.95069   0.00000  Uiso   1.00
N864   N     0.49999   0.16666   0.71597   0.00000  Uiso   1.00
O865   O     0.50000   0.10655   0.87291   0.00000  Uiso   1.00
O866   O     0.50000   0.22678   0.79375   0.00000  Uiso   1.00
O867   O     0.50000   0.10654   0.79372   0.00000  Uiso   1.00
O868   O     0.50000   0.22679   0.87294   0.00000  Uiso   1.00
O869   O     0.42495   0.16667   0.86379   0.00000  Uiso   1.00
O870   O     0.57505   0.16666   0.80288   0.00000  Uiso   1.00
O871   O     0.42494   0.16666   0.78460   0.00000  Uiso   1.00
O872   O     0.57506   0.16667   0.88207   0.00000  Uiso   1.00
C873   C     0.44758   0.10040   0.94940   0.00000  Uiso   1.00
O874   O     0.41111   0.10593   0.91921   0.00000  Uiso   1.00
O875   O     0.46067   0.06031   0.96405   0.00000  Uiso   1.00
H876   H     0.43825   0.03853   0.94583   0.00000  Uiso   1.00
C877   C     0.55182   0.23306   0.71745   0.00000  Uiso   1.00
O878   O     0.53705   0.26795   0.70757   0.00000  Uiso   1.00
O879   O     0.59655   0.22730   0.74860   0.00000  Uiso   1.00
H880   H     0.61194   0.25415   0.76236   0.00000  Uiso   1.00
C881   C     0.83317   0.08745   0.83350   0.00000  Uiso   1.00
C882   C     0.83343   0.24589   0.83316   0.00000  Uiso   1.00
C883   C     0.73472   0.16646   0.82139   0.00000  Uiso   1.00
C884   C     0.93195   0.16674   0.84528   0.00000  Uiso   1.00
C885   C     0.67949   0.16589   0.81484   0.00000  Uiso   1.00
C886   C     0.98719   0.16709   0.85186   0.00000  Uiso   1.00
C887   C     0.81647   0.02158   0.79204   0.00000  Uiso   1.00
C888   C     0.84989   0.31177   0.87468   0.00000  Uiso   1.00
C889   C     0.81657   0.31222   0.79185   0.00000  Uiso   1.00
C890   C     0.84973   0.02112   0.87489   0.00000  Uiso   1.00
C891   C     0.83347   0.29055   0.83310   0.00000  Uiso   1.00
C892   C     0.83297   0.04279   0.83360   0.00000  Uiso   1.00
C893   C     0.80918   0.13584   0.68967   0.00000  Uiso   1.00
C894   C     0.85765   0.19741   0.97703   0.00000  Uiso   1.00
C895   C     0.80864   0.13563   0.97372   0.00000  Uiso   1.00
C896   C     0.85799   0.19770   0.69298   0.00000  Uiso   1.00
Cu897  Cu    0.83333   0.16667   0.88022   0.00000  Uiso   1.00
Cu898  Cu    0.83333   0.16666   0.78645   0.00000  Uiso   1.00
H899   H     0.99317   0.16434   0.77923   0.00000  Uiso   1.00
H900   H     0.67353   0.16851   0.88748   0.00000  Uiso   1.00
H901   H     0.80299   0.03792   0.75987   0.00000  Uiso   1.00
H902   H     0.86333   0.29543   0.90686   0.00000  Uiso   1.00
H903   H     0.80269   0.29623   0.75975   0.00000  Uiso   1.00
H904   H     0.86338   0.03712   0.90705   0.00000  Uiso   1.00
H905   H     0.78944   0.11145   0.70686   0.00000  Uiso   1.00
H906   H     0.87740   0.22182   0.95987   0.00000  Uiso   1.00
N907   N     0.83335   0.16668   0.95069   0.00000  Uiso   1.00
N908   N     0.83332   0.16666   0.71597   0.00000  Uiso   1.00
O909   O     0.83333   0.10655   0.87291   0.00000  Uiso   1.00
O910   O     0.83334   0.22678   0.79375   0.00000  Uiso   1.00
O911   O     0.83333   0.10654   0.79372   0.00000  Uiso   1.00
O912   O     0.83334   0.22679   0.87294   0.00000  Uiso   1.00
O913   O     0.75828   0.16667   0.86379   0.00000  Uiso   1.00
O914   O     0.90839   0.16666   0.80288   0.00000  Uiso   1.00
O915   O     0.75828   0.16666   0.78460   0.00000  Uiso   1.00
O916   O     0.90839   0.16667   0.88207   0.00000  Uiso   1.00
C917   C     0.78092   0.10040   0.94940   0.00000  Uiso   1.00
O918   O     0.74445   0.10593   0.91921   0.00000  Uiso   1.00
O919   O     0.79400   0.06031   0.96405   0.00000  Uiso   1.00
H920   H     0.77158   0.03853   0.94583   0.00000  Uiso   1.00
C921   C     0.88515   0.23306   0.71745   0.00000  Uiso   1.00
O922   O     0.87038   0.26795   0.70757   0.00000  Uiso   1.00
O923   O     0.92988   0.22730   0.74860   0.00000  Uiso   1.00
H924   H     0.94527   0.25415   0.76236   0.00000  Uiso   1.00
C925   C     0.16650   0.42078   0.83350   0.00000  Uiso   1.00
C926   C     0.16676   0.57922   0.83316   0.00000  Uiso   1.00
C927   C     0.06806   0.49980   0.82139   0.00000  Uiso   1.00
C928   C     0.26528   0.50008   0.84528   0.00000  Uiso   1.00
C929   C     0.01282   0.49922   0.81484   0.00000  Uiso   1.00
C930   C     0.32052   0.50042   0.85186   0.00000  Uiso   1.00
C931   C     0.14981   0.35491   0.79204   0.00000  Uiso   1.00
C932   C     0.18322   0.64510   0.87468   0.00000  Uiso   1.00
C933   C     0.14990   0.64556   0.79185   0.00000  Uiso   1.00
C934   C     0.18306   0.35445   0.87489   0.00000  Uiso   1.00
C935   C     0.16680   0.62388   0.83310   0.00000  Uiso   1.00
C936   C     0.16631   0.37613   0.83360   0.00000  Uiso   1.00
C937   C     0.14251   0.46918   0.68967   0.00000  Uiso   1.00
C938   C     0.19099   0.53075   0.97703   0.00000  Uiso   1.00
C939   C     0.14198   0.46896   0.97372   0.00000  Uiso   1.00
C940   C     0.19132   0.53104   0.69298   0.00000  Uiso   1.00
Cu941  Cu    0.16667   0.50001   0.88022   0.00000  Uiso   1.00
Cu942  Cu    0.16667   0.49999   0.78645   0.00000  Uiso   1.00
H943   H     0.32651   0.49767   0.77923   0.00000  Uiso   1.00
H944   H     0.00686   0.50185   0.88748   0.00000  Uiso   1.00
H945   H     0.13633   0.37125   0.75987   0.00000  Uiso   1.00
H946   H     0.19666   0.62876   0.90686   0.00000  Uiso   1.00
H947   H     0.13603   0.62957   0.75975   0.00000  Uiso   1.00
H948   H     0.19672   0.37046   0.90705   0.00000  Uiso   1.00
H949   H     0.12278   0.44478   0.70686   0.00000  Uiso   1.00
H950   H     0.21073   0.55516   0.95987   0.00000  Uiso   1.00
N951   N     0.16668   0.50001   0.95069   0.00000  Uiso   1.00
N952   N     0.16665   0.49999   0.71597   0.00000  Uiso   1.00
O953   O     0.16666   0.43989   0.87291   0.00000  Uiso   1.00
O954   O     0.16667   0.56011   0.79375   0.00000  Uiso   1.00
O955   O     0.16666   0.43988   0.79372   0.00000  Uiso   1.00
O956   O     0.16667   0.56012   0.87294   0.00000  Uiso   1.00
O957   O     0.09161   0.50000   0.86379   0.00000  Uiso   1.00
O958   O     0.24172   0.50000   0.80288   0.00000  Uiso   1.00
O959   O     0.09161   0.49999   0.78460   0.00000  Uiso   1.00
O960   O     0.24172   0.50001   0.88207   0.00000  Uiso   1.00
C961   C     0.11425   0.43373   0.94940   0.00000  Uiso   1.00
O962   O     0.07778   0.43926   0.91921   0.00000  Uiso   1.00
O963   O     0.12734   0.39364   0.96405   0.00000  Uiso   1.00
H964   H     0.10491   0.37186   0.94583   0.00000  Uiso   1.00
C965   C     0.21848   0.56639   0.71745   0.00000  Uiso   1.00
O966   O     0.20372   0.60129   0.70757   0.00000  Uiso   1.00
O967   O     0.26322   0.56063   0.74860   0.00000  Uiso   1.00
H968   H     0.27860   0.58748   0.76236   0.00000  Uiso   1.00
C969   C     0.49983   0.42078   0.83350   0.00000  Uiso   1.00
C970   C     0.50010   0.57922   0.83316   0.00000  Uiso   1.00
C971   C     0.40139   0.49980   0.82139   0.00000  Uiso   1.00
C972   C     0.59861   0.50008   0.84528   0.00000  Uiso   1.00
C973   C     0.34616   0.49922   0.81484   0.00000  Uiso   1.00
C974   C     0.65386   0.50042   0.85186   0.00000  Uiso   1.00
C975   C     0.48314   0.35491   0.79204   0.00000  Uiso   1.00
C976   C     0.51655   0.64510   0.87468   0.00000  Uiso   1.00
C977   C     0.48323   0.64556   0.79185   0.00000  Uiso   1.00
C978   C     0.51639   0.35445   0.87489   0.00000  Uiso   1.00
C979   C     0.50013   0.62388   0.83310   0.00000  Uiso   1.00
C980   C     0.49964   0.37613   0.83360   0.00000  Uiso   1.00
C981   C     0.47584   0.46918   0.68967   0.00000  Uiso   1.00
C982   C     0.52432   0.53075   0.97703   0.00000  Uiso   1.00
C983   C     0.47531   0.46896   0.97372   0.00000  Uiso   1.00
C984   C     0.52466   0.53104   0.69298   0.00000  Uiso   1.00
Cu985  Cu    0.50000   0.50001   0.88022   0.00000  Uiso   1.00
Cu986  Cu    0.50000   0.49999   0.78645   0.00000  Uiso   1.00
H987   H     0.65984   0.49767   0.77923   0.00000  Uiso   1.00
H988   H     0.34019   0.50185   0.88748   0.00000  Uiso   1.00
H989   H     0.46966   0.37125   0.75987   0.00000  Uiso   1.00
H990   H     0.53000   0.62876   0.90686   0.00000  Uiso   1.00
H991   H     0.46936   0.62957   0.75975   0.00000  Uiso   1.00
H992   H     0.53005   0.37046   0.90705   0.00000  Uiso   1.00
H993   H     0.45611   0.44478   0.70686   0.00000  Uiso   1.00
H994   H     0.54406   0.55516   0.95987   0.00000  Uiso   1.00
N995   N     0.50001   0.50001   0.95069   0.00000  Uiso   1.00
N996   N     0.49999   0.49999   0.71597   0.00000  Uiso   1.00
O997   O     0.50000   0.43989   0.87291   0.00000  Uiso   1.00
O998   O     0.50000   0.56011   0.79375   0.00000  Uiso   1.00
O999   O     0.50000   0.43988   0.79372   0.00000  Uiso   1.00
O1000  O     0.50000   0.56012   0.87294   0.00000  Uiso   1.00
O1001  O     0.42495   0.50000   0.86379   0.00000  Uiso   1.00
O1002  O     0.57505   0.50000   0.80288   0.00000  Uiso   1.00
O1003  O     0.42494   0.49999   0.78460   0.00000  Uiso   1.00
O1004  O     0.57506   0.50001   0.88207   0.00000  Uiso   1.00
C1005  C     0.44758   0.43373   0.94940   0.00000  Uiso   1.00
O1006  O     0.41111   0.43926   0.91921   0.00000  Uiso   1.00
O1007  O     0.46067   0.39364   0.96405   0.00000  Uiso   1.00
H1008  H     0.43825   0.37186   0.94583   0.00000  Uiso   1.00
C1009  C     0.55182   0.56639   0.71745   0.00000  Uiso   1.00
O1010  O     0.53705   0.60129   0.70757   0.00000  Uiso   1.00
O1011  O     0.59655   0.56063   0.74860   0.00000  Uiso   1.00
H1012  H     0.61194   0.58748   0.76236   0.00000  Uiso   1.00
C1013  C     0.83317   0.42078   0.83350   0.00000  Uiso   1.00
C1014  C     0.83343   0.57922   0.83316   0.00000  Uiso   1.00
C1015  C     0.73472   0.49980   0.82139   0.00000  Uiso   1.00
C1016  C     0.93195   0.50008   0.84528   0.00000  Uiso   1.00
C1017  C     0.67949   0.49922   0.81484   0.00000  Uiso   1.00
C1018  C     0.98719   0.50042   0.85186   0.00000  Uiso   1.00
C1019  C     0.81647   0.35491   0.79204   0.00000  Uiso   1.00
C1020  C     0.84989   0.64510   0.87468   0.00000  Uiso   1.00
C1021  C     0.81657   0.64556   0.79185   0.00000  Uiso   1.00
C1022  C     0.84973   0.35445   0.87489   0.00000  Uiso   1.00
C1023  C     0.83347   0.62388   0.83310   0.00000  Uiso   1.00
C1024  C     0.83297   0.37613   0.83360   0.00000  Uiso   1.00
C1025  C     0.80918   0.46918   0.68967   0.00000  Uiso   1.00
C1026  C     0.85765   0.53075   0.97703   0.00000  Uiso   1.00
C1027  C     0.80864   0.46896   0.97372   0.00000  Uiso   1.00
C1028  C     0.85799   0.53104   0.69298   0.00000  Uiso   1.00
Cu1029 Cu    0.83333   0.50001   0.88022   0.00000  Uiso   1.00
Cu1030 Cu    0.83333   0.49999   0.78645   0.00000  Uiso   1.00
H1031  H     0.99317   0.49767   0.77923   0.00000  Uiso   1.00
H1032  H     0.67353   0.50185   0.88748   0.00000  Uiso   1.00
H1033  H     0.80299   0.37125   0.75987   0.00000  Uiso   1.00
H1034  H     0.86333   0.62876   0.90686   0.00000  Uiso   1.00
H1035  H     0.80269   0.62957   0.75975   0.00000  Uiso   1.00
H1036  H     0.86338   0.37046   0.90705   0.00000  Uiso   1.00
H1037  H     0.78944   0.44478   0.70686   0.00000  Uiso   1.00
H1038  H     0.87740   0.55516   0.95987   0.00000  Uiso   1.00
N1039  N     0.83335   0.50001   0.95069   0.00000  Uiso   1.00
N1040  N     0.83332   0.49999   0.71597   0.00000  Uiso   1.00
O1041  O     0.83333   0.43989   0.87291   0.00000  Uiso   1.00
O1042  O     0.83334   0.56011   0.79375   0.00000  Uiso   1.00
O1043  O     0.83333   0.43988   0.79372   0.00000  Uiso   1.00
O1044  O     0.83334   0.56012   0.87294   0.00000  Uiso   1.00
O1045  O     0.75828   0.50000   0.86379   0.00000  Uiso   1.00
O1046  O     0.90839   0.50000   0.80288   0.00000  Uiso   1.00
O1047  O     0.75828   0.49999   0.78460   0.00000  Uiso   1.00
O1048  O     0.90839   0.50001   0.88207   0.00000  Uiso   1.00
C1049  C     0.78092   0.43373   0.94940   0.00000  Uiso   1.00
O1050  O     0.74445   0.43926   0.91921   0.00000  Uiso   1.00
O1051  O     0.79400   0.39364   0.96405   0.00000  Uiso   1.00
H1052  H     0.77158   0.37186   0.94583   0.00000  Uiso   1.00
C1053  C     0.88515   0.56639   0.71745   0.00000  Uiso   1.00
O1054  O     0.87038   0.60129   0.70757   0.00000  Uiso   1.00
O1055  O     0.92988   0.56063   0.74860   0.00000  Uiso   1.00
H1056  H     0.94527   0.58748   0.76236   0.00000  Uiso   1.00
C1057  C     0.16650   0.75411   0.83350   0.00000  Uiso   1.00
C1058  C     0.16676   0.91256   0.83316   0.00000  Uiso   1.00
C1059  C     0.06806   0.83313   0.82139   0.00000  Uiso   1.00
C1060  C     0.26528   0.83341   0.84528   0.00000  Uiso   1.00
C1061  C     0.01282   0.83255   0.81484   0.00000  Uiso   1.00
C1062  C     0.32052   0.83376   0.85186   0.00000  Uiso   1.00
C1063  C     0.14981   0.68824   0.79204   0.00000  Uiso   1.00
C1064  C     0.18322   0.97843   0.87468   0.00000  Uiso   1.00
C1065  C     0.14990   0.97889   0.79185   0.00000  Uiso   1.00
C1066  C     0.18306   0.68779   0.87489   0.00000  Uiso   1.00
C1067  C     0.16680   0.95721   0.83310   0.00000  Uiso   1.00
C1068  C     0.16631   0.70946   0.83360   0.00000  Uiso   1.00
C1069  C     0.14251   0.80251   0.68967   0.00000  Uiso   1.00
C1070  C     0.19099   0.86408   0.97703   0.00000  Uiso   1.00
C1071  C     0.14198   0.80229   0.97372   0.00000  Uiso   1.00
C1072  C     0.19132   0.86437   0.69298   0.00000  Uiso   1.00
Cu1073 Cu    0.16667   0.83334   0.88022   0.00000  Uiso   1.00
Cu1074 Cu    0.16667   0.83333   0.78645   0.00000  Uiso   1.00
H1075  H     0.32651   0.83101   0.77923   0.00000  Uiso   1.00
H1076  H     0.00686   0.83518   0.88748   0.00000  Uiso   1.00
H1077  H     0.13633   0.70458   0.75987   0.00000  Uiso   1.00
H1078  H     0.19666   0.96210   0.90686   0.00000  Uiso   1.00
H1079  H     0.13603   0.96290   0.75975   0.00000  Uiso   1.00
H1080  H     0.19672   0.70379   0.90705   0.00000  Uiso   1.00
H1081  H     0.12278   0.77811   0.70686   0.00000  Uiso   1.00
H1082  H     0.21073   0.88849   0.95987   0.00000  Uiso   1.00
N1083  N     0.16668   0.83334   0.95069   0.00000  Uiso   1.00
N1084  N     0.16665   0.83332   0.71597   0.00000  Uiso   1.00
O1085  O     0.16666   0.77322   0.87291   0.00000  Uiso   1.00
O1086  O     0.16667   0.89345   0.79375   0.00000  Uiso   1.00
O1087  O     0.16666   0.77321   0.79372   0.00000  Uiso   1.00
O1088  O     0.16667   0.89346   0.87294   0.00000  Uiso   1.00
O1089  O     0.09161   0.83334   0.86379   0.00000  Uiso   1.00
O1090  O     0.24172   0.83333   0.80288   0.00000  Uiso   1.00
O1091  O     0.09161   0.83333   0.78460   0.00000  Uiso   1.00
O1092  O     0.24172   0.83334   0.88207   0.00000  Uiso   1.00
C1093  C     0.11425   0.76707   0.94940   0.00000  Uiso   1.00
O1094  O     0.07778   0.77259   0.91921   0.00000  Uiso   1.00
O1095  O     0.12734   0.72697   0.96405   0.00000  Uiso   1.00
H1096  H     0.10491   0.70519   0.94583   0.00000  Uiso   1.00
C1097  C     0.21848   0.89972   0.71745   0.00000  Uiso   1.00
O1098  O     0.20372   0.93462   0.70757   0.00000  Uiso   1.00
O1099  O     0.26322   0.89397   0.74860   0.00000  Uiso   1.00
H1100  H     0.27860   0.92082   0.76236   0.00000  Uiso   1.00
C1101  C     0.49983   0.75411   0.83350   0.00000  Uiso   1.00
C1102  C     0.50010   0.91256   0.83316   0.00000  Uiso   1.00
C1103  C     0.40139   0.83313   0.82139   0.00000  Uiso   1.00
C1104  C     0.59861   0.83341   0.84528   0.00000  Uiso   1.00
C1105  C     0.34616   0.83255   0.81484   0.00000  Uiso   1.00
C1106  C     0.65386   0.83376   0.85186   0.00000  Uiso   1.00
C1107  C     0.48314   0.68824   0.79204   0.00000  Uiso   1.00
C1108  C     0.51655   0.97843   0.87468   0.00000  Uiso   1.00
C1109  C     0.48323   0.97889   0.79185   0.00000  Uiso   1.00
C1110  C     0.51639   0.68779   0.87489   0.00000  Uiso   1.00
C1111  C     0.50013   0.95721   0.83310   0.00000  Uiso   1.00
C1112  C     0.49964   0.70946   0.83360   0.00000  Uiso   1.00
C1113  C     0.47584   0.80251   0.68967   0.00000  Uiso   1.00
C1114  C     0.52432   0.86408   0.97703   0.00000  Uiso   1.00
C1115  C     0.47531   0.80229   0.97372   0.00000  Uiso   1.00
C1116  C     0.52466   0.86437   0.69298   0.00000  Uiso   1.00
Cu1117 Cu    0.50000   0.83334   0.88022   0.00000  Uiso   1.00
Cu1118 Cu    0.50000   0.83333   0.78645   0.00000  Uiso   1.00
H1119  H     0.65984   0.83101   0.77923   0.00000  Uiso   1.00
H1120  H     0.34019   0.83518   0.88748   0.00000  Uiso   1.00
H1121  H     0.46966   0.70458   0.75987   0.00000  Uiso   1.00
H1122  H     0.53000   0.96210   0.90686   0.00000  Uiso   1.00
H1123  H     0.46936   0.96290   0.75975   0.00000  Uiso   1.00
H1124  H     0.53005   0.70379   0.90705   0.00000  Uiso   1.00
H1125  H     0.45611   0.77811   0.70686   0.00000  Uiso   1.00
H1126  H     0.54406   0.88849   0.95987   0.00000  Uiso   1.00
N1127  N     0.50001   0.83334   0.95069   0.00000  Uiso   1.00
N1128  N     0.49999   0.83332   0.71597   0.00000  Uiso   1.00
O1129  O     0.50000   0.77322   0.87291   0.00000  Uiso   1.00
O1130  O     0.50000   0.89345   0.79375   0.00000  Uiso   1.00
O1131  O     0.50000   0.77321   0.79372   0.00000  Uiso   1.00
O1132  O     0.50000   0.89346   0.87294   0.00000  Uiso   1.00
O1133  O     0.42495   0.83334   0.86379   0.00000  Uiso   1.00
O1134  O     0.57505   0.83333   0.80288   0.00000  Uiso   1.00
O1135  O     0.42494   0.83333   0.78460   0.00000  Uiso   1.00
O1136  O     0.57506   0.83334   0.88207   0.00000  Uiso   1.00
C1137  C     0.44758   0.76707   0.94940   0.00000  Uiso   1.00
O1138  O     0.41111   0.77259   0.91921   0.00000  Uiso   1.00
O1139  O     0.46067   0.72697   0.96405   0.00000  Uiso   1.00
H1140  H     0.43825   0.70519   0.94583   0.00000  Uiso   1.00
C1141  C     0.55182   0.89972   0.71745   0.00000  Uiso   1.00
O1142  O     0.53705   0.93462   0.70757   0.00000  Uiso   1.00
O1143  O     0.59655   0.89397   0.74860   0.00000  Uiso   1.00
H1144  H     0.61194   0.92082   0.76236   0.00000  Uiso   1.00
C1145  C     0.83317   0.75411   0.83350   0.00000  Uiso   1.00
C1146  C     0.83343   0.91256   0.83316   0.00000  Uiso   1.00
C1147  C     0.73472   0.83313   0.82139   0.00000  Uiso   1.00
C1148  C     0.93195   0.83341   0.84528   0.00000  Uiso   1.00
C1149  C     0.67949   0.83255   0.81484   0.00000  Uiso   1.00
C1150  C     0.98719   0.83376   0.85186   0.00000  Uiso   1.00
C1151  C     0.81647   0.68824   0.79204   0.00000  Uiso   1.00
C1152  C     0.84989   0.97843   0.87468   0.00000  Uiso   1.00
C1153  C     0.81657   0.97889   0.79185   0.00000  Uiso   1.00
C1154  C     0.84973   0.68779   0.87489   0.00000  Uiso   1.00
C1155  C     0.83347   0.95721   0.83310   0.00000  Uiso   1.00
C1156  C     0.83297   0.70946   0.83360   0.00000  Uiso   1.00
C1157  C     0.80918   0.80251   0.68967   0.00000  Uiso   1.00
C1158  C     0.85765   0.86408   0.97703   0.00000  Uiso   1.00
C1159  C     0.80864   0.80229   0.97372   0.00000  Uiso   1.00
C1160  C     0.85799   0.86437   0.69298   0.00000  Uiso   1.00
Cu1161 Cu    0.83333   0.83334   0.88022   0.00000  Uiso   1.00
Cu1162 Cu    0.83333   0.83333   0.78645   0.00000  Uiso   1.00
H1163  H     0.99317   0.83101   0.77923   0.00000  Uiso   1.00
H1164  H     0.67353   0.83518   0.88748   0.00000  Uiso   1.00
H1165  H     0.80299   0.70458   0.75987   0.00000  Uiso   1.00
H1166  H     0.86333   0.96210   0.90686   0.00000  Uiso   1.00
H1167  H     0.80269   0.96290   0.75975   0.00000  Uiso   1.00
H1168  H     0.86338   0.70379   0.90705   0.00000  Uiso   1.00
H1169  H     0.78944   0.77811   0.70686   0.00000  Uiso   1.00
H1170  H     0.87740   0.88849   0.95987   0.00000  Uiso   1.00
N1171  N     0.83335   0.83334   0.95069   0.00000  Uiso   1.00
N1172  N     0.83332   0.83332   0.71597   0.00000  Uiso   1.00
O1173  O     0.83333   0.77322   0.87291   0.00000  Uiso   1.00
O1174  O     0.83334   0.89345   0.79375   0.00000  Uiso   1.00
O1175  O     0.83333   0.77321   0.79372   0.00000  Uiso   1.00
O1176  O     0.83334   0.89346   0.87294   0.00000  Uiso   1.00
O1177  O     0.75828   0.83334   0.86379   0.00000  Uiso   1.00
O1178  O     0.90839   0.83333   0.80288   0.00000  Uiso   1.00
O1179  O     0.75828   0.83333   0.78460   0.00000  Uiso   1.00
O1180  O     0.90839   0.83334   0.88207   0.00000  Uiso   1.00
C1181  C     0.78092   0.76707   0.94940   0.00000  Uiso   1.00
O1182  O     0.74445   0.77259   0.91921   0.00000  Uiso   1.00
O1183  O     0.79400   0.72697   0.96405   0.00000  Uiso   1.00
H1184  H     0.77158   0.70519   0.94583   0.00000  Uiso   1.00
C1185  C     0.88515   0.89972   0.71745   0.00000  Uiso   1.00
O1186  O     0.87038   0.93462   0.70757   0.00000  Uiso   1.00
O1187  O     0.92988   0.89397   0.74860   0.00000  Uiso   1.00
H1188  H     0.94527   0.92082   0.76236   0.00000  Uiso   1.00
loop_
_geom_bond_atom_site_label_1
_geom_bond_atom_site_label_2
_geom_bond_distance
_geom_bond_site_symmetry_2
_ccdc_geom_bond_type
C1     O29     1.300   .     A
C1     C12     1.448   .     S
C1     O31     1.295   .     A
C2     O30     1.300   .     A
C2     C11     1.448   .     S
C2     O32     1.294   .     A
C3     O35     1.293   .     A
C3     O33     1.294   .     A
C3     C5      1.433   .     S
C4     O36     1.292   .     A
C4     O34     1.294   .     A
C4     C6      1.433   .     S
C5     C94     1.332   1_455 S
C5     H107    1.087   1_455 S
C6     C49     1.332   .     S
C6     H64     1.087   .     S
C7     C12     1.402   .     A
C7     H21     1.083   .     S
C7     C273    1.384   1_545 S
C8     H22     1.083   .     S
C8     C11     1.402   .     A
C8     C142    1.384   .     S
C9     C11     1.399   .     A
C9     H23     1.083   .     S
C9     C139    1.384   .     S
C10    C12     1.399   .     A
C10    H24     1.083   .     S
C10    C272    1.384   1_545 S
C13    N28     1.355   .     A
C13    H25     1.083   .     S
C13    C807    1.417   1_554 S
C14    N27     1.356   .     A
C14    H26     1.083   .     S
C14    C412    1.418   .     S
C15    N27     1.390   .     A
C15    C37     1.473   .     S
C15    C409    1.417   .     S
C16    N28     1.389   .     A
C16    C41     1.472   .     S
C16    C806    1.418   1_554 S
Cu17   O36     1.958   .     S
Cu17   Cu18    2.699   .     S
Cu17   O33     1.960   .     S
Cu17   N27     2.029   .     S
Cu17   O29     1.964   .     S
Cu17   O32     1.958   .     S
Cu18   N28     2.029   .     S
Cu18   O30     1.964   .     S
Cu18   O34     1.960   .     S
Cu18   O35     1.958   .     S
Cu18   O31     1.958   .     S
H19    C49     1.087   .     S
H20    C94     1.087   1_455 S
C37    O38     1.220   .     D
C37    O39     1.398   .     S
O39    H40     1.014   .     S
C41    O43     1.394   .     S
C41    O42     1.223   .     D
O43    H44     1.014   .     S
C45    O73     1.300   .     A
C45    C56     1.448   .     S
C45    O75     1.295   .     A
C46    O74     1.300   .     A
C46    C55     1.448   .     S
C46    O76     1.294   .     A
C47    O79     1.293   .     A
C47    O77     1.294   .     A
C47    C49     1.433   .     S
C48    O80     1.292   .     A
C48    O78     1.294   .     A
C48    C50     1.433   .     S
C50    C93     1.332   .     S
C50    H108    1.087   .     S
C51    C56     1.402   .     A
C51    H65     1.083   .     S
C51    C317    1.384   1_545 S
C52    H66     1.083   .     S
C52    C55     1.402   .     A
C52    C186    1.384   .     S
C53    C55     1.399   .     A
C53    H67     1.083   .     S
C53    C183    1.384   .     S
C54    C56     1.399   .     A
C54    H68     1.083   .     S
C54    C316    1.384   1_545 S
C57    N72     1.355   .     A
C57    H69     1.083   .     S
C57    C851    1.417   1_554 S
C58    N71     1.356   .     A
C58    H70     1.083   .     S
C58    C456    1.418   .     S
C59    N71     1.390   .     A
C59    C81     1.473   .     S
C59    C453    1.417   .     S
C60    N72     1.389   .     A
C60    C85     1.472   .     S
C60    C850    1.418   1_554 S
Cu61   O80     1.958   .     S
Cu61   Cu62    2.699   .     S
Cu61   O77     1.960   .     S
Cu61   N71     2.029   .     S
Cu61   O73     1.964   .     S
Cu61   O76     1.958   .     S
Cu62   N72     2.029   .     S
Cu62   O74     1.964   .     S
Cu62   O78     1.960   .     S
Cu62   O79     1.958   .     S
Cu62   O75     1.958   .     S
H63    C93     1.087   .     S
C81    O82     1.220   .     D
C81    O83     1.398   .     S
O83    H84     1.014   .     S
C85    O87     1.394   .     S
C85    O86     1.223   .     D
O87    H88     1.014   .     S
C89    O117    1.300   .     A
C89    C100    1.448   .     S
C89    O119    1.295   .     A
C90    O118    1.300   .     A
C90    C99     1.448   .     S
C90    O120    1.294   .     A
C91    O123    1.293   .     A
C91    O121    1.294   .     A
C91    C93     1.433   .     S
C92    O124    1.292   .     A
C92    O122    1.294   .     A
C92    C94     1.433   .     S
C94    C5      1.332   1_655 S
C94    H20     1.087   1_655 S
C95    C100    1.402   .     A
C95    H109    1.083   .     S
C95    C361    1.384   1_545 S
C96    H110    1.083   .     S
C96    C99     1.402   .     A
C96    C230    1.384   .     S
C97    C99     1.399   .     A
C97    H111    1.083   .     S
C97    C227    1.384   .     S
C98    C100    1.399   .     A
C98    H112    1.083   .     S
C98    C360    1.384   1_545 S
C101   N116    1.355   .     A
C101   H113    1.083   .     S
C101   C895    1.417   1_554 S
C102   N115    1.356   .     A
C102   H114    1.083   .     S
C102   C500    1.418   .     S
C103   N115    1.390   .     A
C103   C125    1.473   .     S
C103   C497    1.417   .     S
C104   N116    1.389   .     A
C104   C129    1.472   .     S
C104   C894    1.418   1_554 S
Cu105  O124    1.958   .     S
Cu105  Cu106   2.699   .     S
Cu105  O121    1.960   .     S
Cu105  N115    2.029   .     S
Cu105  O117    1.964   .     S
Cu105  O120    1.958   .     S
Cu106  N116    2.029   .     S
Cu106  O118    1.964   .     S
Cu106  O122    1.960   .     S
Cu106  O123    1.958   .     S
Cu106  O119    1.958   .     S
H107   C5      1.087   1_655 S
C125   O126    1.220   .     D
C125   O127    1.398   .     S
O127   H128    1.014   .     S
C129   O131    1.394   .     S
C129   O130    1.223   .     D
O131   H132    1.014   .     S
C133   O161    1.300   .     A
C133   C144    1.448   .     S
C133   O163    1.295   .     A
C134   O162    1.300   .     A
C134   C143    1.448   .     S
C134   O164    1.294   .     A
C135   O167    1.293   .     A
C135   O165    1.294   .     A
C135   C137    1.433   .     S
C136   O168    1.292   .     A
C136   O166    1.294   .     A
C136   C138    1.433   .     S
C137   C226    1.332   1_455 S
C137   H239    1.087   1_455 S
C138   C181    1.332   .     S
C138   H196    1.087   .     S
C139   C144    1.402   .     A
C139   H153    1.083   .     S
C140   H154    1.083   .     S
C140   C143    1.402   .     A
C140   C274    1.384   .     S
C141   C143    1.399   .     A
C141   H155    1.083   .     S
C141   C271    1.384   .     S
C142   C144    1.399   .     A
C142   H156    1.083   .     S
C145   N160    1.355   .     A
C145   H157    1.083   .     S
C145   C939    1.417   1_554 S
C146   N159    1.356   .     A
C146   H158    1.083   .     S
C146   C544    1.418   .     S
C147   N159    1.390   .     A
C147   C169    1.473   .     S
C147   C541    1.417   .     S
C148   N160    1.389   .     A
C148   C173    1.472   .     S
C148   C938    1.418   1_554 S
Cu149  O168    1.958   .     S
Cu149  Cu150   2.699   .     S
Cu149  O165    1.960   .     S
Cu149  N159    2.029   .     S
Cu149  O161    1.964   .     S
Cu149  O164    1.958   .     S
Cu150  N160    2.029   .     S
Cu150  O162    1.964   .     S
Cu150  O166    1.960   .     S
Cu150  O167    1.958   .     S
Cu150  O163    1.958   .     S
H151   C181    1.087   .     S
H152   C226    1.087   1_455 S
C169   O170    1.220   .     D
C169   O171    1.398   .     S
O171   H172    1.014   .     S
C173   O175    1.394   .     S
C173   O174    1.223   .     D
O175   H176    1.014   .     S
C177   O205    1.300   .     A
C177   C188    1.448   .     S
C177   O207    1.295   .     A
C178   O206    1.300   .     A
C178   C187    1.448   .     S
C178   O208    1.294   .     A
C179   O211    1.293   .     A
C179   O209    1.294   .     A
C179   C181    1.433   .     S
C180   O212    1.292   .     A
C180   O210    1.294   .     A
C180   C182    1.433   .     S
C182   C225    1.332   .     S
C182   H240    1.087   .     S
C183   C188    1.402   .     A
C183   H197    1.083   .     S
C184   H198    1.083   .     S
C184   C187    1.402   .     A
C184   C318    1.384   .     S
C185   C187    1.399   .     A
C185   H199    1.083   .     S
C185   C315    1.384   .     S
C186   C188    1.399   .     A
C186   H200    1.083   .     S
C189   N204    1.355   .     A
C189   H201    1.083   .     S
C189   C983    1.417   1_554 S
C190   N203    1.356   .     A
C190   H202    1.083   .     S
C190   C588    1.418   .     S
C191   N203    1.390   .     A
C191   C213    1.473   .     S
C191   C585    1.417   .     S
C192   N204    1.389   .     A
C192   C217    1.472   .     S
C192   C982    1.418   1_554 S
Cu193  O212    1.958   .     S
Cu193  Cu194   2.699   .     S
Cu193  O209    1.960   .     S
Cu193  N203    2.029   .     S
Cu193  O205    1.964   .     S
Cu193  O208    1.958   .     S
Cu194  N204    2.029   .     S
Cu194  O206    1.964   .     S
Cu194  O210    1.960   .     S
Cu194  O211    1.958   .     S
Cu194  O207    1.958   .     S
H195   C225    1.087   .     S
C213   O214    1.220   .     D
C213   O215    1.398   .     S
O215   H216    1.014   .     S
C217   O219    1.394   .     S
C217   O218    1.223   .     D
O219   H220    1.014   .     S
C221   O249    1.300   .     A
C221   C232    1.448   .     S
C221   O251    1.295   .     A
C222   O250    1.300   .     A
C222   C231    1.448   .     S
C222   O252    1.294   .     A
C223   O255    1.293   .     A
C223   O253    1.294   .     A
C223   C225    1.433   .     S
C224   O256    1.292   .     A
C224   O254    1.294   .     A
C224   C226    1.433   .     S
C226   C137    1.332   1_655 S
C226   H152    1.087   1_655 S
C227   C232    1.402   .     A
C227   H241    1.083   .     S
C228   H242    1.083   .     S
C228   C231    1.402   .     A
C228   C362    1.384   .     S
C229   C231    1.399   .     A
C229   H243    1.083   .     S
C229   C359    1.384   .     S
C230   C232    1.399   .     A
C230   H244    1.083   .     S
C233   N248    1.355   .     A
C233   H245    1.083   .     S
C233   C1027   1.417   1_554 S
C234   N247    1.356   .     A
C234   H246    1.083   .     S
C234   C632    1.418   .     S
C235   N247    1.390   .     A
C235   C257    1.473   .     S
C235   C629    1.417   .     S
C236   N248    1.389   .     A
C236   C261    1.472   .     S
C236   C1026   1.418   1_554 S
Cu237  O256    1.958   .     S
Cu237  Cu238   2.699   .     S
Cu237  O253    1.960   .     S
Cu237  N247    2.029   .     S
Cu237  O249    1.964   .     S
Cu237  O252    1.958   .     S
Cu238  N248    2.029   .     S
Cu238  O250    1.964   .     S
Cu238  O254    1.960   .     S
Cu238  O255    1.958   .     S
Cu238  O251    1.958   .     S
H239   C137    1.087   1_655 S
C257   O258    1.220   .     D
C257   O259    1.398   .     S
O259   H260    1.014   .     S
C261   O263    1.394   .     S
C261   O262    1.223   .     D
O263   H264    1.014   .     S
C265   O293    1.300   .     A
C265   C276    1.448   .     S
C265   O295    1.295   .     A
C266   O294    1.300   .     A
C266   C275    1.448   .     S
C266   O296    1.294   .     A
C267   O299    1.293   .     A
C267   O297    1.294   .     A
C267   C269    1.433   .     S
C268   O300    1.292   .     A
C268   O298    1.294   .     A
C268   C270    1.433   .     S
C269   C358    1.332   1_455 S
C269   H371    1.087   1_455 S
C270   C313    1.332   .     S
C270   H328    1.087   .     S
C271   C276    1.402   .     A
C271   H285    1.083   .     S
C272   H286    1.083   .     S
C272   C275    1.402   .     A
C272   C10     1.384   1_565 S
C273   C275    1.399   .     A
C273   H287    1.083   .     S
C273   C7      1.384   1_565 S
C274   C276    1.399   .     A
C274   H288    1.083   .     S
C277   N292    1.355   .     A
C277   H289    1.083   .     S
C277   C1071   1.417   1_554 S
C278   N291    1.356   .     A
C278   H290    1.083   .     S
C278   C676    1.418   .     S
C279   N291    1.390   .     A
C279   C301    1.473   .     S
C279   C673    1.417   .     S
C280   N292    1.389   .     A
C280   C305    1.472   .     S
C280   C1070   1.418   1_554 S
Cu281  O300    1.958   .     S
Cu281  Cu282   2.699   .     S
Cu281  O297    1.960   .     S
Cu281  N291    2.029   .     S
Cu281  O293    1.964   .     S
Cu281  O296    1.958   .     S
Cu282  N292    2.029   .     S
Cu282  O294    1.964   .     S
Cu282  O298    1.960   .     S
Cu282  O299    1.958   .     S
Cu282  O295    1.958   .     S
H283   C313    1.087   .     S
H284   C358    1.087   1_455 S
C301   O302    1.220   .     D
C301   O303    1.398   .     S
O303   H304    1.014   .     S
C305   O307    1.394   .     S
C305   O306    1.223   .     D
O307   H308    1.014   .     S
C309   O337    1.300   .     A
C309   C320    1.448   .     S
C309   O339    1.295   .     A
C310   O338    1.300   .     A
C310   C319    1.448   .     S
C310   O340    1.294   .     A
C311   O343    1.293   .     A
C311   O341    1.294   .     A
C311   C313    1.433   .     S
C312   O344    1.292   .     A
C312   O342    1.294   .     A
C312   C314    1.433   .     S
C314   C357    1.332   .     S
C314   H372    1.087   .     S
C315   C320    1.402   .     A
C315   H329    1.083   .     S
C316   H330    1.083   .     S
C316   C319    1.402   .     A
C316   C54     1.384   1_565 S
C317   C319    1.399   .     A
C317   H331    1.083   .     S
C317   C51     1.384   1_565 S
C318   C320    1.399   .     A
C318   H332    1.083   .     S
C321   N336    1.355   .     A
C321   H333    1.083   .     S
C321   C1115   1.417   1_554 S
C322   N335    1.356   .     A
C322   H334    1.083   .     S
C322   C720    1.418   .     S
C323   N335    1.390   .     A
C323   C345    1.473   .     S
C323   C717    1.417   .     S
C324   N336    1.389   .     A
C324   C349    1.472   .     S
C324   C1114   1.418   1_554 S
Cu325  O344    1.958   .     S
Cu325  Cu326   2.699   .     S
Cu325  O341    1.960   .     S
Cu325  N335    2.029   .     S
Cu325  O337    1.964   .     S
Cu325  O340    1.958   .     S
Cu326  N336    2.029   .     S
Cu326  O338    1.964   .     S
Cu326  O342    1.960   .     S
Cu326  O343    1.958   .     S
Cu326  O339    1.958   .     S
H327   C357    1.087   .     S
C345   O346    1.220   .     D
C345   O347    1.398   .     S
O347   H348    1.014   .     S
C349   O351    1.394   .     S
C349   O350    1.223   .     D
O351   H352    1.014   .     S
C353   O381    1.300   .     A
C353   C364    1.448   .     S
C353   O383    1.295   .     A
C354   O382    1.300   .     A
C354   C363    1.448   .     S
C354   O384    1.294   .     A
C355   O387    1.293   .     A
C355   O385    1.294   .     A
C355   C357    1.433   .     S
C356   O388    1.292   .     A
C356   O386    1.294   .     A
C356   C358    1.433   .     S
C358   C269    1.332   1_655 S
C358   H284    1.087   1_655 S
C359   C364    1.402   .     A
C359   H373    1.083   .     S
C360   H374    1.083   .     S
C360   C363    1.402   .     A
C360   C98     1.384   1_565 S
C361   C363    1.399   .     A
C361   H375    1.083   .     S
C361   C95     1.384   1_565 S
C362   C364    1.399   .     A
C362   H376    1.083   .     S
C365   N380    1.355   .     A
C365   H377    1.083   .     S
C365   C1159   1.417   1_554 S
C366   N379    1.356   .     A
C366   H378    1.083   .     S
C366   C764    1.418   .     S
C367   N379    1.390   .     A
C367   C389    1.473   .     S
C367   C761    1.417   .     S
C368   N380    1.389   .     A
C368   C393    1.472   .     S
C368   C1158   1.418   1_554 S
Cu369  O388    1.958   .     S
Cu369  Cu370   2.699   .     S
Cu369  O385    1.960   .     S
Cu369  N379    2.029   .     S
Cu369  O381    1.964   .     S
Cu369  O384    1.958   .     S
Cu370  N380    2.029   .     S
Cu370  O382    1.964   .     S
Cu370  O386    1.960   .     S
Cu370  O387    1.958   .     S
Cu370  O383    1.958   .     S
H371   C269    1.087   1_655 S
C389   O390    1.220   .     D
C389   O391    1.398   .     S
O391   H392    1.014   .     S
C393   O395    1.394   .     S
C393   O394    1.223   .     D
O395   H396    1.014   .     S
C397   O425    1.300   .     A
C397   C408    1.448   .     S
C397   O427    1.295   .     A
C398   O426    1.300   .     A
C398   C407    1.448   .     S
C398   O428    1.294   .     A
C399   O431    1.293   .     A
C399   O429    1.294   .     A
C399   C401    1.433   .     S
C400   O432    1.292   .     A
C400   O430    1.294   .     A
C400   C402    1.433   .     S
C401   C490    1.332   1_455 S
C401   H503    1.087   1_455 S
C402   C445    1.332   .     S
C402   H460    1.087   .     S
C403   C408    1.402   .     A
C403   H417    1.083   .     S
C403   C669    1.384   1_545 S
C404   H418    1.083   .     S
C404   C407    1.402   .     A
C404   C538    1.384   .     S
C405   C407    1.399   .     A
C405   H419    1.083   .     S
C405   C535    1.384   .     S
C406   C408    1.399   .     A
C406   H420    1.083   .     S
C406   C668    1.384   1_545 S
C409   N424    1.355   .     A
C409   H421    1.083   .     S
C410   N423    1.356   .     A
C410   H422    1.083   .     S
C410   C808    1.418   .     S
C411   N423    1.390   .     A
C411   C433    1.473   .     S
C411   C805    1.417   .     S
C412   N424    1.389   .     A
C412   C437    1.472   .     S
Cu413  O432    1.958   .     S
Cu413  Cu414   2.699   .     S
Cu413  O429    1.960   .     S
Cu413  N423    2.029   .     S
Cu413  O425    1.964   .     S
Cu413  O428    1.958   .     S
Cu414  N424    2.029   .     S
Cu414  O426    1.964   .     S
Cu414  O430    1.960   .     S
Cu414  O431    1.958   .     S
Cu414  O427    1.958   .     S
H415   C445    1.087   .     S
H416   C490    1.087   1_455 S
C433   O434    1.220   .     D
C433   O435    1.398   .     S
O435   H436    1.014   .     S
C437   O439    1.394   .     S
C437   O438    1.223   .     D
O439   H440    1.014   .     S
C441   O469    1.300   .     A
C441   C452    1.448   .     S
C441   O471    1.295   .     A
C442   O470    1.300   .     A
C442   C451    1.448   .     S
C442   O472    1.294   .     A
C443   O475    1.293   .     A
C443   O473    1.294   .     A
C443   C445    1.433   .     S
C444   O476    1.292   .     A
C444   O474    1.294   .     A
C444   C446    1.433   .     S
C446   C489    1.332   .     S
C446   H504    1.087   .     S
C447   C452    1.402   .     A
C447   H461    1.083   .     S
C447   C713    1.384   1_545 S
C448   H462    1.083   .     S
C448   C451    1.402   .     A
C448   C582    1.384   .     S
C449   C451    1.399   .     A
C449   H463    1.083   .     S
C449   C579    1.384   .     S
C450   C452    1.399   .     A
C450   H464    1.083   .     S
C450   C712    1.384   1_545 S
C453   N468    1.355   .     A
C453   H465    1.083   .     S
C454   N467    1.356   .     A
C454   H466    1.083   .     S
C454   C852    1.418   .     S
C455   N467    1.390   .     A
C455   C477    1.473   .     S
C455   C849    1.417   .     S
C456   N468    1.389   .     A
C456   C481    1.472   .     S
Cu457  O476    1.958   .     S
Cu457  Cu458   2.699   .     S
Cu457  O473    1.960   .     S
Cu457  N467    2.029   .     S
Cu457  O469    1.964   .     S
Cu457  O472    1.958   .     S
Cu458  N468    2.029   .     S
Cu458  O470    1.964   .     S
Cu458  O474    1.960   .     S
Cu458  O475    1.958   .     S
Cu458  O471    1.958   .     S
H459   C489    1.087   .     S
C477   O478    1.220   .     D
C477   O479    1.398   .     S
O479   H480    1.014   .     S
C481   O483    1.394   .     S
C481   O482    1.223   .     D
O483   H484    1.014   .     S
C485   O513    1.300   .     A
C485   C496    1.448   .     S
C485   O515    1.295   .     A
C486   O514    1.300   .     A
C486   C495    1.448   .     S
C486   O516    1.294   .     A
C487   O519    1.293   .     A
C487   O517    1.294   .     A
C487   C489    1.433   .     S
C488   O520    1.292   .     A
C488   O518    1.294   .     A
C488   C490    1.433   .     S
C490   C401    1.332   1_655 S
C490   H416    1.087   1_655 S
C491   C496    1.402   .     A
C491   H505    1.083   .     S
C491   C757    1.384   1_545 S
C492   H506    1.083   .     S
C492   C495    1.402   .     A
C492   C626    1.384   .     S
C493   C495    1.399   .     A
C493   H507    1.083   .     S
C493   C623    1.384   .     S
C494   C496    1.399   .     A
C494   H508    1.083   .     S
C494   C756    1.384   1_545 S
C497   N512    1.355   .     A
C497   H509    1.083   .     S
C498   N511    1.356   .     A
C498   H510    1.083   .     S
C498   C896    1.418   .     S
C499   N511    1.390   .     A
C499   C521    1.473   .     S
C499   C893    1.417   .     S
C500   N512    1.389   .     A
C500   C525    1.472   .     S
Cu501  O520    1.958   .     S
Cu501  Cu502   2.699   .     S
Cu501  O517    1.960   .     S
Cu501  N511    2.029   .     S
Cu501  O513    1.964   .     S
Cu501  O516    1.958   .     S
Cu502  N512    2.029   .     S
Cu502  O514    1.964   .     S
Cu502  O518    1.960   .     S
Cu502  O519    1.958   .     S
Cu502  O515    1.958   .     S
H503   C401    1.087   1_655 S
C521   O522    1.220   .     D
C521   O523    1.398   .     S
O523   H524    1.014   .     S
C525   O527    1.394   .     S
C525   O526    1.223   .     D
O527   H528    1.014   .     S
C529   O557    1.300   .     A
C529   C540    1.448   .     S
C529   O559    1.295   .     A
C530   O558    1.300   .     A
C530   C539    1.448   .     S
C530   O560    1.294   .     A
C531   O563    1.293   .     A
C531   O561    1.294   .     A
C531   C533    1.433   .     S
C532   O564    1.292   .     A
C532   O562    1.294   .     A
C532   C534    1.433   .     S
C533   C622    1.332   1_455 S
C533   H635    1.087   1_455 S
C534   C577    1.332   .     S
C534   H592    1.087   .     S
C535   C540    1.402   .     A
C535   H549    1.083   .     S
C536   H550    1.083   .     S
C536   C539    1.402   .     A
C536   C670    1.384   .     S
C537   C539    1.399   .     A
C537   H551    1.083   .     S
C537   C667    1.384   .     S
C538   C540    1.399   .     A
C538   H552    1.083   .     S
C541   N556    1.355   .     A
C541   H553    1.083   .     S
C542   N555    1.356   .     A
C542   H554    1.083   .     S
C542   C940    1.418   .     S
C543   N555    1.390   .     A
C543   C565    1.473   .     S
C543   C937    1.417   .     S
C544   N556    1.389   .     A
C544   C569    1.472   .     S
Cu545  O564    1.958   .     S
Cu545  Cu546   2.699   .     S
Cu545  O561    1.960   .     S
Cu545  N555    2.029   .     S
Cu545  O557    1.964   .     S
Cu545  O560    1.958   .     S
Cu546  N556    2.029   .     S
Cu546  O558    1.964   .     S
Cu546  O562    1.960   .     S
Cu546  O563    1.958   .     S
Cu546  O559    1.958   .     S
H547   C577    1.087   .     S
H548   C622    1.087   1_455 S
C565   O566    1.220   .     D
C565   O567    1.398   .     S
O567   H568    1.014   .     S
C569   O571    1.394   .     S
C569   O570    1.223   .     D
O571   H572    1.014   .     S
C573   O601    1.300   .     A
C573   C584    1.448   .     S
C573   O603    1.295   .     A
C574   O602    1.300   .     A
C574   C583    1.448   .     S
C574   O604    1.294   .     A
C575   O607    1.293   .     A
C575   O605    1.294   .     A
C575   C577    1.433   .     S
C576   O608    1.292   .     A
C576   O606    1.294   .     A
C576   C578    1.433   .     S
C578   C621    1.332   .     S
C578   H636    1.087   .     S
C579   C584    1.402   .     A
C579   H593    1.083   .     S
C580   H594    1.083   .     S
C580   C583    1.402   .     A
C580   C714    1.384   .     S
C581   C583    1.399   .     A
C581   H595    1.083   .     S
C581   C711    1.384   .     S
C582   C584    1.399   .     A
C582   H596    1.083   .     S
C585   N600    1.355   .     A
C585   H597    1.083   .     S
C586   N599    1.356   .     A
C586   H598    1.083   .     S
C586   C984    1.418   .     S
C587   N599    1.390   .     A
C587   C609    1.473   .     S
C587   C981    1.417   .     S
C588   N600    1.389   .     A
C588   C613    1.472   .     S
Cu589  O608    1.958   .     S
Cu589  Cu590   2.699   .     S
Cu589  O605    1.960   .     S
Cu589  N599    2.029   .     S
Cu589  O601    1.964   .     S
Cu589  O604    1.958   .     S
Cu590  N600    2.029   .     S
Cu590  O602    1.964   .     S
Cu590  O606    1.960   .     S
Cu590  O607    1.958   .     S
Cu590  O603    1.958   .     S
H591   C621    1.087   .     S
C609   O610    1.220   .     D
C609   O611    1.398   .     S
O611   H612    1.014   .     S
C613   O615    1.394   .     S
C613   O614    1.223   .     D
O615   H616    1.014   .     S
C617   O645    1.300   .     A
C617   C628    1.448   .     S
C617   O647    1.295   .     A
C618   O646    1.300   .     A
C618   C627    1.448   .     S
C618   O648    1.294   .     A
C619   O651    1.293   .     A
C619   O649    1.294   .     A
C619   C621    1.433   .     S
C620   O652    1.292   .     A
C620   O650    1.294   .     A
C620   C622    1.433   .     S
C622   C533    1.332   1_655 S
C622   H548    1.087   1_655 S
C623   C628    1.402   .     A
C623   H637    1.083   .     S
C624   H638    1.083   .     S
C624   C627    1.402   .     A
C624   C758    1.384   .     S
C625   C627    1.399   .     A
C625   H639    1.083   .     S
C625   C755    1.384   .     S
C626   C628    1.399   .     A
C626   H640    1.083   .     S
C629   N644    1.355   .     A
C629   H641    1.083   .     S
C630   N643    1.356   .     A
C630   H642    1.083   .     S
C630   C1028   1.418   .     S
C631   N643    1.390   .     A
C631   C653    1.473   .     S
C631   C1025   1.417   .     S
C632   N644    1.389   .     A
C632   C657    1.472   .     S
Cu633  O652    1.958   .     S
Cu633  Cu634   2.699   .     S
Cu633  O649    1.960   .     S
Cu633  N643    2.029   .     S
Cu633  O645    1.964   .     S
Cu633  O648    1.958   .     S
Cu634  N644    2.029   .     S
Cu634  O646    1.964   .     S
Cu634  O650    1.960   .     S
Cu634  O651    1.958   .     S
Cu634  O647    1.958   .     S
H635   C533    1.087   1_655 S
C653   O654    1.220   .     D
C653   O655    1.398   .     S
O655   H656    1.014   .     S
C657   O659    1.394   .     S
C657   O658    1.223   .     D
O659   H660    1.014   .     S
C661   O689    1.300   .     A
C661   C672    1.448   .     S
C661   O691    1.295   .     A
C662   O690    1.300   .     A
C662   C671    1.448   .     S
C662   O692    1.294   .     A
C663   O695    1.293   .     A
C663   O693    1.294   .     A
C663   C665    1.433   .     S
C664   O696    1.292   .     A
C664   O694    1.294   .     A
C664   C666    1.433   .     S
C665   C754    1.332   1_455 S
C665   H767    1.087   1_455 S
C666   C709    1.332   .     S
C666   H724    1.087   .     S
C667   C672    1.402   .     A
C667   H681    1.083   .     S
C668   H682    1.083   .     S
C668   C671    1.402   .     A
C668   C406    1.384   1_565 S
C669   C671    1.399   .     A
C669   H683    1.083   .     S
C669   C403    1.384   1_565 S
C670   C672    1.399   .     A
C670   H684    1.083   .     S
C673   N688    1.355   .     A
C673   H685    1.083   .     S
C674   N687    1.356   .     A
C674   H686    1.083   .     S
C674   C1072   1.418   .     S
C675   N687    1.390   .     A
C675   C697    1.473   .     S
C675   C1069   1.417   .     S
C676   N688    1.389   .     A
C676   C701    1.472   .     S
Cu677  O696    1.958   .     S
Cu677  Cu678   2.699   .     S
Cu677  O693    1.960   .     S
Cu677  N687    2.029   .     S
Cu677  O689    1.964   .     S
Cu677  O692    1.958   .     S
Cu678  N688    2.029   .     S
Cu678  O690    1.964   .     S
Cu678  O694    1.960   .     S
Cu678  O695    1.958   .     S
Cu678  O691    1.958   .     S
H679   C709    1.087   .     S
H680   C754    1.087   1_455 S
C697   O698    1.220   .     D
C697   O699    1.398   .     S
O699   H700    1.014   .     S
C701   O703    1.394   .     S
C701   O702    1.223   .     D
O703   H704    1.014   .     S
C705   O733    1.300   .     A
C705   C716    1.448   .     S
C705   O735    1.295   .     A
C706   O734    1.300   .     A
C706   C715    1.448   .     S
C706   O736    1.294   .     A
C707   O739    1.293   .     A
C707   O737    1.294   .     A
C707   C709    1.433   .     S
C708   O740    1.292   .     A
C708   O738    1.294   .     A
C708   C710    1.433   .     S
C710   C753    1.332   .     S
C710   H768    1.087   .     S
C711   C716    1.402   .     A
C711   H725    1.083   .     S
C712   H726    1.083   .     S
C712   C715    1.402   .     A
C712   C450    1.384   1_565 S
C713   C715    1.399   .     A
C713   H727    1.083   .     S
C713   C447    1.384   1_565 S
C714   C716    1.399   .     A
C714   H728    1.083   .     S
C717   N732    1.355   .     A
C717   H729    1.083   .     S
C718   N731    1.356   .     A
C718   H730    1.083   .     S
C718   C1116   1.418   .     S
C719   N731    1.390   .     A
C719   C741    1.473   .     S
C719   C1113   1.417   .     S
C720   N732    1.389   .     A
C720   C745    1.472   .     S
Cu721  O740    1.958   .     S
Cu721  Cu722   2.699   .     S
Cu721  O737    1.960   .     S
Cu721  N731    2.029   .     S
Cu721  O733    1.964   .     S
Cu721  O736    1.958   .     S
Cu722  N732    2.029   .     S
Cu722  O734    1.964   .     S
Cu722  O738    1.960   .     S
Cu722  O739    1.958   .     S
Cu722  O735    1.958   .     S
H723   C753    1.087   .     S
C741   O742    1.220   .     D
C741   O743    1.398   .     S
O743   H744    1.014   .     S
C745   O747    1.394   .     S
C745   O746    1.223   .     D
O747   H748    1.014   .     S
C749   O777    1.300   .     A
C749   C760    1.448   .     S
C749   O779    1.295   .     A
C750   O778    1.300   .     A
C750   C759    1.448   .     S
C750   O780    1.294   .     A
C751   O783    1.293   .     A
C751   O781    1.294   .     A
C751   C753    1.433   .     S
C752   O784    1.292   .     A
C752   O782    1.294   .     A
C752   C754    1.433   .     S
C754   C665    1.332   1_655 S
C754   H680    1.087   1_655 S
C755   C760    1.402   .     A
C755   H769    1.083   .     S
C756   H770    1.083   .     S
C756   C759    1.402   .     A
C756   C494    1.384   1_565 S
C757   C759    1.399   .     A
C757   H771    1.083   .     S
C757   C491    1.384   1_565 S
C758   C760    1.399   .     A
C758   H772    1.083   .     S
C761   N776    1.355   .     A
C761   H773    1.083   .     S
C762   N775    1.356   .     A
C762   H774    1.083   .     S
C762   C1160   1.418   .     S
C763   N775    1.390   .     A
C763   C785    1.473   .     S
C763   C1157   1.417   .     S
C764   N776    1.389   .     A
C764   C789    1.472   .     S
Cu765  O784    1.958   .     S
Cu765  Cu766   2.699   .     S
Cu765  O781    1.960   .     S
Cu765  N775    2.029   .     S
Cu765  O777    1.964   .     S
Cu765  O780    1.958   .     S
Cu766  N776    2.029   .     S
Cu766  O778    1.964   .     S
Cu766  O782    1.960   .     S
Cu766  O783    1.958   .     S
Cu766  O779    1.958   .     S
H767   C665    1.087   1_655 S
C785   O786    1.220   .     D
C785   O787    1.398   .     S
O787   H788    1.014   .     S
C789   O791    1.394   .     S
C789   O790    1.223   .     D
O791   H792    1.014   .     S
C793   O821    1.300   .     A
C793   C804    1.448   .     S
C793   O823    1.295   .     A
C794   O822    1.300   .     A
C794   C803    1.448   .     S
C794   O824    1.294   .     A
C795   O827    1.293   .     A
C795   O825    1.294   .     A
C795   C797    1.433   .     S
C796   O828    1.292   .     A
C796   O826    1.294   .     A
C796   C798    1.433   .     S
C797   C886    1.332   1_455 S
C797   H899    1.087   1_455 S
C798   C841    1.332   .     S
C798   H856    1.087   .     S
C799   C804    1.402   .     A
C799   H813    1.083   .     S
C799   C1065   1.384   1_545 S
C800   H814    1.083   .     S
C800   C803    1.402   .     A
C800   C934    1.384   .     S
C801   C803    1.399   .     A
C801   H815    1.083   .     S
C801   C931    1.384   .     S
C802   C804    1.399   .     A
C802   H816    1.083   .     S
C802   C1064   1.384   1_545 S
C805   N820    1.355   .     A
C805   H817    1.083   .     S
C806   N819    1.356   .     A
C806   H818    1.083   .     S
C806   C16     1.418   1_556 S
C807   N819    1.390   .     A
C807   C829    1.473   .     S
C807   C13     1.417   1_556 S
C808   N820    1.389   .     A
C808   C833    1.472   .     S
Cu809  O828    1.958   .     S
Cu809  Cu810   2.699   .     S
Cu809  O825    1.960   .     S
Cu809  N819    2.029   .     S
Cu809  O821    1.964   .     S
Cu809  O824    1.958   .     S
Cu810  N820    2.029   .     S
Cu810  O822    1.964   .     S
Cu810  O826    1.960   .     S
Cu810  O827    1.958   .     S
Cu810  O823    1.958   .     S
H811   C841    1.087   .     S
H812   C886    1.087   1_455 S
C829   O830    1.220   .     D
C829   O831    1.398   .     S
O831   H832    1.014   .     S
C833   O835    1.394   .     S
C833   O834    1.223   .     D
O835   H836    1.014   .     S
C837   O865    1.300   .     A
C837   C848    1.448   .     S
C837   O867    1.295   .     A
C838   O866    1.300   .     A
C838   C847    1.448   .     S
C838   O868    1.294   .     A
C839   O871    1.293   .     A
C839   O869    1.294   .     A
C839   C841    1.433   .     S
C840   O872    1.292   .     A
C840   O870    1.294   .     A
C840   C842    1.433   .     S
C842   C885    1.332   .     S
C842   H900    1.087   .     S
C843   C848    1.402   .     A
C843   H857    1.083   .     S
C843   C1109   1.384   1_545 S
C844   H858    1.083   .     S
C844   C847    1.402   .     A
C844   C978    1.384   .     S
C845   C847    1.399   .     A
C845   H859    1.083   .     S
C845   C975    1.384   .     S
C846   C848    1.399   .     A
C846   H860    1.083   .     S
C846   C1108   1.384   1_545 S
C849   N864    1.355   .     A
C849   H861    1.083   .     S
C850   N863    1.356   .     A
C850   H862    1.083   .     S
C850   C60     1.418   1_556 S
C851   N863    1.390   .     A
C851   C873    1.473   .     S
C851   C57     1.417   1_556 S
C852   N864    1.389   .     A
C852   C877    1.472   .     S
Cu853  O872    1.958   .     S
Cu853  Cu854   2.699   .     S
Cu853  O869    1.960   .     S
Cu853  N863    2.029   .     S
Cu853  O865    1.964   .     S
Cu853  O868    1.958   .     S
Cu854  N864    2.029   .     S
Cu854  O866    1.964   .     S
Cu854  O870    1.960   .     S
Cu854  O871    1.958   .     S
Cu854  O867    1.958   .     S
H855   C885    1.087   .     S
C873   O874    1.220   .     D
C873   O875    1.398   .     S
O875   H876    1.014   .     S
C877   O879    1.394   .     S
C877   O878    1.223   .     D
O879   H880    1.014   .     S
C881   O909    1.300   .     A
C881   C892    1.448   .     S
C881   O911    1.295   .     A
C882   O910    1.300   .     A
C882   C891    1.448   .     S
C882   O912    1.294   .     A
C883   O915    1.293   .     A
C883   O913    1.294   .     A
C883   C885    1.433   .     S
C884   O916    1.292   .     A
C884   O914    1.294   .     A
C884   C886    1.433   .     S
C886   C797    1.332   1_655 S
C886   H812    1.087   1_655 S
C887   C892    1.402   .     A
C887   H901    1.083   .     S
C887   C1153   1.384   1_545 S
C888   H902    1.083   .     S
C888   C891    1.402   .     A
C888   C1022   1.384   .     S
C889   C891    1.399   .     A
C889   H903    1.083   .     S
C889   C1019   1.384   .     S
C890   C892    1.399   .     A
C890   H904    1.083   .     S
C890   C1152   1.384   1_545 S
C893   N908    1.355   .     A
C893   H905    1.083   .     S
C894   N907    1.356   .     A
C894   H906    1.083   .     S
C894   C104    1.418   1_556 S
C895   N907    1.390   .     A
C895   C917    1.473   .     S
C895   C101    1.417   1_556 S
C896   N908    1.389   .     A
C896   C921    1.472   .     S
Cu897  O916    1.958   .     S
Cu897  Cu898   2.699   .     S
Cu897  O913    1.960   .     S
Cu897  N907    2.029   .     S
Cu897  O909    1.964   .     S
Cu897  O912    1.958   .     S
Cu898  N908    2.029   .     S
Cu898  O910    1.964   .     S
Cu898  O914    1.960   .     S
Cu898  O915    1.958   .     S
Cu898  O911    1.958   .     S
H899   C797    1.087   1_655 S
C917   O918    1.220   .     D
C917   O919    1.398   .     S
O919   H920    1.014   .     S
C921   O923    1.394   .     S
C921   O922    1.223   .     D
O923   H924    1.014   .     S
C925   O953    1.300   .     A
C925   C936    1.448   .     S
C925   O955    1.295   .     A
C926   O954    1.300   .     A
C926   C935    1.448   .     S
C926   O956    1.294   .     A
C927   O959    1.293   .     A
C927   O957    1.294   .     A
C927   C929    1.433   .     S
C928   O960    1.292   .     A
C928   O958    1.294   .     A
C928   C930    1.433   .     S
C929   C1018   1.332   1_455 S
C929   H1031   1.087   1_455 S
C930   C973    1.332   .     S
C930   H988    1.087   .     S
C931   C936    1.402   .     A
C931   H945    1.083   .     S
C932   H946    1.083   .     S
C932   C935    1.402   .     A
C932   C1066   1.384   .     S
C933   C935    1.399   .     A
C933   H947    1.083   .     S
C933   C1063   1.384   .     S
C934   C936    1.399   .     A
C934   H948    1.083   .     S
C937   N952    1.355   .     A
C937   H949    1.083   .     S
C938   N951    1.356   .     A
C938   H950    1.083   .     S
C938   C148    1.418   1_556 S
C939   N951    1.390   .     A
C939   C961    1.473   .     S
C939   C145    1.417   1_556 S
C940   N952    1.389   .     A
C940   C965    1.472   .     S
Cu941  O960    1.958   .     S
Cu941  Cu942   2.699   .     S
Cu941  O957    1.960   .     S
Cu941  N951    2.029   .     S
Cu941  O953    1.964   .     S
Cu941  O956    1.958   .     S
Cu942  N952    2.029   .     S
Cu942  O954    1.964   .     S
Cu942  O958    1.960   .     S
Cu942  O959    1.958   .     S
Cu942  O955    1.958   .     S
H943   C973    1.087   .     S
H944   C1018   1.087   1_455 S
C961   O962    1.220   .     D
C961   O963    1.398   .     S
O963   H964    1.014   .     S
C965   O967    1.394   .     S
C965   O966    1.223   .     D
O967   H968    1.014   .     S
C969   O997    1.300   .     A
C969   C980    1.448   .     S
C969   O999    1.295   .     A
C970   O998    1.300   .     A
C970   C979    1.448   .     S
C970   O1000   1.294   .     A
C971   O1003   1.293   .     A
C971   O1001   1.294   .     A
C971   C973    1.433   .     S
C972   O1004   1.292   .     A
C972   O1002   1.294   .     A
C972   C974    1.433   .     S
C974   C1017   1.332   .     S
C974   H1032   1.087   .     S
C975   C980    1.402   .     A
C975   H989    1.083   .     S
C976   H990    1.083   .     S
C976   C979    1.402   .     A
C976   C1110   1.384   .     S
C977   C979    1.399   .     A
C977   H991    1.083   .     S
C977   C1107   1.384   .     S
C978   C980    1.399   .     A
C978   H992    1.083   .     S
C981   N996    1.355   .     A
C981   H993    1.083   .     S
C982   N995    1.356   .     A
C982   H994    1.083   .     S
C982   C192    1.418   1_556 S
C983   N995    1.390   .     A
C983   C1005   1.473   .     S
C983   C189    1.417   1_556 S
C984   N996    1.389   .     A
C984   C1009   1.472   .     S
Cu985  O1004   1.958   .     S
Cu985  Cu986   2.699   .     S
Cu985  O1001   1.960   .     S
Cu985  N995    2.029   .     S
Cu985  O997    1.964   .     S
Cu985  O1000   1.958   .     S
Cu986  N996    2.029   .     S
Cu986  O998    1.964   .     S
Cu986  O1002   1.960   .     S
Cu986  O1003   1.958   .     S
Cu986  O999    1.958   .     S
H987   C1017   1.087   .     S
C1005  O1006   1.220   .     D
C1005  O1007   1.398   .     S
O1007  H1008   1.014   .     S
C1009  O1011   1.394   .     S
C1009  O1010   1.223   .     D
O1011  H1012   1.014   .     S
C1013  O1041   1.300   .     A
C1013  C1024   1.448   .     S
C1013  O1043   1.295   .     A
C1014  O1042   1.300   .     A
C1014  C1023   1.448   .     S
C1014  O1044   1.294   .     A
C1015  O1047   1.293   .     A
C1015  O1045   1.294   .     A
C1015  C1017   1.433   .     S
C1016  O1048   1.292   .     A
C1016  O1046   1.294   .     A
C1016  C1018   1.433   .     S
C1018  C929    1.332   1_655 S
C1018  H944    1.087   1_655 S
C1019  C1024   1.402   .     A
C1019  H1033   1.083   .     S
C1020  H1034   1.083   .     S
C1020  C1023   1.402   .     A
C1020  C1154   1.384   .     S
C1021  C1023   1.399   .     A
C1021  H1035   1.083   .     S
C1021  C1151   1.384   .     S
C1022  C1024   1.399   .     A
C1022  H1036   1.083   .     S
C1025  N1040   1.355   .     A
C1025  H1037   1.083   .     S
C1026  N1039   1.356   .     A
C1026  H1038   1.083   .     S
C1026  C236    1.418   1_556 S
C1027  N1039   1.390   .     A
C1027  C1049   1.473   .     S
C1027  C233    1.417   1_556 S
C1028  N1040   1.389   .     A
C1028  C1053   1.472   .     S
Cu1029 O1048   1.958   .     S
Cu1029 Cu1030  2.699   .     S
Cu1029 O1045   1.960   .     S
Cu1029 N1039   2.029   .     S
Cu1029 O1041   1.964   .     S
Cu1029 O1044   1.958   .     S
Cu1030 N1040   2.029   .     S
Cu1030 O1042   1.964   .     S
Cu1030 O1046   1.960   .     S
Cu1030 O1047   1.958   .     S
Cu1030 O1043   1.958   .     S
H1031  C929    1.087   1_655 S
C1049  O1050   1.220   .     D
C1049  O1051   1.398   .     S
O1051  H1052   1.014   .     S
C1053  O1055   1.394   .     S
C1053  O1054   1.223   .     D
O1055  H1056   1.014   .     S
C1057  O1085   1.300   .     A
C1057  C1068   1.448   .     S
C1057  O1087   1.295   .     A
C1058  O1086   1.300   .     A
C1058  C1067   1.448   .     S
C1058  O1088   1.294   .     A
C1059  O1091   1.293   .     A
C1059  O1089   1.294   .     A
C1059  C1061   1.433   .     S
C1060  O1092   1.292   .     A
C1060  O1090   1.294   .     A
C1060  C1062   1.433   .     S
C1061  C1150   1.332   1_455 S
C1061  H1163   1.087   1_455 S
C1062  C1105   1.332   .     S
C1062  H1120   1.087   .     S
C1063  C1068   1.402   .     A
C1063  H1077   1.083   .     S
C1064  H1078   1.083   .     S
C1064  C1067   1.402   .     A
C1064  C802    1.384   1_565 S
C1065  C1067   1.399   .     A
C1065  H1079   1.083   .     S
C1065  C799    1.384   1_565 S
C1066  C1068   1.399   .     A
C1066  H1080   1.083   .     S
C1069  N1084   1.355   .     A
C1069  H1081   1.083   .     S
C1070  N1083   1.356   .     A
C1070  H1082   1.083   .     S
C1070  C280    1.418   1_556 S
C1071  N1083   1.390   .     A
C1071  C1093   1.473   .     S
C1071  C277    1.417   1_556 S
C1072  N1084   1.389   .     A
C1072  C1097   1.472   .     S
Cu1073 O1092   1.958   .     S
Cu1073 Cu1074  2.699   .     S
Cu1073 O1089   1.960   .     S
Cu1073 N1083   2.029   .     S
Cu1073 O1085   1.964   .     S
Cu1073 O1088   1.958   .     S
Cu1074 N1084   2.029   .     S
Cu1074 O1086   1.964   .     S
Cu1074 O1090   1.960   .     S
Cu1074 O1091   1.958   .     S
Cu1074 O1087   1.958   .     S
H1075  C1105   1.087   .     S
H1076  C1150   1.087   1_455 S
C1093  O1094   1.220   .     D
C1093  O1095   1.398   .     S
O1095  H1096   1.014   .     S
C1097  O1099   1.394   .     S
C1097  O1098   1.223   .     D
O1099  H1100   1.014   .     S
C1101  O1129   1.300   .     A
C1101  C1112   1.448   .     S
C1101  O1131   1.295   .     A
C1102  O1130   1.300   .     A
C1102  C1111   1.448   .     S
C1102  O1132   1.294   .     A
C1103  O1135   1.293   .     A
C1103  O1133   1.294   .     A
C1103  C1105   1.433   .     S
C1104  O1136   1.292   .     A
C1104  O1134   1.294   .     A
C1104  C1106   1.433   .     S
C1106  C1149   1.332   .     S
C1106  H1164   1.087   .     S
C1107  C1112   1.402   .     A
C1107  H1121   1.083   .     S
C1108  H1122   1.083   .     S
C1108  C1111   1.402   .     A
C1108  C846    1.384   1_565 S
C1109  C1111   1.399   .     A
C1109  H1123   1.083   .     S
C1109  C843    1.384   1_565 S
C1110  C1112   1.399   .     A
C1110  H1124   1.083   .     S
C1113  N1128   1.355   .     A
C1113  H1125   1.083   .     S
C1114  N1127   1.356   .     A
C1114  H1126   1.083   .     S
C1114  C324    1.418   1_556 S
C1115  N1127   1.390   .     A
C1115  C1137   1.473   .     S
C1115  C321    1.417   1_556 S
C1116  N1128   1.389   .     A
C1116  C1141   1.472   .     S
Cu1117 O1136   1.958   .     S
Cu1117 Cu1118  2.699   .     S
Cu1117 O1133   1.960   .     S
Cu1117 N1127   2.029   .     S
Cu1117 O1129   1.964   .     S
Cu1117 O1132   1.958   .     S
Cu1118 N1128   2.029   .     S
Cu1118 O1130   1.964   .     S
Cu1118 O1134   1.960   .     S
Cu1118 O1135   1.958   .     S
Cu1118 O1131   1.958   .     S
H1119  C1149   1.087   .     S
C1137  O1138   1.220   .     D
C1137  O1139   1.398   .     S
O1139  H1140   1.014   .     S
C1141  O1143   1.394   .     S
C1141  O1142   1.223   .     D
O1143  H1144   1.014   .     S
C1145  O1173   1.300   .     A
C1145  C1156   1.448   .     S
C1145  O1175   1.295   .     A
C1146  O1174   1.300   .     A
C1146  C1155   1.448   .     S
C1146  O1176   1.294   .     A
C1147  O1179   1.293   .     A
C1147  O1177   1.294   .     A
C1147  C1149   1.433   .     S
C1148  O1180   1.292   .     A
C1148  O1178   1.294   .     A
C1148  C1150   1.433   .     S
C1150  C1061   1.332   1_655 S
C1150  H1076   1.087   1_655 S
C1151  C1156   1.402   .     A
C1151  H1165   1.083   .     S
C1152  H1166   1.083   .     S
C1152  C1155   1.402   .     A
C1152  C890    1.384   1_565 S
C1153  C1155   1.399   .     A
C1153  H1167   1.083   .     S
C1153  C887    1.384   1_565 S
C1154  C1156   1.399   .     A
C1154  H1168   1.083   .     S
C1157  N1172   1.355   .     A
C1157  H1169   1.083   .     S
C1158  N1171   1.356   .     A
C1158  H1170   1.083   .     S
C1158  C368    1.418   1_556 S
C1159  N1171   1.390   .     A
C1159  C1181   1.473   .     S
C1159  C365    1.417   1_556 S
C1160  N1172   1.389   .     A
C1160  C1185   1.472   .     S
Cu1161 O1180   1.958   .     S
Cu1161 Cu1162  2.699   .     S
Cu1161 O1177   1.960   .     S
Cu1161 N1171   2.029   .     S
Cu1161 O1173   1.964   .     S
Cu1161 O1176   1.958   .     S
Cu1162 N1172   2.029   .     S
Cu1162 O1174   1.964   .     S
Cu1162 O1178   1.960   .     S
Cu1162 O1179   1.958   .     S
Cu1162 O1175   1.958   .     S
H1163  C1061   1.087   1_655 S
C1181  O1182   1.220   .     D
C1181  O1183   1.398   .     S
O1183  H1184   1.014   .     S
C1185  O1187   1.394   .     S
C1185  O1186   1.223   .     D
O1187  H1188   1.014   .     S
