data_str_m2_o1_o16_pcu_sym.233
_audit_creation_date              2020-01-03
_audit_creation_method            'Materials Studio'
_symmetry_space_group_name_H-M    'P1'
_symmetry_Int_Tables_number       1
_symmetry_cell_setting            triclinic
loop_
_symmetry_equiv_pos_as_xyz
  x,y,z
_cell_length_a                    28.7122
_cell_length_b                    32.3993
_cell_length_c                    26.9100
_cell_angle_alpha                 91.1431
_cell_angle_beta                  73.7410
_cell_angle_gamma                 90.7367
loop_
_atom_site_label
_atom_site_type_symbol
_atom_site_fract_x
_atom_site_fract_y
_atom_site_fract_z
_atom_site_U_iso_or_equiv
_atom_site_adp_type
_atom_site_occupancy
C1     C     0.16687   0.24591   0.24981   0.00000  Uiso   1.00
C2     C     0.14905   0.15840   0.48652   0.00000  Uiso   1.00
C3     C     0.15280   0.17631   0.43788   0.00000  Uiso   1.00
C4     C     0.17975   0.17350   0.01632   0.00000  Uiso   1.00
C5     C     0.21356   0.20575   0.49676   0.00000  Uiso   1.00
C6     C     0.21391   0.22473   0.45067   0.00000  Uiso   1.00
C7     C     0.18308   0.21086   0.42228   0.00000  Uiso   1.00
C8     C     0.17680   0.15875   0.06585   0.00000  Uiso   1.00
C9     C     0.24179   0.20453   0.07352   0.00000  Uiso   1.00
C10    C     0.12621   0.15919   0.40552   0.00000  Uiso   1.00
C11    C     0.21010   0.31220   0.22840   0.00000  Uiso   1.00
C12    C     0.14086   0.16634   0.34972   0.00000  Uiso   1.00
C13    C     0.21002   0.02160   0.22873   0.00000  Uiso   1.00
C14    C     0.16639   0.04280   0.24893   0.00000  Uiso   1.00
C15    C     0.12285   0.02114   0.26855   0.00000  Uiso   1.00
C16    C     0.12309   0.31175   0.26891   0.00000  Uiso   1.00
C17    C     0.16684   0.29055   0.24930   0.00000  Uiso   1.00
C18    C     0.30220   0.19599   0.27752   0.00000  Uiso   1.00
C19    C     0.01827   0.19538   0.27792   0.00000  Uiso   1.00
C20    C     0.03132   0.13733   0.22229   0.00000  Uiso   1.00
C21    C     0.31488   0.13742   0.22287   0.00000  Uiso   1.00
C22    C     0.16653   0.08743   0.24963   0.00000  Uiso   1.00
C23    C     0.19236   0.16770   0.15039   0.00000  Uiso   1.00
C24    C     0.24541   0.21988   0.02464   0.00000  Uiso   1.00
C25    C     0.20603   0.17523   0.09495   0.00000  Uiso   1.00
C26    C     0.09110   0.12864   0.42427   0.00000  Uiso   1.00
C27    C     0.08554   0.11226   0.47280   0.00000  Uiso   1.00
C28    C     0.11532   0.12569   0.00278   0.00000  Uiso   1.00
Cu29   Cu    0.11978   0.16666   0.25000   0.00000  Uiso   1.00
Cu30   Cu    0.21355   0.16667   0.25000   0.00000  Uiso   1.00
H31    H     0.26439   0.21774   0.09603   0.00000  Uiso   1.00
H32    H     0.24383   0.03801   0.21256   0.00000  Uiso   1.00
H33    H     0.08891   0.03721   0.28441   0.00000  Uiso   1.00
H34    H     0.08925   0.29535   0.28499   0.00000  Uiso   1.00
H35    H     0.03165   0.21784   0.30095   0.00000  Uiso   1.00
H36    H     0.30080   0.11380   0.20197   0.00000  Uiso   1.00
H37    H     0.23781   0.25074   0.43674   0.00000  Uiso   1.00
H38    H     0.27168   0.24410   0.00959   0.00000  Uiso   1.00
H39    H     0.15041   0.13600   0.08423   0.00000  Uiso   1.00
H40    H     0.07028   0.11533   0.39991   0.00000  Uiso   1.00
H41    H     0.11161   0.10920   0.03782   0.00000  Uiso   1.00
H42    H     0.05971   0.08745   0.48618   0.00000  Uiso   1.00
H43    H     0.18301   0.22742   0.38777   0.00000  Uiso   1.00
H44    H     0.24366   0.29612   0.21108   0.00000  Uiso   1.00
N45    N     0.04931   0.16666   0.24999   0.00000  Uiso   1.00
N46    N     0.28402   0.16669   0.25000   0.00000  Uiso   1.00
O47    O     0.12708   0.22678   0.25001   0.00000  Uiso   1.00
O48    O     0.20627   0.22679   0.25001   0.00000  Uiso   1.00
O49    O     0.10775   0.16665   0.32549   0.00000  Uiso   1.00
O50    O     0.18694   0.16666   0.32549   0.00000  Uiso   1.00
O51    O     0.12706   0.10654   0.25000   0.00000  Uiso   1.00
O52    O     0.20625   0.10655   0.25000   0.00000  Uiso   1.00
O53    O     0.14640   0.16667   0.17451   0.00000  Uiso   1.00
O54    O     0.22559   0.16668   0.17451   0.00000  Uiso   1.00
N55    N     0.27092   0.22575   0.30849   0.00000  Uiso   1.00
H56    H     0.26578   0.22014   0.34709   0.00000  Uiso   1.00
C57    C     0.28504   0.26832   0.29684   0.00000  Uiso   1.00
H58    H     0.25366   0.28862   0.31442   0.00000  Uiso   1.00
H59    H     0.29677   0.27295   0.25437   0.00000  Uiso   1.00
H60    H     0.31524   0.27739   0.31321   0.00000  Uiso   1.00
N61    N     0.06196   0.10528   0.19537   0.00000  Uiso   1.00
H62    H     0.05746   0.07843   0.21618   0.00000  Uiso   1.00
C63    C     0.06185   0.09778   0.14229   0.00000  Uiso   1.00
H64    H     0.02869   0.08045   0.14057   0.00000  Uiso   1.00
H65    H     0.09379   0.07876   0.12256   0.00000  Uiso   1.00
H66    H     0.06371   0.12746   0.12182   0.00000  Uiso   1.00
C67    C     0.50020   0.24591   0.24981   0.00000  Uiso   1.00
C68    C     0.48238   0.15840   0.48652   0.00000  Uiso   1.00
C69    C     0.48614   0.17631   0.43788   0.00000  Uiso   1.00
C70    C     0.51308   0.17350   0.01632   0.00000  Uiso   1.00
C71    C     0.54689   0.20575   0.49676   0.00000  Uiso   1.00
C72    C     0.54725   0.22473   0.45067   0.00000  Uiso   1.00
C73    C     0.51641   0.21086   0.42228   0.00000  Uiso   1.00
C74    C     0.51013   0.15875   0.06585   0.00000  Uiso   1.00
C75    C     0.57512   0.20453   0.07352   0.00000  Uiso   1.00
C76    C     0.45954   0.15919   0.40552   0.00000  Uiso   1.00
C77    C     0.54343   0.31220   0.22840   0.00000  Uiso   1.00
C78    C     0.47420   0.16634   0.34972   0.00000  Uiso   1.00
C79    C     0.54335   0.02160   0.22873   0.00000  Uiso   1.00
C80    C     0.49973   0.04280   0.24893   0.00000  Uiso   1.00
C81    C     0.45618   0.02114   0.26855   0.00000  Uiso   1.00
C82    C     0.45642   0.31175   0.26891   0.00000  Uiso   1.00
C83    C     0.50017   0.29055   0.24930   0.00000  Uiso   1.00
C84    C     0.63553   0.19599   0.27752   0.00000  Uiso   1.00
C85    C     0.35160   0.19538   0.27792   0.00000  Uiso   1.00
C86    C     0.36465   0.13733   0.22229   0.00000  Uiso   1.00
C87    C     0.64821   0.13742   0.22287   0.00000  Uiso   1.00
C88    C     0.49986   0.08743   0.24963   0.00000  Uiso   1.00
C89    C     0.52570   0.16770   0.15039   0.00000  Uiso   1.00
C90    C     0.57874   0.21988   0.02464   0.00000  Uiso   1.00
C91    C     0.53936   0.17523   0.09495   0.00000  Uiso   1.00
C92    C     0.42443   0.12864   0.42427   0.00000  Uiso   1.00
C93    C     0.41887   0.11226   0.47280   0.00000  Uiso   1.00
C94    C     0.44866   0.12569   0.00278   0.00000  Uiso   1.00
Cu95   Cu    0.45311   0.16666   0.25000   0.00000  Uiso   1.00
Cu96   Cu    0.54689   0.16667   0.25000   0.00000  Uiso   1.00
H97    H     0.59773   0.21774   0.09603   0.00000  Uiso   1.00
H98    H     0.57716   0.03801   0.21256   0.00000  Uiso   1.00
H99    H     0.42224   0.03721   0.28441   0.00000  Uiso   1.00
H100   H     0.42258   0.29535   0.28499   0.00000  Uiso   1.00
H101   H     0.36499   0.21784   0.30095   0.00000  Uiso   1.00
H102   H     0.63413   0.11380   0.20197   0.00000  Uiso   1.00
H103   H     0.57114   0.25074   0.43674   0.00000  Uiso   1.00
H104   H     0.60501   0.24410   0.00959   0.00000  Uiso   1.00
H105   H     0.48374   0.13600   0.08423   0.00000  Uiso   1.00
H106   H     0.40361   0.11533   0.39991   0.00000  Uiso   1.00
H107   H     0.44494   0.10920   0.03782   0.00000  Uiso   1.00
H108   H     0.39304   0.08745   0.48618   0.00000  Uiso   1.00
H109   H     0.51635   0.22742   0.38777   0.00000  Uiso   1.00
H110   H     0.57700   0.29612   0.21108   0.00000  Uiso   1.00
N111   N     0.38265   0.16666   0.24999   0.00000  Uiso   1.00
N112   N     0.61735   0.16669   0.25000   0.00000  Uiso   1.00
O113   O     0.46042   0.22678   0.25001   0.00000  Uiso   1.00
O114   O     0.53961   0.22679   0.25001   0.00000  Uiso   1.00
O115   O     0.44108   0.16665   0.32549   0.00000  Uiso   1.00
O116   O     0.52027   0.16666   0.32549   0.00000  Uiso   1.00
O117   O     0.46039   0.10654   0.25000   0.00000  Uiso   1.00
O118   O     0.53958   0.10655   0.25000   0.00000  Uiso   1.00
O119   O     0.47973   0.16667   0.17451   0.00000  Uiso   1.00
O120   O     0.55892   0.16668   0.17451   0.00000  Uiso   1.00
N121   N     0.60425   0.22575   0.30849   0.00000  Uiso   1.00
H122   H     0.59911   0.22014   0.34709   0.00000  Uiso   1.00
C123   C     0.61837   0.26832   0.29684   0.00000  Uiso   1.00
H124   H     0.58700   0.28862   0.31442   0.00000  Uiso   1.00
H125   H     0.63011   0.27295   0.25437   0.00000  Uiso   1.00
H126   H     0.64857   0.27739   0.31321   0.00000  Uiso   1.00
N127   N     0.39530   0.10528   0.19537   0.00000  Uiso   1.00
H128   H     0.39080   0.07843   0.21618   0.00000  Uiso   1.00
C129   C     0.39518   0.09778   0.14229   0.00000  Uiso   1.00
H130   H     0.36203   0.08045   0.14057   0.00000  Uiso   1.00
H131   H     0.42713   0.07876   0.12256   0.00000  Uiso   1.00
H132   H     0.39705   0.12746   0.12182   0.00000  Uiso   1.00
C133   C     0.83354   0.24591   0.24981   0.00000  Uiso   1.00
C134   C     0.81572   0.15840   0.48652   0.00000  Uiso   1.00
C135   C     0.81947   0.17631   0.43788   0.00000  Uiso   1.00
C136   C     0.84641   0.17350   0.01632   0.00000  Uiso   1.00
C137   C     0.88022   0.20575   0.49676   0.00000  Uiso   1.00
C138   C     0.88058   0.22473   0.45067   0.00000  Uiso   1.00
C139   C     0.84974   0.21086   0.42228   0.00000  Uiso   1.00
C140   C     0.84347   0.15875   0.06585   0.00000  Uiso   1.00
C141   C     0.90846   0.20453   0.07352   0.00000  Uiso   1.00
C142   C     0.79288   0.15919   0.40552   0.00000  Uiso   1.00
C143   C     0.87677   0.31220   0.22840   0.00000  Uiso   1.00
C144   C     0.80753   0.16634   0.34972   0.00000  Uiso   1.00
C145   C     0.87668   0.02160   0.22873   0.00000  Uiso   1.00
C146   C     0.83306   0.04280   0.24893   0.00000  Uiso   1.00
C147   C     0.78951   0.02114   0.26855   0.00000  Uiso   1.00
C148   C     0.78976   0.31175   0.26891   0.00000  Uiso   1.00
C149   C     0.83350   0.29055   0.24930   0.00000  Uiso   1.00
C150   C     0.96887   0.19599   0.27752   0.00000  Uiso   1.00
C151   C     0.68493   0.19538   0.27792   0.00000  Uiso   1.00
C152   C     0.69798   0.13733   0.22229   0.00000  Uiso   1.00
C153   C     0.98155   0.13742   0.22287   0.00000  Uiso   1.00
C154   C     0.83319   0.08743   0.24963   0.00000  Uiso   1.00
C155   C     0.85903   0.16770   0.15039   0.00000  Uiso   1.00
C156   C     0.91208   0.21988   0.02464   0.00000  Uiso   1.00
C157   C     0.87269   0.17523   0.09495   0.00000  Uiso   1.00
C158   C     0.75777   0.12864   0.42427   0.00000  Uiso   1.00
C159   C     0.75221   0.11226   0.47280   0.00000  Uiso   1.00
C160   C     0.78199   0.12569   0.00278   0.00000  Uiso   1.00
Cu161  Cu    0.78645   0.16666   0.25000   0.00000  Uiso   1.00
Cu162  Cu    0.88022   0.16667   0.25000   0.00000  Uiso   1.00
H163   H     0.93106   0.21774   0.09603   0.00000  Uiso   1.00
H164   H     0.91049   0.03801   0.21256   0.00000  Uiso   1.00
H165   H     0.75558   0.03721   0.28441   0.00000  Uiso   1.00
H166   H     0.75592   0.29535   0.28499   0.00000  Uiso   1.00
H167   H     0.69832   0.21784   0.30095   0.00000  Uiso   1.00
H168   H     0.96746   0.11380   0.20197   0.00000  Uiso   1.00
H169   H     0.90447   0.25074   0.43674   0.00000  Uiso   1.00
H170   H     0.93834   0.24410   0.00959   0.00000  Uiso   1.00
H171   H     0.81708   0.13600   0.08423   0.00000  Uiso   1.00
H172   H     0.73695   0.11533   0.39991   0.00000  Uiso   1.00
H173   H     0.77828   0.10920   0.03782   0.00000  Uiso   1.00
H174   H     0.72637   0.08745   0.48618   0.00000  Uiso   1.00
H175   H     0.84968   0.22742   0.38777   0.00000  Uiso   1.00
H176   H     0.91033   0.29612   0.21108   0.00000  Uiso   1.00
N177   N     0.71598   0.16666   0.24999   0.00000  Uiso   1.00
N178   N     0.95069   0.16669   0.25000   0.00000  Uiso   1.00
O179   O     0.79375   0.22678   0.25001   0.00000  Uiso   1.00
O180   O     0.87294   0.22679   0.25001   0.00000  Uiso   1.00
O181   O     0.77441   0.16665   0.32549   0.00000  Uiso   1.00
O182   O     0.85360   0.16666   0.32549   0.00000  Uiso   1.00
O183   O     0.79373   0.10654   0.25000   0.00000  Uiso   1.00
O184   O     0.87292   0.10655   0.25000   0.00000  Uiso   1.00
O185   O     0.81306   0.16667   0.17451   0.00000  Uiso   1.00
O186   O     0.89225   0.16668   0.17451   0.00000  Uiso   1.00
N187   N     0.93758   0.22575   0.30849   0.00000  Uiso   1.00
H188   H     0.93244   0.22014   0.34709   0.00000  Uiso   1.00
C189   C     0.95171   0.26832   0.29684   0.00000  Uiso   1.00
H190   H     0.92033   0.28862   0.31442   0.00000  Uiso   1.00
H191   H     0.96344   0.27295   0.25437   0.00000  Uiso   1.00
H192   H     0.98191   0.27739   0.31321   0.00000  Uiso   1.00
N193   N     0.72863   0.10528   0.19537   0.00000  Uiso   1.00
H194   H     0.72413   0.07843   0.21618   0.00000  Uiso   1.00
C195   C     0.72851   0.09778   0.14229   0.00000  Uiso   1.00
H196   H     0.69536   0.08045   0.14057   0.00000  Uiso   1.00
H197   H     0.76046   0.07876   0.12256   0.00000  Uiso   1.00
H198   H     0.73038   0.12746   0.12182   0.00000  Uiso   1.00
C199   C     0.16687   0.57924   0.24981   0.00000  Uiso   1.00
C200   C     0.14905   0.49174   0.48652   0.00000  Uiso   1.00
C201   C     0.15280   0.50965   0.43788   0.00000  Uiso   1.00
C202   C     0.17975   0.50683   0.01632   0.00000  Uiso   1.00
C203   C     0.21356   0.53908   0.49676   0.00000  Uiso   1.00
C204   C     0.21391   0.55806   0.45067   0.00000  Uiso   1.00
C205   C     0.18308   0.54419   0.42228   0.00000  Uiso   1.00
C206   C     0.17680   0.49208   0.06585   0.00000  Uiso   1.00
C207   C     0.24179   0.53786   0.07352   0.00000  Uiso   1.00
C208   C     0.12621   0.49253   0.40552   0.00000  Uiso   1.00
C209   C     0.21010   0.64553   0.22840   0.00000  Uiso   1.00
C210   C     0.14086   0.49967   0.34972   0.00000  Uiso   1.00
C211   C     0.21002   0.35493   0.22873   0.00000  Uiso   1.00
C212   C     0.16639   0.37614   0.24893   0.00000  Uiso   1.00
C213   C     0.12285   0.35448   0.26855   0.00000  Uiso   1.00
C214   C     0.12309   0.64508   0.26891   0.00000  Uiso   1.00
C215   C     0.16684   0.62388   0.24930   0.00000  Uiso   1.00
C216   C     0.30220   0.52933   0.27752   0.00000  Uiso   1.00
C217   C     0.01827   0.52871   0.27792   0.00000  Uiso   1.00
C218   C     0.03132   0.47066   0.22229   0.00000  Uiso   1.00
C219   C     0.31488   0.47075   0.22287   0.00000  Uiso   1.00
C220   C     0.16653   0.42076   0.24963   0.00000  Uiso   1.00
C221   C     0.19236   0.50104   0.15039   0.00000  Uiso   1.00
C222   C     0.24541   0.55322   0.02464   0.00000  Uiso   1.00
C223   C     0.20603   0.50856   0.09495   0.00000  Uiso   1.00
C224   C     0.09110   0.46197   0.42427   0.00000  Uiso   1.00
C225   C     0.08554   0.44559   0.47280   0.00000  Uiso   1.00
C226   C     0.11532   0.45902   0.00278   0.00000  Uiso   1.00
Cu227  Cu    0.11978   0.49999   0.25000   0.00000  Uiso   1.00
Cu228  Cu    0.21355   0.50001   0.25000   0.00000  Uiso   1.00
H229   H     0.26439   0.55108   0.09603   0.00000  Uiso   1.00
H230   H     0.24383   0.37135   0.21256   0.00000  Uiso   1.00
H231   H     0.08891   0.37054   0.28441   0.00000  Uiso   1.00
H232   H     0.08925   0.62868   0.28499   0.00000  Uiso   1.00
H233   H     0.03165   0.55117   0.30095   0.00000  Uiso   1.00
H234   H     0.30080   0.44713   0.20197   0.00000  Uiso   1.00
H235   H     0.23781   0.58407   0.43674   0.00000  Uiso   1.00
H236   H     0.27168   0.57743   0.00959   0.00000  Uiso   1.00
H237   H     0.15041   0.46934   0.08423   0.00000  Uiso   1.00
H238   H     0.07028   0.44866   0.39991   0.00000  Uiso   1.00
H239   H     0.11161   0.44253   0.03782   0.00000  Uiso   1.00
H240   H     0.05971   0.42078   0.48618   0.00000  Uiso   1.00
H241   H     0.18301   0.56075   0.38777   0.00000  Uiso   1.00
H242   H     0.24366   0.62945   0.21108   0.00000  Uiso   1.00
N243   N     0.04931   0.49999   0.24999   0.00000  Uiso   1.00
N244   N     0.28402   0.50002   0.25000   0.00000  Uiso   1.00
O245   O     0.12708   0.56011   0.25001   0.00000  Uiso   1.00
O246   O     0.20627   0.56012   0.25001   0.00000  Uiso   1.00
O247   O     0.10775   0.49998   0.32549   0.00000  Uiso   1.00
O248   O     0.18694   0.49999   0.32549   0.00000  Uiso   1.00
O249   O     0.12706   0.43988   0.25000   0.00000  Uiso   1.00
O250   O     0.20625   0.43989   0.25000   0.00000  Uiso   1.00
O251   O     0.14640   0.50001   0.17451   0.00000  Uiso   1.00
O252   O     0.22559   0.50002   0.17451   0.00000  Uiso   1.00
N253   N     0.27092   0.55909   0.30849   0.00000  Uiso   1.00
H254   H     0.26578   0.55348   0.34709   0.00000  Uiso   1.00
C255   C     0.28504   0.60165   0.29684   0.00000  Uiso   1.00
H256   H     0.25366   0.62195   0.31442   0.00000  Uiso   1.00
H257   H     0.29677   0.60628   0.25437   0.00000  Uiso   1.00
H258   H     0.31524   0.61073   0.31321   0.00000  Uiso   1.00
N259   N     0.06196   0.43862   0.19537   0.00000  Uiso   1.00
H260   H     0.05746   0.41176   0.21618   0.00000  Uiso   1.00
C261   C     0.06185   0.43111   0.14229   0.00000  Uiso   1.00
H262   H     0.02869   0.41378   0.14057   0.00000  Uiso   1.00
H263   H     0.09379   0.41210   0.12256   0.00000  Uiso   1.00
H264   H     0.06371   0.46079   0.12182   0.00000  Uiso   1.00
C265   C     0.50020   0.57924   0.24981   0.00000  Uiso   1.00
C266   C     0.48238   0.49174   0.48652   0.00000  Uiso   1.00
C267   C     0.48614   0.50965   0.43788   0.00000  Uiso   1.00
C268   C     0.51308   0.50683   0.01632   0.00000  Uiso   1.00
C269   C     0.54689   0.53908   0.49676   0.00000  Uiso   1.00
C270   C     0.54725   0.55806   0.45067   0.00000  Uiso   1.00
C271   C     0.51641   0.54419   0.42228   0.00000  Uiso   1.00
C272   C     0.51013   0.49208   0.06585   0.00000  Uiso   1.00
C273   C     0.57512   0.53786   0.07352   0.00000  Uiso   1.00
C274   C     0.45954   0.49253   0.40552   0.00000  Uiso   1.00
C275   C     0.54343   0.64553   0.22840   0.00000  Uiso   1.00
C276   C     0.47420   0.49967   0.34972   0.00000  Uiso   1.00
C277   C     0.54335   0.35493   0.22873   0.00000  Uiso   1.00
C278   C     0.49973   0.37614   0.24893   0.00000  Uiso   1.00
C279   C     0.45618   0.35448   0.26855   0.00000  Uiso   1.00
C280   C     0.45642   0.64508   0.26891   0.00000  Uiso   1.00
C281   C     0.50017   0.62388   0.24930   0.00000  Uiso   1.00
C282   C     0.63553   0.52933   0.27752   0.00000  Uiso   1.00
C283   C     0.35160   0.52871   0.27792   0.00000  Uiso   1.00
C284   C     0.36465   0.47066   0.22229   0.00000  Uiso   1.00
C285   C     0.64821   0.47075   0.22287   0.00000  Uiso   1.00
C286   C     0.49986   0.42076   0.24963   0.00000  Uiso   1.00
C287   C     0.52570   0.50104   0.15039   0.00000  Uiso   1.00
C288   C     0.57874   0.55322   0.02464   0.00000  Uiso   1.00
C289   C     0.53936   0.50856   0.09495   0.00000  Uiso   1.00
C290   C     0.42443   0.46197   0.42427   0.00000  Uiso   1.00
C291   C     0.41887   0.44559   0.47280   0.00000  Uiso   1.00
C292   C     0.44866   0.45902   0.00278   0.00000  Uiso   1.00
Cu293  Cu    0.45311   0.49999   0.25000   0.00000  Uiso   1.00
Cu294  Cu    0.54689   0.50001   0.25000   0.00000  Uiso   1.00
H295   H     0.59773   0.55108   0.09603   0.00000  Uiso   1.00
H296   H     0.57716   0.37135   0.21256   0.00000  Uiso   1.00
H297   H     0.42224   0.37054   0.28441   0.00000  Uiso   1.00
H298   H     0.42258   0.62868   0.28499   0.00000  Uiso   1.00
H299   H     0.36499   0.55117   0.30095   0.00000  Uiso   1.00
H300   H     0.63413   0.44713   0.20197   0.00000  Uiso   1.00
H301   H     0.57114   0.58407   0.43674   0.00000  Uiso   1.00
H302   H     0.60501   0.57743   0.00959   0.00000  Uiso   1.00
H303   H     0.48374   0.46934   0.08423   0.00000  Uiso   1.00
H304   H     0.40361   0.44866   0.39991   0.00000  Uiso   1.00
H305   H     0.44494   0.44253   0.03782   0.00000  Uiso   1.00
H306   H     0.39304   0.42078   0.48618   0.00000  Uiso   1.00
H307   H     0.51635   0.56075   0.38777   0.00000  Uiso   1.00
H308   H     0.57700   0.62945   0.21108   0.00000  Uiso   1.00
N309   N     0.38265   0.49999   0.24999   0.00000  Uiso   1.00
N310   N     0.61735   0.50002   0.25000   0.00000  Uiso   1.00
O311   O     0.46042   0.56011   0.25001   0.00000  Uiso   1.00
O312   O     0.53961   0.56012   0.25001   0.00000  Uiso   1.00
O313   O     0.44108   0.49998   0.32549   0.00000  Uiso   1.00
O314   O     0.52027   0.49999   0.32549   0.00000  Uiso   1.00
O315   O     0.46039   0.43988   0.25000   0.00000  Uiso   1.00
O316   O     0.53958   0.43989   0.25000   0.00000  Uiso   1.00
O317   O     0.47973   0.50001   0.17451   0.00000  Uiso   1.00
O318   O     0.55892   0.50002   0.17451   0.00000  Uiso   1.00
N319   N     0.60425   0.55909   0.30849   0.00000  Uiso   1.00
H320   H     0.59911   0.55348   0.34709   0.00000  Uiso   1.00
C321   C     0.61837   0.60165   0.29684   0.00000  Uiso   1.00
H322   H     0.58700   0.62195   0.31442   0.00000  Uiso   1.00
H323   H     0.63011   0.60628   0.25437   0.00000  Uiso   1.00
H324   H     0.64857   0.61073   0.31321   0.00000  Uiso   1.00
N325   N     0.39530   0.43862   0.19537   0.00000  Uiso   1.00
H326   H     0.39080   0.41176   0.21618   0.00000  Uiso   1.00
C327   C     0.39518   0.43111   0.14229   0.00000  Uiso   1.00
H328   H     0.36203   0.41378   0.14057   0.00000  Uiso   1.00
H329   H     0.42713   0.41210   0.12256   0.00000  Uiso   1.00
H330   H     0.39705   0.46079   0.12182   0.00000  Uiso   1.00
C331   C     0.83354   0.57924   0.24981   0.00000  Uiso   1.00
C332   C     0.81572   0.49174   0.48652   0.00000  Uiso   1.00
C333   C     0.81947   0.50965   0.43788   0.00000  Uiso   1.00
C334   C     0.84641   0.50683   0.01632   0.00000  Uiso   1.00
C335   C     0.88022   0.53908   0.49676   0.00000  Uiso   1.00
C336   C     0.88058   0.55806   0.45067   0.00000  Uiso   1.00
C337   C     0.84974   0.54419   0.42228   0.00000  Uiso   1.00
C338   C     0.84347   0.49208   0.06585   0.00000  Uiso   1.00
C339   C     0.90846   0.53786   0.07352   0.00000  Uiso   1.00
C340   C     0.79288   0.49253   0.40552   0.00000  Uiso   1.00
C341   C     0.87677   0.64553   0.22840   0.00000  Uiso   1.00
C342   C     0.80753   0.49967   0.34972   0.00000  Uiso   1.00
C343   C     0.87668   0.35493   0.22873   0.00000  Uiso   1.00
C344   C     0.83306   0.37614   0.24893   0.00000  Uiso   1.00
C345   C     0.78951   0.35448   0.26855   0.00000  Uiso   1.00
C346   C     0.78976   0.64508   0.26891   0.00000  Uiso   1.00
C347   C     0.83350   0.62388   0.24930   0.00000  Uiso   1.00
C348   C     0.96887   0.52933   0.27752   0.00000  Uiso   1.00
C349   C     0.68493   0.52871   0.27792   0.00000  Uiso   1.00
C350   C     0.69798   0.47066   0.22229   0.00000  Uiso   1.00
C351   C     0.98155   0.47075   0.22287   0.00000  Uiso   1.00
C352   C     0.83319   0.42076   0.24963   0.00000  Uiso   1.00
C353   C     0.85903   0.50104   0.15039   0.00000  Uiso   1.00
C354   C     0.91208   0.55322   0.02464   0.00000  Uiso   1.00
C355   C     0.87269   0.50856   0.09495   0.00000  Uiso   1.00
C356   C     0.75777   0.46197   0.42427   0.00000  Uiso   1.00
C357   C     0.75221   0.44559   0.47280   0.00000  Uiso   1.00
C358   C     0.78199   0.45902   0.00278   0.00000  Uiso   1.00
Cu359  Cu    0.78645   0.49999   0.25000   0.00000  Uiso   1.00
Cu360  Cu    0.88022   0.50001   0.25000   0.00000  Uiso   1.00
H361   H     0.93106   0.55108   0.09603   0.00000  Uiso   1.00
H362   H     0.91049   0.37135   0.21256   0.00000  Uiso   1.00
H363   H     0.75558   0.37054   0.28441   0.00000  Uiso   1.00
H364   H     0.75592   0.62868   0.28499   0.00000  Uiso   1.00
H365   H     0.69832   0.55117   0.30095   0.00000  Uiso   1.00
H366   H     0.96746   0.44713   0.20197   0.00000  Uiso   1.00
H367   H     0.90447   0.58407   0.43674   0.00000  Uiso   1.00
H368   H     0.93834   0.57743   0.00959   0.00000  Uiso   1.00
H369   H     0.81708   0.46934   0.08423   0.00000  Uiso   1.00
H370   H     0.73695   0.44866   0.39991   0.00000  Uiso   1.00
H371   H     0.77828   0.44253   0.03782   0.00000  Uiso   1.00
H372   H     0.72637   0.42078   0.48618   0.00000  Uiso   1.00
H373   H     0.84968   0.56075   0.38777   0.00000  Uiso   1.00
H374   H     0.91033   0.62945   0.21108   0.00000  Uiso   1.00
N375   N     0.71598   0.49999   0.24999   0.00000  Uiso   1.00
N376   N     0.95069   0.50002   0.25000   0.00000  Uiso   1.00
O377   O     0.79375   0.56011   0.25001   0.00000  Uiso   1.00
O378   O     0.87294   0.56012   0.25001   0.00000  Uiso   1.00
O379   O     0.77441   0.49998   0.32549   0.00000  Uiso   1.00
O380   O     0.85360   0.49999   0.32549   0.00000  Uiso   1.00
O381   O     0.79373   0.43988   0.25000   0.00000  Uiso   1.00
O382   O     0.87292   0.43989   0.25000   0.00000  Uiso   1.00
O383   O     0.81306   0.50001   0.17451   0.00000  Uiso   1.00
O384   O     0.89225   0.50002   0.17451   0.00000  Uiso   1.00
N385   N     0.93758   0.55909   0.30849   0.00000  Uiso   1.00
H386   H     0.93244   0.55348   0.34709   0.00000  Uiso   1.00
C387   C     0.95171   0.60165   0.29684   0.00000  Uiso   1.00
H388   H     0.92033   0.62195   0.31442   0.00000  Uiso   1.00
H389   H     0.96344   0.60628   0.25437   0.00000  Uiso   1.00
H390   H     0.98191   0.61073   0.31321   0.00000  Uiso   1.00
N391   N     0.72863   0.43862   0.19537   0.00000  Uiso   1.00
H392   H     0.72413   0.41176   0.21618   0.00000  Uiso   1.00
C393   C     0.72851   0.43111   0.14229   0.00000  Uiso   1.00
H394   H     0.69536   0.41378   0.14057   0.00000  Uiso   1.00
H395   H     0.76046   0.41210   0.12256   0.00000  Uiso   1.00
H396   H     0.73038   0.46079   0.12182   0.00000  Uiso   1.00
C397   C     0.16687   0.91258   0.24981   0.00000  Uiso   1.00
C398   C     0.14905   0.82507   0.48652   0.00000  Uiso   1.00
C399   C     0.15280   0.84298   0.43788   0.00000  Uiso   1.00
C400   C     0.17975   0.84016   0.01632   0.00000  Uiso   1.00
C401   C     0.21356   0.87241   0.49676   0.00000  Uiso   1.00
C402   C     0.21391   0.89139   0.45067   0.00000  Uiso   1.00
C403   C     0.18308   0.87752   0.42228   0.00000  Uiso   1.00
C404   C     0.17680   0.82542   0.06585   0.00000  Uiso   1.00
C405   C     0.24179   0.87120   0.07352   0.00000  Uiso   1.00
C406   C     0.12621   0.82586   0.40552   0.00000  Uiso   1.00
C407   C     0.21010   0.97886   0.22840   0.00000  Uiso   1.00
C408   C     0.14086   0.83301   0.34972   0.00000  Uiso   1.00
C409   C     0.21002   0.68826   0.22873   0.00000  Uiso   1.00
C410   C     0.16639   0.70947   0.24893   0.00000  Uiso   1.00
C411   C     0.12285   0.68781   0.26855   0.00000  Uiso   1.00
C412   C     0.12309   0.97842   0.26891   0.00000  Uiso   1.00
C413   C     0.16684   0.95721   0.24930   0.00000  Uiso   1.00
C414   C     0.30220   0.86266   0.27752   0.00000  Uiso   1.00
C415   C     0.01827   0.86205   0.27792   0.00000  Uiso   1.00
C416   C     0.03132   0.80400   0.22229   0.00000  Uiso   1.00
C417   C     0.31488   0.80408   0.22287   0.00000  Uiso   1.00
C418   C     0.16653   0.75410   0.24963   0.00000  Uiso   1.00
C419   C     0.19236   0.83437   0.15039   0.00000  Uiso   1.00
C420   C     0.24541   0.88655   0.02464   0.00000  Uiso   1.00
C421   C     0.20603   0.84189   0.09495   0.00000  Uiso   1.00
C422   C     0.09110   0.79530   0.42427   0.00000  Uiso   1.00
C423   C     0.08554   0.77892   0.47280   0.00000  Uiso   1.00
C424   C     0.11532   0.79235   0.00278   0.00000  Uiso   1.00
Cu425  Cu    0.11978   0.83333   0.25000   0.00000  Uiso   1.00
Cu426  Cu    0.21355   0.83334   0.25000   0.00000  Uiso   1.00
H427   H     0.26439   0.88441   0.09603   0.00000  Uiso   1.00
H428   H     0.24383   0.70468   0.21256   0.00000  Uiso   1.00
H429   H     0.08891   0.70387   0.28441   0.00000  Uiso   1.00
H430   H     0.08925   0.96201   0.28499   0.00000  Uiso   1.00
H431   H     0.03165   0.88451   0.30095   0.00000  Uiso   1.00
H432   H     0.30080   0.78046   0.20197   0.00000  Uiso   1.00
H433   H     0.23781   0.91741   0.43674   0.00000  Uiso   1.00
H434   H     0.27168   0.91076   0.00959   0.00000  Uiso   1.00
H435   H     0.15041   0.80267   0.08423   0.00000  Uiso   1.00
H436   H     0.07028   0.78200   0.39991   0.00000  Uiso   1.00
H437   H     0.11161   0.77586   0.03782   0.00000  Uiso   1.00
H438   H     0.05971   0.75411   0.48618   0.00000  Uiso   1.00
H439   H     0.18301   0.89408   0.38777   0.00000  Uiso   1.00
H440   H     0.24366   0.96278   0.21108   0.00000  Uiso   1.00
N441   N     0.04931   0.83332   0.24999   0.00000  Uiso   1.00
N442   N     0.28402   0.83335   0.25000   0.00000  Uiso   1.00
O443   O     0.12708   0.89345   0.25001   0.00000  Uiso   1.00
O444   O     0.20627   0.89346   0.25001   0.00000  Uiso   1.00
O445   O     0.10775   0.83332   0.32549   0.00000  Uiso   1.00
O446   O     0.18694   0.83333   0.32549   0.00000  Uiso   1.00
O447   O     0.12706   0.77321   0.25000   0.00000  Uiso   1.00
O448   O     0.20625   0.77322   0.25000   0.00000  Uiso   1.00
O449   O     0.14640   0.83334   0.17451   0.00000  Uiso   1.00
O450   O     0.22559   0.83335   0.17451   0.00000  Uiso   1.00
N451   N     0.27092   0.89242   0.30849   0.00000  Uiso   1.00
H452   H     0.26578   0.88681   0.34709   0.00000  Uiso   1.00
C453   C     0.28504   0.93499   0.29684   0.00000  Uiso   1.00
H454   H     0.25366   0.95529   0.31442   0.00000  Uiso   1.00
H455   H     0.29677   0.93962   0.25437   0.00000  Uiso   1.00
H456   H     0.31524   0.94406   0.31321   0.00000  Uiso   1.00
N457   N     0.06196   0.77195   0.19537   0.00000  Uiso   1.00
H458   H     0.05746   0.74510   0.21618   0.00000  Uiso   1.00
C459   C     0.06185   0.76444   0.14229   0.00000  Uiso   1.00
H460   H     0.02869   0.74712   0.14057   0.00000  Uiso   1.00
H461   H     0.09379   0.74543   0.12256   0.00000  Uiso   1.00
H462   H     0.06371   0.79413   0.12182   0.00000  Uiso   1.00
C463   C     0.50020   0.91258   0.24981   0.00000  Uiso   1.00
C464   C     0.48238   0.82507   0.48652   0.00000  Uiso   1.00
C465   C     0.48614   0.84298   0.43788   0.00000  Uiso   1.00
C466   C     0.51308   0.84016   0.01632   0.00000  Uiso   1.00
C467   C     0.54689   0.87241   0.49676   0.00000  Uiso   1.00
C468   C     0.54725   0.89139   0.45067   0.00000  Uiso   1.00
C469   C     0.51641   0.87752   0.42228   0.00000  Uiso   1.00
C470   C     0.51013   0.82542   0.06585   0.00000  Uiso   1.00
C471   C     0.57512   0.87120   0.07352   0.00000  Uiso   1.00
C472   C     0.45954   0.82586   0.40552   0.00000  Uiso   1.00
C473   C     0.54343   0.97886   0.22840   0.00000  Uiso   1.00
C474   C     0.47420   0.83301   0.34972   0.00000  Uiso   1.00
C475   C     0.54335   0.68826   0.22873   0.00000  Uiso   1.00
C476   C     0.49973   0.70947   0.24893   0.00000  Uiso   1.00
C477   C     0.45618   0.68781   0.26855   0.00000  Uiso   1.00
C478   C     0.45642   0.97842   0.26891   0.00000  Uiso   1.00
C479   C     0.50017   0.95721   0.24930   0.00000  Uiso   1.00
C480   C     0.63553   0.86266   0.27752   0.00000  Uiso   1.00
C481   C     0.35160   0.86205   0.27792   0.00000  Uiso   1.00
C482   C     0.36465   0.80400   0.22229   0.00000  Uiso   1.00
C483   C     0.64821   0.80408   0.22287   0.00000  Uiso   1.00
C484   C     0.49986   0.75410   0.24963   0.00000  Uiso   1.00
C485   C     0.52570   0.83437   0.15039   0.00000  Uiso   1.00
C486   C     0.57874   0.88655   0.02464   0.00000  Uiso   1.00
C487   C     0.53936   0.84189   0.09495   0.00000  Uiso   1.00
C488   C     0.42443   0.79530   0.42427   0.00000  Uiso   1.00
C489   C     0.41887   0.77892   0.47280   0.00000  Uiso   1.00
C490   C     0.44866   0.79235   0.00278   0.00000  Uiso   1.00
Cu491  Cu    0.45311   0.83333   0.25000   0.00000  Uiso   1.00
Cu492  Cu    0.54689   0.83334   0.25000   0.00000  Uiso   1.00
H493   H     0.59773   0.88441   0.09603   0.00000  Uiso   1.00
H494   H     0.57716   0.70468   0.21256   0.00000  Uiso   1.00
H495   H     0.42224   0.70387   0.28441   0.00000  Uiso   1.00
H496   H     0.42258   0.96201   0.28499   0.00000  Uiso   1.00
H497   H     0.36499   0.88451   0.30095   0.00000  Uiso   1.00
H498   H     0.63413   0.78046   0.20197   0.00000  Uiso   1.00
H499   H     0.57114   0.91741   0.43674   0.00000  Uiso   1.00
H500   H     0.60501   0.91076   0.00959   0.00000  Uiso   1.00
H501   H     0.48374   0.80267   0.08423   0.00000  Uiso   1.00
H502   H     0.40361   0.78200   0.39991   0.00000  Uiso   1.00
H503   H     0.44494   0.77586   0.03782   0.00000  Uiso   1.00
H504   H     0.39304   0.75411   0.48618   0.00000  Uiso   1.00
H505   H     0.51635   0.89408   0.38777   0.00000  Uiso   1.00
H506   H     0.57700   0.96278   0.21108   0.00000  Uiso   1.00
N507   N     0.38265   0.83332   0.24999   0.00000  Uiso   1.00
N508   N     0.61735   0.83335   0.25000   0.00000  Uiso   1.00
O509   O     0.46042   0.89345   0.25001   0.00000  Uiso   1.00
O510   O     0.53961   0.89346   0.25001   0.00000  Uiso   1.00
O511   O     0.44108   0.83332   0.32549   0.00000  Uiso   1.00
O512   O     0.52027   0.83333   0.32549   0.00000  Uiso   1.00
O513   O     0.46039   0.77321   0.25000   0.00000  Uiso   1.00
O514   O     0.53958   0.77322   0.25000   0.00000  Uiso   1.00
O515   O     0.47973   0.83334   0.17451   0.00000  Uiso   1.00
O516   O     0.55892   0.83335   0.17451   0.00000  Uiso   1.00
N517   N     0.60425   0.89242   0.30849   0.00000  Uiso   1.00
H518   H     0.59911   0.88681   0.34709   0.00000  Uiso   1.00
C519   C     0.61837   0.93499   0.29684   0.00000  Uiso   1.00
H520   H     0.58700   0.95529   0.31442   0.00000  Uiso   1.00
H521   H     0.63011   0.93962   0.25437   0.00000  Uiso   1.00
H522   H     0.64857   0.94406   0.31321   0.00000  Uiso   1.00
N523   N     0.39530   0.77195   0.19537   0.00000  Uiso   1.00
H524   H     0.39080   0.74510   0.21618   0.00000  Uiso   1.00
C525   C     0.39518   0.76444   0.14229   0.00000  Uiso   1.00
H526   H     0.36203   0.74712   0.14057   0.00000  Uiso   1.00
H527   H     0.42713   0.74543   0.12256   0.00000  Uiso   1.00
H528   H     0.39705   0.79413   0.12182   0.00000  Uiso   1.00
C529   C     0.83354   0.91258   0.24981   0.00000  Uiso   1.00
C530   C     0.81572   0.82507   0.48652   0.00000  Uiso   1.00
C531   C     0.81947   0.84298   0.43788   0.00000  Uiso   1.00
C532   C     0.84641   0.84016   0.01632   0.00000  Uiso   1.00
C533   C     0.88022   0.87241   0.49676   0.00000  Uiso   1.00
C534   C     0.88058   0.89139   0.45067   0.00000  Uiso   1.00
C535   C     0.84974   0.87752   0.42228   0.00000  Uiso   1.00
C536   C     0.84347   0.82542   0.06585   0.00000  Uiso   1.00
C537   C     0.90846   0.87120   0.07352   0.00000  Uiso   1.00
C538   C     0.79288   0.82586   0.40552   0.00000  Uiso   1.00
C539   C     0.87677   0.97886   0.22840   0.00000  Uiso   1.00
C540   C     0.80753   0.83301   0.34972   0.00000  Uiso   1.00
C541   C     0.87668   0.68826   0.22873   0.00000  Uiso   1.00
C542   C     0.83306   0.70947   0.24893   0.00000  Uiso   1.00
C543   C     0.78951   0.68781   0.26855   0.00000  Uiso   1.00
C544   C     0.78976   0.97842   0.26891   0.00000  Uiso   1.00
C545   C     0.83350   0.95721   0.24930   0.00000  Uiso   1.00
C546   C     0.96887   0.86266   0.27752   0.00000  Uiso   1.00
C547   C     0.68493   0.86205   0.27792   0.00000  Uiso   1.00
C548   C     0.69798   0.80400   0.22229   0.00000  Uiso   1.00
C549   C     0.98155   0.80408   0.22287   0.00000  Uiso   1.00
C550   C     0.83319   0.75410   0.24963   0.00000  Uiso   1.00
C551   C     0.85903   0.83437   0.15039   0.00000  Uiso   1.00
C552   C     0.91208   0.88655   0.02464   0.00000  Uiso   1.00
C553   C     0.87269   0.84189   0.09495   0.00000  Uiso   1.00
C554   C     0.75777   0.79530   0.42427   0.00000  Uiso   1.00
C555   C     0.75221   0.77892   0.47280   0.00000  Uiso   1.00
C556   C     0.78199   0.79235   0.00278   0.00000  Uiso   1.00
Cu557  Cu    0.78645   0.83333   0.25000   0.00000  Uiso   1.00
Cu558  Cu    0.88022   0.83334   0.25000   0.00000  Uiso   1.00
H559   H     0.93106   0.88441   0.09603   0.00000  Uiso   1.00
H560   H     0.91049   0.70468   0.21256   0.00000  Uiso   1.00
H561   H     0.75558   0.70387   0.28441   0.00000  Uiso   1.00
H562   H     0.75592   0.96201   0.28499   0.00000  Uiso   1.00
H563   H     0.69832   0.88451   0.30095   0.00000  Uiso   1.00
H564   H     0.96746   0.78046   0.20197   0.00000  Uiso   1.00
H565   H     0.90447   0.91741   0.43674   0.00000  Uiso   1.00
H566   H     0.93834   0.91076   0.00959   0.00000  Uiso   1.00
H567   H     0.81708   0.80267   0.08423   0.00000  Uiso   1.00
H568   H     0.73695   0.78200   0.39991   0.00000  Uiso   1.00
H569   H     0.77828   0.77586   0.03782   0.00000  Uiso   1.00
H570   H     0.72637   0.75411   0.48618   0.00000  Uiso   1.00
H571   H     0.84968   0.89408   0.38777   0.00000  Uiso   1.00
H572   H     0.91033   0.96278   0.21108   0.00000  Uiso   1.00
N573   N     0.71598   0.83332   0.24999   0.00000  Uiso   1.00
N574   N     0.95069   0.83335   0.25000   0.00000  Uiso   1.00
O575   O     0.79375   0.89345   0.25001   0.00000  Uiso   1.00
O576   O     0.87294   0.89346   0.25001   0.00000  Uiso   1.00
O577   O     0.77441   0.83332   0.32549   0.00000  Uiso   1.00
O578   O     0.85360   0.83333   0.32549   0.00000  Uiso   1.00
O579   O     0.79373   0.77321   0.25000   0.00000  Uiso   1.00
O580   O     0.87292   0.77322   0.25000   0.00000  Uiso   1.00
O581   O     0.81306   0.83334   0.17451   0.00000  Uiso   1.00
O582   O     0.89225   0.83335   0.17451   0.00000  Uiso   1.00
N583   N     0.93758   0.89242   0.30849   0.00000  Uiso   1.00
H584   H     0.93244   0.88681   0.34709   0.00000  Uiso   1.00
C585   C     0.95171   0.93499   0.29684   0.00000  Uiso   1.00
H586   H     0.92033   0.95529   0.31442   0.00000  Uiso   1.00
H587   H     0.96344   0.93962   0.25437   0.00000  Uiso   1.00
H588   H     0.98191   0.94406   0.31321   0.00000  Uiso   1.00
N589   N     0.72863   0.77195   0.19537   0.00000  Uiso   1.00
H590   H     0.72413   0.74510   0.21618   0.00000  Uiso   1.00
C591   C     0.72851   0.76444   0.14229   0.00000  Uiso   1.00
H592   H     0.69536   0.74712   0.14057   0.00000  Uiso   1.00
H593   H     0.76046   0.74543   0.12256   0.00000  Uiso   1.00
H594   H     0.73038   0.79413   0.12182   0.00000  Uiso   1.00
C595   C     0.16687   0.24591   0.74981   0.00000  Uiso   1.00
C596   C     0.14905   0.15840   0.98652   0.00000  Uiso   1.00
C597   C     0.15280   0.17631   0.93788   0.00000  Uiso   1.00
C598   C     0.17975   0.17350   0.51632   0.00000  Uiso   1.00
C599   C     0.21356   0.20575   0.99676   0.00000  Uiso   1.00
C600   C     0.21391   0.22473   0.95067   0.00000  Uiso   1.00
C601   C     0.18308   0.21086   0.92228   0.00000  Uiso   1.00
C602   C     0.17680   0.15875   0.56585   0.00000  Uiso   1.00
C603   C     0.24179   0.20453   0.57352   0.00000  Uiso   1.00
C604   C     0.12621   0.15919   0.90552   0.00000  Uiso   1.00
C605   C     0.21010   0.31220   0.72840   0.00000  Uiso   1.00
C606   C     0.14086   0.16634   0.84972   0.00000  Uiso   1.00
C607   C     0.21002   0.02160   0.72873   0.00000  Uiso   1.00
C608   C     0.16639   0.04280   0.74893   0.00000  Uiso   1.00
C609   C     0.12285   0.02114   0.76855   0.00000  Uiso   1.00
C610   C     0.12309   0.31175   0.76891   0.00000  Uiso   1.00
C611   C     0.16684   0.29055   0.74930   0.00000  Uiso   1.00
C612   C     0.30220   0.19599   0.77752   0.00000  Uiso   1.00
C613   C     0.01827   0.19538   0.77792   0.00000  Uiso   1.00
C614   C     0.03132   0.13733   0.72229   0.00000  Uiso   1.00
C615   C     0.31488   0.13742   0.72287   0.00000  Uiso   1.00
C616   C     0.16653   0.08743   0.74963   0.00000  Uiso   1.00
C617   C     0.19236   0.16770   0.65039   0.00000  Uiso   1.00
C618   C     0.24541   0.21988   0.52464   0.00000  Uiso   1.00
C619   C     0.20603   0.17523   0.59495   0.00000  Uiso   1.00
C620   C     0.09110   0.12864   0.92427   0.00000  Uiso   1.00
C621   C     0.08554   0.11226   0.97280   0.00000  Uiso   1.00
C622   C     0.11532   0.12569   0.50278   0.00000  Uiso   1.00
Cu623  Cu    0.11978   0.16666   0.75000   0.00000  Uiso   1.00
Cu624  Cu    0.21355   0.16667   0.75000   0.00000  Uiso   1.00
H625   H     0.26439   0.21774   0.59603   0.00000  Uiso   1.00
H626   H     0.24383   0.03801   0.71256   0.00000  Uiso   1.00
H627   H     0.08891   0.03721   0.78441   0.00000  Uiso   1.00
H628   H     0.08925   0.29535   0.78499   0.00000  Uiso   1.00
H629   H     0.03165   0.21784   0.80095   0.00000  Uiso   1.00
H630   H     0.30080   0.11380   0.70197   0.00000  Uiso   1.00
H631   H     0.23781   0.25074   0.93674   0.00000  Uiso   1.00
H632   H     0.27168   0.24410   0.50959   0.00000  Uiso   1.00
H633   H     0.15041   0.13600   0.58423   0.00000  Uiso   1.00
H634   H     0.07028   0.11533   0.89991   0.00000  Uiso   1.00
H635   H     0.11161   0.10920   0.53782   0.00000  Uiso   1.00
H636   H     0.05971   0.08745   0.98618   0.00000  Uiso   1.00
H637   H     0.18301   0.22742   0.88777   0.00000  Uiso   1.00
H638   H     0.24366   0.29612   0.71108   0.00000  Uiso   1.00
N639   N     0.04931   0.16666   0.74999   0.00000  Uiso   1.00
N640   N     0.28402   0.16669   0.75000   0.00000  Uiso   1.00
O641   O     0.12708   0.22678   0.75001   0.00000  Uiso   1.00
O642   O     0.20627   0.22679   0.75001   0.00000  Uiso   1.00
O643   O     0.10775   0.16665   0.82549   0.00000  Uiso   1.00
O644   O     0.18694   0.16666   0.82549   0.00000  Uiso   1.00
O645   O     0.12706   0.10654   0.75000   0.00000  Uiso   1.00
O646   O     0.20625   0.10655   0.75000   0.00000  Uiso   1.00
O647   O     0.14640   0.16667   0.67451   0.00000  Uiso   1.00
O648   O     0.22559   0.16668   0.67451   0.00000  Uiso   1.00
N649   N     0.27092   0.22575   0.80849   0.00000  Uiso   1.00
H650   H     0.26578   0.22014   0.84709   0.00000  Uiso   1.00
C651   C     0.28504   0.26832   0.79684   0.00000  Uiso   1.00
H652   H     0.25366   0.28862   0.81442   0.00000  Uiso   1.00
H653   H     0.29677   0.27295   0.75437   0.00000  Uiso   1.00
H654   H     0.31524   0.27739   0.81321   0.00000  Uiso   1.00
N655   N     0.06196   0.10528   0.69537   0.00000  Uiso   1.00
H656   H     0.05746   0.07843   0.71618   0.00000  Uiso   1.00
C657   C     0.06185   0.09778   0.64229   0.00000  Uiso   1.00
H658   H     0.02869   0.08045   0.64057   0.00000  Uiso   1.00
H659   H     0.09379   0.07876   0.62256   0.00000  Uiso   1.00
H660   H     0.06371   0.12746   0.62182   0.00000  Uiso   1.00
C661   C     0.50020   0.24591   0.74981   0.00000  Uiso   1.00
C662   C     0.48238   0.15840   0.98652   0.00000  Uiso   1.00
C663   C     0.48614   0.17631   0.93788   0.00000  Uiso   1.00
C664   C     0.51308   0.17350   0.51632   0.00000  Uiso   1.00
C665   C     0.54689   0.20575   0.99676   0.00000  Uiso   1.00
C666   C     0.54725   0.22473   0.95067   0.00000  Uiso   1.00
C667   C     0.51641   0.21086   0.92228   0.00000  Uiso   1.00
C668   C     0.51013   0.15875   0.56585   0.00000  Uiso   1.00
C669   C     0.57512   0.20453   0.57352   0.00000  Uiso   1.00
C670   C     0.45954   0.15919   0.90552   0.00000  Uiso   1.00
C671   C     0.54343   0.31220   0.72840   0.00000  Uiso   1.00
C672   C     0.47420   0.16634   0.84972   0.00000  Uiso   1.00
C673   C     0.54335   0.02160   0.72873   0.00000  Uiso   1.00
C674   C     0.49973   0.04280   0.74893   0.00000  Uiso   1.00
C675   C     0.45618   0.02114   0.76855   0.00000  Uiso   1.00
C676   C     0.45642   0.31175   0.76891   0.00000  Uiso   1.00
C677   C     0.50017   0.29055   0.74930   0.00000  Uiso   1.00
C678   C     0.63553   0.19599   0.77752   0.00000  Uiso   1.00
C679   C     0.35160   0.19538   0.77792   0.00000  Uiso   1.00
C680   C     0.36465   0.13733   0.72229   0.00000  Uiso   1.00
C681   C     0.64821   0.13742   0.72287   0.00000  Uiso   1.00
C682   C     0.49986   0.08743   0.74963   0.00000  Uiso   1.00
C683   C     0.52570   0.16770   0.65039   0.00000  Uiso   1.00
C684   C     0.57874   0.21988   0.52464   0.00000  Uiso   1.00
C685   C     0.53936   0.17523   0.59495   0.00000  Uiso   1.00
C686   C     0.42443   0.12864   0.92427   0.00000  Uiso   1.00
C687   C     0.41887   0.11226   0.97280   0.00000  Uiso   1.00
C688   C     0.44866   0.12569   0.50278   0.00000  Uiso   1.00
Cu689  Cu    0.45311   0.16666   0.75000   0.00000  Uiso   1.00
Cu690  Cu    0.54689   0.16667   0.75000   0.00000  Uiso   1.00
H691   H     0.59773   0.21774   0.59603   0.00000  Uiso   1.00
H692   H     0.57716   0.03801   0.71256   0.00000  Uiso   1.00
H693   H     0.42224   0.03721   0.78441   0.00000  Uiso   1.00
H694   H     0.42258   0.29535   0.78499   0.00000  Uiso   1.00
H695   H     0.36499   0.21784   0.80095   0.00000  Uiso   1.00
H696   H     0.63413   0.11380   0.70197   0.00000  Uiso   1.00
H697   H     0.57114   0.25074   0.93674   0.00000  Uiso   1.00
H698   H     0.60501   0.24410   0.50959   0.00000  Uiso   1.00
H699   H     0.48374   0.13600   0.58423   0.00000  Uiso   1.00
H700   H     0.40361   0.11533   0.89991   0.00000  Uiso   1.00
H701   H     0.44494   0.10920   0.53782   0.00000  Uiso   1.00
H702   H     0.39304   0.08745   0.98618   0.00000  Uiso   1.00
H703   H     0.51635   0.22742   0.88777   0.00000  Uiso   1.00
H704   H     0.57700   0.29612   0.71108   0.00000  Uiso   1.00
N705   N     0.38265   0.16666   0.74999   0.00000  Uiso   1.00
N706   N     0.61735   0.16669   0.75000   0.00000  Uiso   1.00
O707   O     0.46042   0.22678   0.75001   0.00000  Uiso   1.00
O708   O     0.53961   0.22679   0.75001   0.00000  Uiso   1.00
O709   O     0.44108   0.16665   0.82549   0.00000  Uiso   1.00
O710   O     0.52027   0.16666   0.82549   0.00000  Uiso   1.00
O711   O     0.46039   0.10654   0.75000   0.00000  Uiso   1.00
O712   O     0.53958   0.10655   0.75000   0.00000  Uiso   1.00
O713   O     0.47973   0.16667   0.67451   0.00000  Uiso   1.00
O714   O     0.55892   0.16668   0.67451   0.00000  Uiso   1.00
N715   N     0.60425   0.22575   0.80849   0.00000  Uiso   1.00
H716   H     0.59911   0.22014   0.84709   0.00000  Uiso   1.00
C717   C     0.61837   0.26832   0.79684   0.00000  Uiso   1.00
H718   H     0.58700   0.28862   0.81442   0.00000  Uiso   1.00
H719   H     0.63011   0.27295   0.75437   0.00000  Uiso   1.00
H720   H     0.64857   0.27739   0.81321   0.00000  Uiso   1.00
N721   N     0.39530   0.10528   0.69537   0.00000  Uiso   1.00
H722   H     0.39080   0.07843   0.71618   0.00000  Uiso   1.00
C723   C     0.39518   0.09778   0.64229   0.00000  Uiso   1.00
H724   H     0.36203   0.08045   0.64057   0.00000  Uiso   1.00
H725   H     0.42713   0.07876   0.62256   0.00000  Uiso   1.00
H726   H     0.39705   0.12746   0.62182   0.00000  Uiso   1.00
C727   C     0.83354   0.24591   0.74981   0.00000  Uiso   1.00
C728   C     0.81572   0.15840   0.98652   0.00000  Uiso   1.00
C729   C     0.81947   0.17631   0.93788   0.00000  Uiso   1.00
C730   C     0.84641   0.17350   0.51632   0.00000  Uiso   1.00
C731   C     0.88022   0.20575   0.99676   0.00000  Uiso   1.00
C732   C     0.88058   0.22473   0.95067   0.00000  Uiso   1.00
C733   C     0.84974   0.21086   0.92228   0.00000  Uiso   1.00
C734   C     0.84347   0.15875   0.56585   0.00000  Uiso   1.00
C735   C     0.90846   0.20453   0.57352   0.00000  Uiso   1.00
C736   C     0.79288   0.15919   0.90552   0.00000  Uiso   1.00
C737   C     0.87677   0.31220   0.72840   0.00000  Uiso   1.00
C738   C     0.80753   0.16634   0.84972   0.00000  Uiso   1.00
C739   C     0.87668   0.02160   0.72873   0.00000  Uiso   1.00
C740   C     0.83306   0.04280   0.74893   0.00000  Uiso   1.00
C741   C     0.78951   0.02114   0.76855   0.00000  Uiso   1.00
C742   C     0.78976   0.31175   0.76891   0.00000  Uiso   1.00
C743   C     0.83350   0.29055   0.74930   0.00000  Uiso   1.00
C744   C     0.96887   0.19599   0.77752   0.00000  Uiso   1.00
C745   C     0.68493   0.19538   0.77792   0.00000  Uiso   1.00
C746   C     0.69798   0.13733   0.72229   0.00000  Uiso   1.00
C747   C     0.98155   0.13742   0.72287   0.00000  Uiso   1.00
C748   C     0.83319   0.08743   0.74963   0.00000  Uiso   1.00
C749   C     0.85903   0.16770   0.65039   0.00000  Uiso   1.00
C750   C     0.91208   0.21988   0.52464   0.00000  Uiso   1.00
C751   C     0.87269   0.17523   0.59495   0.00000  Uiso   1.00
C752   C     0.75777   0.12864   0.92427   0.00000  Uiso   1.00
C753   C     0.75221   0.11226   0.97280   0.00000  Uiso   1.00
C754   C     0.78199   0.12569   0.50278   0.00000  Uiso   1.00
Cu755  Cu    0.78645   0.16666   0.75000   0.00000  Uiso   1.00
Cu756  Cu    0.88022   0.16667   0.75000   0.00000  Uiso   1.00
H757   H     0.93106   0.21774   0.59603   0.00000  Uiso   1.00
H758   H     0.91049   0.03801   0.71256   0.00000  Uiso   1.00
H759   H     0.75558   0.03721   0.78441   0.00000  Uiso   1.00
H760   H     0.75592   0.29535   0.78499   0.00000  Uiso   1.00
H761   H     0.69832   0.21784   0.80095   0.00000  Uiso   1.00
H762   H     0.96746   0.11380   0.70197   0.00000  Uiso   1.00
H763   H     0.90447   0.25074   0.93674   0.00000  Uiso   1.00
H764   H     0.93834   0.24410   0.50959   0.00000  Uiso   1.00
H765   H     0.81708   0.13600   0.58423   0.00000  Uiso   1.00
H766   H     0.73695   0.11533   0.89991   0.00000  Uiso   1.00
H767   H     0.77828   0.10920   0.53782   0.00000  Uiso   1.00
H768   H     0.72637   0.08745   0.98618   0.00000  Uiso   1.00
H769   H     0.84968   0.22742   0.88777   0.00000  Uiso   1.00
H770   H     0.91033   0.29612   0.71108   0.00000  Uiso   1.00
N771   N     0.71598   0.16666   0.74999   0.00000  Uiso   1.00
N772   N     0.95069   0.16669   0.75000   0.00000  Uiso   1.00
O773   O     0.79375   0.22678   0.75001   0.00000  Uiso   1.00
O774   O     0.87294   0.22679   0.75001   0.00000  Uiso   1.00
O775   O     0.77441   0.16665   0.82549   0.00000  Uiso   1.00
O776   O     0.85360   0.16666   0.82549   0.00000  Uiso   1.00
O777   O     0.79373   0.10654   0.75000   0.00000  Uiso   1.00
O778   O     0.87292   0.10655   0.75000   0.00000  Uiso   1.00
O779   O     0.81306   0.16667   0.67451   0.00000  Uiso   1.00
O780   O     0.89225   0.16668   0.67451   0.00000  Uiso   1.00
N781   N     0.93758   0.22575   0.80849   0.00000  Uiso   1.00
H782   H     0.93244   0.22014   0.84709   0.00000  Uiso   1.00
C783   C     0.95171   0.26832   0.79684   0.00000  Uiso   1.00
H784   H     0.92033   0.28862   0.81442   0.00000  Uiso   1.00
H785   H     0.96344   0.27295   0.75437   0.00000  Uiso   1.00
H786   H     0.98191   0.27739   0.81321   0.00000  Uiso   1.00
N787   N     0.72863   0.10528   0.69537   0.00000  Uiso   1.00
H788   H     0.72413   0.07843   0.71618   0.00000  Uiso   1.00
C789   C     0.72851   0.09778   0.64229   0.00000  Uiso   1.00
H790   H     0.69536   0.08045   0.64057   0.00000  Uiso   1.00
H791   H     0.76046   0.07876   0.62256   0.00000  Uiso   1.00
H792   H     0.73038   0.12746   0.62182   0.00000  Uiso   1.00
C793   C     0.16687   0.57924   0.74981   0.00000  Uiso   1.00
C794   C     0.14905   0.49174   0.98652   0.00000  Uiso   1.00
C795   C     0.15280   0.50965   0.93788   0.00000  Uiso   1.00
C796   C     0.17975   0.50683   0.51632   0.00000  Uiso   1.00
C797   C     0.21356   0.53908   0.99676   0.00000  Uiso   1.00
C798   C     0.21391   0.55806   0.95067   0.00000  Uiso   1.00
C799   C     0.18308   0.54419   0.92228   0.00000  Uiso   1.00
C800   C     0.17680   0.49208   0.56585   0.00000  Uiso   1.00
C801   C     0.24179   0.53786   0.57352   0.00000  Uiso   1.00
C802   C     0.12621   0.49253   0.90552   0.00000  Uiso   1.00
C803   C     0.21010   0.64553   0.72840   0.00000  Uiso   1.00
C804   C     0.14086   0.49967   0.84972   0.00000  Uiso   1.00
C805   C     0.21002   0.35493   0.72873   0.00000  Uiso   1.00
C806   C     0.16639   0.37614   0.74893   0.00000  Uiso   1.00
C807   C     0.12285   0.35448   0.76855   0.00000  Uiso   1.00
C808   C     0.12309   0.64508   0.76891   0.00000  Uiso   1.00
C809   C     0.16684   0.62388   0.74930   0.00000  Uiso   1.00
C810   C     0.30220   0.52933   0.77752   0.00000  Uiso   1.00
C811   C     0.01827   0.52871   0.77792   0.00000  Uiso   1.00
C812   C     0.03132   0.47066   0.72229   0.00000  Uiso   1.00
C813   C     0.31488   0.47075   0.72287   0.00000  Uiso   1.00
C814   C     0.16653   0.42076   0.74963   0.00000  Uiso   1.00
C815   C     0.19236   0.50104   0.65039   0.00000  Uiso   1.00
C816   C     0.24541   0.55322   0.52464   0.00000  Uiso   1.00
C817   C     0.20603   0.50856   0.59495   0.00000  Uiso   1.00
C818   C     0.09110   0.46197   0.92427   0.00000  Uiso   1.00
C819   C     0.08554   0.44559   0.97280   0.00000  Uiso   1.00
C820   C     0.11532   0.45902   0.50278   0.00000  Uiso   1.00
Cu821  Cu    0.11978   0.49999   0.75000   0.00000  Uiso   1.00
Cu822  Cu    0.21355   0.50001   0.75000   0.00000  Uiso   1.00
H823   H     0.26439   0.55108   0.59603   0.00000  Uiso   1.00
H824   H     0.24383   0.37135   0.71256   0.00000  Uiso   1.00
H825   H     0.08891   0.37054   0.78441   0.00000  Uiso   1.00
H826   H     0.08925   0.62868   0.78499   0.00000  Uiso   1.00
H827   H     0.03165   0.55117   0.80095   0.00000  Uiso   1.00
H828   H     0.30080   0.44713   0.70197   0.00000  Uiso   1.00
H829   H     0.23781   0.58407   0.93674   0.00000  Uiso   1.00
H830   H     0.27168   0.57743   0.50959   0.00000  Uiso   1.00
H831   H     0.15041   0.46934   0.58423   0.00000  Uiso   1.00
H832   H     0.07028   0.44866   0.89991   0.00000  Uiso   1.00
H833   H     0.11161   0.44253   0.53782   0.00000  Uiso   1.00
H834   H     0.05971   0.42078   0.98618   0.00000  Uiso   1.00
H835   H     0.18301   0.56075   0.88777   0.00000  Uiso   1.00
H836   H     0.24366   0.62945   0.71108   0.00000  Uiso   1.00
N837   N     0.04931   0.49999   0.74999   0.00000  Uiso   1.00
N838   N     0.28402   0.50002   0.75000   0.00000  Uiso   1.00
O839   O     0.12708   0.56011   0.75001   0.00000  Uiso   1.00
O840   O     0.20627   0.56012   0.75001   0.00000  Uiso   1.00
O841   O     0.10775   0.49998   0.82549   0.00000  Uiso   1.00
O842   O     0.18694   0.49999   0.82549   0.00000  Uiso   1.00
O843   O     0.12706   0.43988   0.75000   0.00000  Uiso   1.00
O844   O     0.20625   0.43989   0.75000   0.00000  Uiso   1.00
O845   O     0.14640   0.50001   0.67451   0.00000  Uiso   1.00
O846   O     0.22559   0.50002   0.67451   0.00000  Uiso   1.00
N847   N     0.27092   0.55909   0.80849   0.00000  Uiso   1.00
H848   H     0.26578   0.55348   0.84709   0.00000  Uiso   1.00
C849   C     0.28504   0.60165   0.79684   0.00000  Uiso   1.00
H850   H     0.25366   0.62195   0.81442   0.00000  Uiso   1.00
H851   H     0.29677   0.60628   0.75437   0.00000  Uiso   1.00
H852   H     0.31524   0.61073   0.81321   0.00000  Uiso   1.00
N853   N     0.06196   0.43862   0.69537   0.00000  Uiso   1.00
H854   H     0.05746   0.41176   0.71618   0.00000  Uiso   1.00
C855   C     0.06185   0.43111   0.64229   0.00000  Uiso   1.00
H856   H     0.02869   0.41378   0.64057   0.00000  Uiso   1.00
H857   H     0.09379   0.41210   0.62256   0.00000  Uiso   1.00
H858   H     0.06371   0.46079   0.62182   0.00000  Uiso   1.00
C859   C     0.50020   0.57924   0.74981   0.00000  Uiso   1.00
C860   C     0.48238   0.49174   0.98652   0.00000  Uiso   1.00
C861   C     0.48614   0.50965   0.93788   0.00000  Uiso   1.00
C862   C     0.51308   0.50683   0.51632   0.00000  Uiso   1.00
C863   C     0.54689   0.53908   0.99676   0.00000  Uiso   1.00
C864   C     0.54725   0.55806   0.95067   0.00000  Uiso   1.00
C865   C     0.51641   0.54419   0.92228   0.00000  Uiso   1.00
C866   C     0.51013   0.49208   0.56585   0.00000  Uiso   1.00
C867   C     0.57512   0.53786   0.57352   0.00000  Uiso   1.00
C868   C     0.45954   0.49253   0.90552   0.00000  Uiso   1.00
C869   C     0.54343   0.64553   0.72840   0.00000  Uiso   1.00
C870   C     0.47420   0.49967   0.84972   0.00000  Uiso   1.00
C871   C     0.54335   0.35493   0.72873   0.00000  Uiso   1.00
C872   C     0.49973   0.37614   0.74893   0.00000  Uiso   1.00
C873   C     0.45618   0.35448   0.76855   0.00000  Uiso   1.00
C874   C     0.45642   0.64508   0.76891   0.00000  Uiso   1.00
C875   C     0.50017   0.62388   0.74930   0.00000  Uiso   1.00
C876   C     0.63553   0.52933   0.77752   0.00000  Uiso   1.00
C877   C     0.35160   0.52871   0.77792   0.00000  Uiso   1.00
C878   C     0.36465   0.47066   0.72229   0.00000  Uiso   1.00
C879   C     0.64821   0.47075   0.72287   0.00000  Uiso   1.00
C880   C     0.49986   0.42076   0.74963   0.00000  Uiso   1.00
C881   C     0.52570   0.50104   0.65039   0.00000  Uiso   1.00
C882   C     0.57874   0.55322   0.52464   0.00000  Uiso   1.00
C883   C     0.53936   0.50856   0.59495   0.00000  Uiso   1.00
C884   C     0.42443   0.46197   0.92427   0.00000  Uiso   1.00
C885   C     0.41887   0.44559   0.97280   0.00000  Uiso   1.00
C886   C     0.44866   0.45902   0.50278   0.00000  Uiso   1.00
Cu887  Cu    0.45311   0.49999   0.75000   0.00000  Uiso   1.00
Cu888  Cu    0.54689   0.50001   0.75000   0.00000  Uiso   1.00
H889   H     0.59773   0.55108   0.59603   0.00000  Uiso   1.00
H890   H     0.57716   0.37135   0.71256   0.00000  Uiso   1.00
H891   H     0.42224   0.37054   0.78441   0.00000  Uiso   1.00
H892   H     0.42258   0.62868   0.78499   0.00000  Uiso   1.00
H893   H     0.36499   0.55117   0.80095   0.00000  Uiso   1.00
H894   H     0.63413   0.44713   0.70197   0.00000  Uiso   1.00
H895   H     0.57114   0.58407   0.93674   0.00000  Uiso   1.00
H896   H     0.60501   0.57743   0.50959   0.00000  Uiso   1.00
H897   H     0.48374   0.46934   0.58423   0.00000  Uiso   1.00
H898   H     0.40361   0.44866   0.89991   0.00000  Uiso   1.00
H899   H     0.44494   0.44253   0.53782   0.00000  Uiso   1.00
H900   H     0.39304   0.42078   0.98618   0.00000  Uiso   1.00
H901   H     0.51635   0.56075   0.88777   0.00000  Uiso   1.00
H902   H     0.57700   0.62945   0.71108   0.00000  Uiso   1.00
N903   N     0.38265   0.49999   0.74999   0.00000  Uiso   1.00
N904   N     0.61735   0.50002   0.75000   0.00000  Uiso   1.00
O905   O     0.46042   0.56011   0.75001   0.00000  Uiso   1.00
O906   O     0.53961   0.56012   0.75001   0.00000  Uiso   1.00
O907   O     0.44108   0.49998   0.82549   0.00000  Uiso   1.00
O908   O     0.52027   0.49999   0.82549   0.00000  Uiso   1.00
O909   O     0.46039   0.43988   0.75000   0.00000  Uiso   1.00
O910   O     0.53958   0.43989   0.75000   0.00000  Uiso   1.00
O911   O     0.47973   0.50001   0.67451   0.00000  Uiso   1.00
O912   O     0.55892   0.50002   0.67451   0.00000  Uiso   1.00
N913   N     0.60425   0.55909   0.80849   0.00000  Uiso   1.00
H914   H     0.59911   0.55348   0.84709   0.00000  Uiso   1.00
C915   C     0.61837   0.60165   0.79684   0.00000  Uiso   1.00
H916   H     0.58700   0.62195   0.81442   0.00000  Uiso   1.00
H917   H     0.63011   0.60628   0.75437   0.00000  Uiso   1.00
H918   H     0.64857   0.61073   0.81321   0.00000  Uiso   1.00
N919   N     0.39530   0.43862   0.69537   0.00000  Uiso   1.00
H920   H     0.39080   0.41176   0.71618   0.00000  Uiso   1.00
C921   C     0.39518   0.43111   0.64229   0.00000  Uiso   1.00
H922   H     0.36203   0.41378   0.64057   0.00000  Uiso   1.00
H923   H     0.42713   0.41210   0.62256   0.00000  Uiso   1.00
H924   H     0.39705   0.46079   0.62182   0.00000  Uiso   1.00
C925   C     0.83354   0.57924   0.74981   0.00000  Uiso   1.00
C926   C     0.81572   0.49174   0.98652   0.00000  Uiso   1.00
C927   C     0.81947   0.50965   0.93788   0.00000  Uiso   1.00
C928   C     0.84641   0.50683   0.51632   0.00000  Uiso   1.00
C929   C     0.88022   0.53908   0.99676   0.00000  Uiso   1.00
C930   C     0.88058   0.55806   0.95067   0.00000  Uiso   1.00
C931   C     0.84974   0.54419   0.92228   0.00000  Uiso   1.00
C932   C     0.84347   0.49208   0.56585   0.00000  Uiso   1.00
C933   C     0.90846   0.53786   0.57352   0.00000  Uiso   1.00
C934   C     0.79288   0.49253   0.90552   0.00000  Uiso   1.00
C935   C     0.87677   0.64553   0.72840   0.00000  Uiso   1.00
C936   C     0.80753   0.49967   0.84972   0.00000  Uiso   1.00
C937   C     0.87668   0.35493   0.72873   0.00000  Uiso   1.00
C938   C     0.83306   0.37614   0.74893   0.00000  Uiso   1.00
C939   C     0.78951   0.35448   0.76855   0.00000  Uiso   1.00
C940   C     0.78976   0.64508   0.76891   0.00000  Uiso   1.00
C941   C     0.83350   0.62388   0.74930   0.00000  Uiso   1.00
C942   C     0.96887   0.52933   0.77752   0.00000  Uiso   1.00
C943   C     0.68493   0.52871   0.77792   0.00000  Uiso   1.00
C944   C     0.69798   0.47066   0.72229   0.00000  Uiso   1.00
C945   C     0.98155   0.47075   0.72287   0.00000  Uiso   1.00
C946   C     0.83319   0.42076   0.74963   0.00000  Uiso   1.00
C947   C     0.85903   0.50104   0.65039   0.00000  Uiso   1.00
C948   C     0.91208   0.55322   0.52464   0.00000  Uiso   1.00
C949   C     0.87269   0.50856   0.59495   0.00000  Uiso   1.00
C950   C     0.75777   0.46197   0.92427   0.00000  Uiso   1.00
C951   C     0.75221   0.44559   0.97280   0.00000  Uiso   1.00
C952   C     0.78199   0.45902   0.50278   0.00000  Uiso   1.00
Cu953  Cu    0.78645   0.49999   0.75000   0.00000  Uiso   1.00
Cu954  Cu    0.88022   0.50001   0.75000   0.00000  Uiso   1.00
H955   H     0.93106   0.55108   0.59603   0.00000  Uiso   1.00
H956   H     0.91049   0.37135   0.71256   0.00000  Uiso   1.00
H957   H     0.75558   0.37054   0.78441   0.00000  Uiso   1.00
H958   H     0.75592   0.62868   0.78499   0.00000  Uiso   1.00
H959   H     0.69832   0.55117   0.80095   0.00000  Uiso   1.00
H960   H     0.96746   0.44713   0.70197   0.00000  Uiso   1.00
H961   H     0.90447   0.58407   0.93674   0.00000  Uiso   1.00
H962   H     0.93834   0.57743   0.50959   0.00000  Uiso   1.00
H963   H     0.81708   0.46934   0.58423   0.00000  Uiso   1.00
H964   H     0.73695   0.44866   0.89991   0.00000  Uiso   1.00
H965   H     0.77828   0.44253   0.53782   0.00000  Uiso   1.00
H966   H     0.72637   0.42078   0.98618   0.00000  Uiso   1.00
H967   H     0.84968   0.56075   0.88777   0.00000  Uiso   1.00
H968   H     0.91033   0.62945   0.71108   0.00000  Uiso   1.00
N969   N     0.71598   0.49999   0.74999   0.00000  Uiso   1.00
N970   N     0.95069   0.50002   0.75000   0.00000  Uiso   1.00
O971   O     0.79375   0.56011   0.75001   0.00000  Uiso   1.00
O972   O     0.87294   0.56012   0.75001   0.00000  Uiso   1.00
O973   O     0.77441   0.49998   0.82549   0.00000  Uiso   1.00
O974   O     0.85360   0.49999   0.82549   0.00000  Uiso   1.00
O975   O     0.79373   0.43988   0.75000   0.00000  Uiso   1.00
O976   O     0.87292   0.43989   0.75000   0.00000  Uiso   1.00
O977   O     0.81306   0.50001   0.67451   0.00000  Uiso   1.00
O978   O     0.89225   0.50002   0.67451   0.00000  Uiso   1.00
N979   N     0.93758   0.55909   0.80849   0.00000  Uiso   1.00
H980   H     0.93244   0.55348   0.84709   0.00000  Uiso   1.00
C981   C     0.95171   0.60165   0.79684   0.00000  Uiso   1.00
H982   H     0.92033   0.62195   0.81442   0.00000  Uiso   1.00
H983   H     0.96344   0.60628   0.75437   0.00000  Uiso   1.00
H984   H     0.98191   0.61073   0.81321   0.00000  Uiso   1.00
N985   N     0.72863   0.43862   0.69537   0.00000  Uiso   1.00
H986   H     0.72413   0.41176   0.71618   0.00000  Uiso   1.00
C987   C     0.72851   0.43111   0.64229   0.00000  Uiso   1.00
H988   H     0.69536   0.41378   0.64057   0.00000  Uiso   1.00
H989   H     0.76046   0.41210   0.62256   0.00000  Uiso   1.00
H990   H     0.73038   0.46079   0.62182   0.00000  Uiso   1.00
C991   C     0.16687   0.91258   0.74981   0.00000  Uiso   1.00
C992   C     0.14905   0.82507   0.98652   0.00000  Uiso   1.00
C993   C     0.15280   0.84298   0.93788   0.00000  Uiso   1.00
C994   C     0.17975   0.84016   0.51632   0.00000  Uiso   1.00
C995   C     0.21356   0.87241   0.99676   0.00000  Uiso   1.00
C996   C     0.21391   0.89139   0.95067   0.00000  Uiso   1.00
C997   C     0.18308   0.87752   0.92228   0.00000  Uiso   1.00
C998   C     0.17680   0.82542   0.56585   0.00000  Uiso   1.00
C999   C     0.24179   0.87120   0.57352   0.00000  Uiso   1.00
C1000  C     0.12621   0.82586   0.90552   0.00000  Uiso   1.00
C1001  C     0.21010   0.97886   0.72840   0.00000  Uiso   1.00
C1002  C     0.14086   0.83301   0.84972   0.00000  Uiso   1.00
C1003  C     0.21002   0.68826   0.72873   0.00000  Uiso   1.00
C1004  C     0.16639   0.70947   0.74893   0.00000  Uiso   1.00
C1005  C     0.12285   0.68781   0.76855   0.00000  Uiso   1.00
C1006  C     0.12309   0.97842   0.76891   0.00000  Uiso   1.00
C1007  C     0.16684   0.95721   0.74930   0.00000  Uiso   1.00
C1008  C     0.30220   0.86266   0.77752   0.00000  Uiso   1.00
C1009  C     0.01827   0.86205   0.77792   0.00000  Uiso   1.00
C1010  C     0.03132   0.80400   0.72229   0.00000  Uiso   1.00
C1011  C     0.31488   0.80408   0.72287   0.00000  Uiso   1.00
C1012  C     0.16653   0.75410   0.74963   0.00000  Uiso   1.00
C1013  C     0.19236   0.83437   0.65039   0.00000  Uiso   1.00
C1014  C     0.24541   0.88655   0.52464   0.00000  Uiso   1.00
C1015  C     0.20603   0.84189   0.59495   0.00000  Uiso   1.00
C1016  C     0.09110   0.79530   0.92427   0.00000  Uiso   1.00
C1017  C     0.08554   0.77892   0.97280   0.00000  Uiso   1.00
C1018  C     0.11532   0.79235   0.50278   0.00000  Uiso   1.00
Cu1019 Cu    0.11978   0.83333   0.75000   0.00000  Uiso   1.00
Cu1020 Cu    0.21355   0.83334   0.75000   0.00000  Uiso   1.00
H1021  H     0.26439   0.88441   0.59603   0.00000  Uiso   1.00
H1022  H     0.24383   0.70468   0.71256   0.00000  Uiso   1.00
H1023  H     0.08891   0.70387   0.78441   0.00000  Uiso   1.00
H1024  H     0.08925   0.96201   0.78499   0.00000  Uiso   1.00
H1025  H     0.03165   0.88451   0.80095   0.00000  Uiso   1.00
H1026  H     0.30080   0.78046   0.70197   0.00000  Uiso   1.00
H1027  H     0.23781   0.91741   0.93674   0.00000  Uiso   1.00
H1028  H     0.27168   0.91076   0.50959   0.00000  Uiso   1.00
H1029  H     0.15041   0.80267   0.58423   0.00000  Uiso   1.00
H1030  H     0.07028   0.78200   0.89991   0.00000  Uiso   1.00
H1031  H     0.11161   0.77586   0.53782   0.00000  Uiso   1.00
H1032  H     0.05971   0.75411   0.98618   0.00000  Uiso   1.00
H1033  H     0.18301   0.89408   0.88777   0.00000  Uiso   1.00
H1034  H     0.24366   0.96278   0.71108   0.00000  Uiso   1.00
N1035  N     0.04931   0.83332   0.74999   0.00000  Uiso   1.00
N1036  N     0.28402   0.83335   0.75000   0.00000  Uiso   1.00
O1037  O     0.12708   0.89345   0.75001   0.00000  Uiso   1.00
O1038  O     0.20627   0.89346   0.75001   0.00000  Uiso   1.00
O1039  O     0.10775   0.83332   0.82549   0.00000  Uiso   1.00
O1040  O     0.18694   0.83333   0.82549   0.00000  Uiso   1.00
O1041  O     0.12706   0.77321   0.75000   0.00000  Uiso   1.00
O1042  O     0.20625   0.77322   0.75000   0.00000  Uiso   1.00
O1043  O     0.14640   0.83334   0.67451   0.00000  Uiso   1.00
O1044  O     0.22559   0.83335   0.67451   0.00000  Uiso   1.00
N1045  N     0.27092   0.89242   0.80849   0.00000  Uiso   1.00
H1046  H     0.26578   0.88681   0.84709   0.00000  Uiso   1.00
C1047  C     0.28504   0.93499   0.79684   0.00000  Uiso   1.00
H1048  H     0.25366   0.95529   0.81442   0.00000  Uiso   1.00
H1049  H     0.29677   0.93962   0.75437   0.00000  Uiso   1.00
H1050  H     0.31524   0.94406   0.81321   0.00000  Uiso   1.00
N1051  N     0.06196   0.77195   0.69537   0.00000  Uiso   1.00
H1052  H     0.05746   0.74510   0.71618   0.00000  Uiso   1.00
C1053  C     0.06185   0.76444   0.64229   0.00000  Uiso   1.00
H1054  H     0.02869   0.74712   0.64057   0.00000  Uiso   1.00
H1055  H     0.09379   0.74543   0.62256   0.00000  Uiso   1.00
H1056  H     0.06371   0.79413   0.62182   0.00000  Uiso   1.00
C1057  C     0.50020   0.91258   0.74981   0.00000  Uiso   1.00
C1058  C     0.48238   0.82507   0.98652   0.00000  Uiso   1.00
C1059  C     0.48614   0.84298   0.93788   0.00000  Uiso   1.00
C1060  C     0.51308   0.84016   0.51632   0.00000  Uiso   1.00
C1061  C     0.54689   0.87241   0.99676   0.00000  Uiso   1.00
C1062  C     0.54725   0.89139   0.95067   0.00000  Uiso   1.00
C1063  C     0.51641   0.87752   0.92228   0.00000  Uiso   1.00
C1064  C     0.51013   0.82542   0.56585   0.00000  Uiso   1.00
C1065  C     0.57512   0.87120   0.57352   0.00000  Uiso   1.00
C1066  C     0.45954   0.82586   0.90552   0.00000  Uiso   1.00
C1067  C     0.54343   0.97886   0.72840   0.00000  Uiso   1.00
C1068  C     0.47420   0.83301   0.84972   0.00000  Uiso   1.00
C1069  C     0.54335   0.68826   0.72873   0.00000  Uiso   1.00
C1070  C     0.49973   0.70947   0.74893   0.00000  Uiso   1.00
C1071  C     0.45618   0.68781   0.76855   0.00000  Uiso   1.00
C1072  C     0.45642   0.97842   0.76891   0.00000  Uiso   1.00
C1073  C     0.50017   0.95721   0.74930   0.00000  Uiso   1.00
C1074  C     0.63553   0.86266   0.77752   0.00000  Uiso   1.00
C1075  C     0.35160   0.86205   0.77792   0.00000  Uiso   1.00
C1076  C     0.36465   0.80400   0.72229   0.00000  Uiso   1.00
C1077  C     0.64821   0.80408   0.72287   0.00000  Uiso   1.00
C1078  C     0.49986   0.75410   0.74963   0.00000  Uiso   1.00
C1079  C     0.52570   0.83437   0.65039   0.00000  Uiso   1.00
C1080  C     0.57874   0.88655   0.52464   0.00000  Uiso   1.00
C1081  C     0.53936   0.84189   0.59495   0.00000  Uiso   1.00
C1082  C     0.42443   0.79530   0.92427   0.00000  Uiso   1.00
C1083  C     0.41887   0.77892   0.97280   0.00000  Uiso   1.00
C1084  C     0.44866   0.79235   0.50278   0.00000  Uiso   1.00
Cu1085 Cu    0.45311   0.83333   0.75000   0.00000  Uiso   1.00
Cu1086 Cu    0.54689   0.83334   0.75000   0.00000  Uiso   1.00
H1087  H     0.59773   0.88441   0.59603   0.00000  Uiso   1.00
H1088  H     0.57716   0.70468   0.71256   0.00000  Uiso   1.00
H1089  H     0.42224   0.70387   0.78441   0.00000  Uiso   1.00
H1090  H     0.42258   0.96201   0.78499   0.00000  Uiso   1.00
H1091  H     0.36499   0.88451   0.80095   0.00000  Uiso   1.00
H1092  H     0.63413   0.78046   0.70197   0.00000  Uiso   1.00
H1093  H     0.57114   0.91741   0.93674   0.00000  Uiso   1.00
H1094  H     0.60501   0.91076   0.50959   0.00000  Uiso   1.00
H1095  H     0.48374   0.80267   0.58423   0.00000  Uiso   1.00
H1096  H     0.40361   0.78200   0.89991   0.00000  Uiso   1.00
H1097  H     0.44494   0.77586   0.53782   0.00000  Uiso   1.00
H1098  H     0.39304   0.75411   0.98618   0.00000  Uiso   1.00
H1099  H     0.51635   0.89408   0.88777   0.00000  Uiso   1.00
H1100  H     0.57700   0.96278   0.71108   0.00000  Uiso   1.00
N1101  N     0.38265   0.83332   0.74999   0.00000  Uiso   1.00
N1102  N     0.61735   0.83335   0.75000   0.00000  Uiso   1.00
O1103  O     0.46042   0.89345   0.75001   0.00000  Uiso   1.00
O1104  O     0.53961   0.89346   0.75001   0.00000  Uiso   1.00
O1105  O     0.44108   0.83332   0.82549   0.00000  Uiso   1.00
O1106  O     0.52027   0.83333   0.82549   0.00000  Uiso   1.00
O1107  O     0.46039   0.77321   0.75000   0.00000  Uiso   1.00
O1108  O     0.53958   0.77322   0.75000   0.00000  Uiso   1.00
O1109  O     0.47973   0.83334   0.67451   0.00000  Uiso   1.00
O1110  O     0.55892   0.83335   0.67451   0.00000  Uiso   1.00
N1111  N     0.60425   0.89242   0.80849   0.00000  Uiso   1.00
H1112  H     0.59911   0.88681   0.84709   0.00000  Uiso   1.00
C1113  C     0.61837   0.93499   0.79684   0.00000  Uiso   1.00
H1114  H     0.58700   0.95529   0.81442   0.00000  Uiso   1.00
H1115  H     0.63011   0.93962   0.75437   0.00000  Uiso   1.00
H1116  H     0.64857   0.94406   0.81321   0.00000  Uiso   1.00
N1117  N     0.39530   0.77195   0.69537   0.00000  Uiso   1.00
H1118  H     0.39080   0.74510   0.71618   0.00000  Uiso   1.00
C1119  C     0.39518   0.76444   0.64229   0.00000  Uiso   1.00
H1120  H     0.36203   0.74712   0.64057   0.00000  Uiso   1.00
H1121  H     0.42713   0.74543   0.62256   0.00000  Uiso   1.00
H1122  H     0.39705   0.79413   0.62182   0.00000  Uiso   1.00
C1123  C     0.83354   0.91258   0.74981   0.00000  Uiso   1.00
C1124  C     0.81572   0.82507   0.98652   0.00000  Uiso   1.00
C1125  C     0.81947   0.84298   0.93788   0.00000  Uiso   1.00
C1126  C     0.84641   0.84016   0.51632   0.00000  Uiso   1.00
C1127  C     0.88022   0.87241   0.99676   0.00000  Uiso   1.00
C1128  C     0.88058   0.89139   0.95067   0.00000  Uiso   1.00
C1129  C     0.84974   0.87752   0.92228   0.00000  Uiso   1.00
C1130  C     0.84347   0.82542   0.56585   0.00000  Uiso   1.00
C1131  C     0.90846   0.87120   0.57352   0.00000  Uiso   1.00
C1132  C     0.79288   0.82586   0.90552   0.00000  Uiso   1.00
C1133  C     0.87677   0.97886   0.72840   0.00000  Uiso   1.00
C1134  C     0.80753   0.83301   0.84972   0.00000  Uiso   1.00
C1135  C     0.87668   0.68826   0.72873   0.00000  Uiso   1.00
C1136  C     0.83306   0.70947   0.74893   0.00000  Uiso   1.00
C1137  C     0.78951   0.68781   0.76855   0.00000  Uiso   1.00
C1138  C     0.78976   0.97842   0.76891   0.00000  Uiso   1.00
C1139  C     0.83350   0.95721   0.74930   0.00000  Uiso   1.00
C1140  C     0.96887   0.86266   0.77752   0.00000  Uiso   1.00
C1141  C     0.68493   0.86205   0.77792   0.00000  Uiso   1.00
C1142  C     0.69798   0.80400   0.72229   0.00000  Uiso   1.00
C1143  C     0.98155   0.80408   0.72287   0.00000  Uiso   1.00
C1144  C     0.83319   0.75410   0.74963   0.00000  Uiso   1.00
C1145  C     0.85903   0.83437   0.65039   0.00000  Uiso   1.00
C1146  C     0.91208   0.88655   0.52464   0.00000  Uiso   1.00
C1147  C     0.87269   0.84189   0.59495   0.00000  Uiso   1.00
C1148  C     0.75777   0.79530   0.92427   0.00000  Uiso   1.00
C1149  C     0.75221   0.77892   0.97280   0.00000  Uiso   1.00
C1150  C     0.78199   0.79235   0.50278   0.00000  Uiso   1.00
Cu1151 Cu    0.78645   0.83333   0.75000   0.00000  Uiso   1.00
Cu1152 Cu    0.88022   0.83334   0.75000   0.00000  Uiso   1.00
H1153  H     0.93106   0.88441   0.59603   0.00000  Uiso   1.00
H1154  H     0.91049   0.70468   0.71256   0.00000  Uiso   1.00
H1155  H     0.75558   0.70387   0.78441   0.00000  Uiso   1.00
H1156  H     0.75592   0.96201   0.78499   0.00000  Uiso   1.00
H1157  H     0.69832   0.88451   0.80095   0.00000  Uiso   1.00
H1158  H     0.96746   0.78046   0.70197   0.00000  Uiso   1.00
H1159  H     0.90447   0.91741   0.93674   0.00000  Uiso   1.00
H1160  H     0.93834   0.91076   0.50959   0.00000  Uiso   1.00
H1161  H     0.81708   0.80267   0.58423   0.00000  Uiso   1.00
H1162  H     0.73695   0.78200   0.89991   0.00000  Uiso   1.00
H1163  H     0.77828   0.77586   0.53782   0.00000  Uiso   1.00
H1164  H     0.72637   0.75411   0.98618   0.00000  Uiso   1.00
H1165  H     0.84968   0.89408   0.88777   0.00000  Uiso   1.00
H1166  H     0.91033   0.96278   0.71108   0.00000  Uiso   1.00
N1167  N     0.71598   0.83332   0.74999   0.00000  Uiso   1.00
N1168  N     0.95069   0.83335   0.75000   0.00000  Uiso   1.00
O1169  O     0.79375   0.89345   0.75001   0.00000  Uiso   1.00
O1170  O     0.87294   0.89346   0.75001   0.00000  Uiso   1.00
O1171  O     0.77441   0.83332   0.82549   0.00000  Uiso   1.00
O1172  O     0.85360   0.83333   0.82549   0.00000  Uiso   1.00
O1173  O     0.79373   0.77321   0.75000   0.00000  Uiso   1.00
O1174  O     0.87292   0.77322   0.75000   0.00000  Uiso   1.00
O1175  O     0.81306   0.83334   0.67451   0.00000  Uiso   1.00
O1176  O     0.89225   0.83335   0.67451   0.00000  Uiso   1.00
N1177  N     0.93758   0.89242   0.80849   0.00000  Uiso   1.00
H1178  H     0.93244   0.88681   0.84709   0.00000  Uiso   1.00
C1179  C     0.95171   0.93499   0.79684   0.00000  Uiso   1.00
H1180  H     0.92033   0.95529   0.81442   0.00000  Uiso   1.00
H1181  H     0.96344   0.93962   0.75437   0.00000  Uiso   1.00
H1182  H     0.98191   0.94406   0.81321   0.00000  Uiso   1.00
N1183  N     0.72863   0.77195   0.69537   0.00000  Uiso   1.00
H1184  H     0.72413   0.74510   0.71618   0.00000  Uiso   1.00
C1185  C     0.72851   0.76444   0.64229   0.00000  Uiso   1.00
H1186  H     0.69536   0.74712   0.64057   0.00000  Uiso   1.00
H1187  H     0.76046   0.74543   0.62256   0.00000  Uiso   1.00
H1188  H     0.73038   0.79413   0.62182   0.00000  Uiso   1.00
loop_
_geom_bond_atom_site_label_1
_geom_bond_atom_site_label_2
_geom_bond_distance
_geom_bond_site_symmetry_2
_ccdc_geom_bond_type
C1     O48     1.298   .     A
C1     C17     1.447   .     S
C1     O47     1.291   .     A
C2     C3      1.418   .     A
C2     C598    1.424   .     S
C2     C622    1.417   .     S
C3     C10     1.411   .     A
C3     C7      1.405   .     A
C4     C8      1.404   .     A
C4     C596    1.424   1_554 S
C4     C599    1.422   1_554 S
C5     C6      1.393   .     A
C5     C598    1.422   .     S
C5     C618    1.403   .     S
C6     C7      1.387   .     A
C6     H37     1.084   .     S
C7     H43     1.082   .     S
C8     H39     1.074   .     S
C8     C25     1.394   .     A
C9     C25     1.398   .     A
C9     C24     1.392   .     A
C9     H31     1.083   .     S
C10    C12     1.464   .     S
C10    C26     1.400   .     A
C11    H44     1.081   .     S
C11    C17     1.398   .     A
C11    C211    1.384   .     S
C12    O50     1.301   .     A
C12    O49     1.295   .     A
C13    H32     1.084   .     S
C13    C14     1.401   .     A
C13    C407    1.384   1_545 S
C14    C22     1.446   .     S
C14    C15     1.399   .     A
C15    H33     1.083   .     S
C15    C412    1.385   1_545 S
C16    H34     1.084   .     S
C16    C17     1.402   .     A
C16    C213    1.385   .     S
C18    N55     1.415   .     S
C18    N46     1.378   .     A
C18    C85     1.422   .     S
C19    N45     1.358   .     A
C19    H35     1.082   .     S
C19    C150    1.422   1_455 S
C20    N45     1.378   .     A
C20    N61     1.419   .     S
C20    C153    1.425   1_455 S
C21    N46     1.360   .     A
C21    H36     1.081   .     S
C21    C86     1.425   .     S
C22    O52     1.293   .     A
C22    O51     1.296   .     A
C23    O53     1.298   .     A
C23    C25     1.457   .     S
C23    O54     1.296   .     A
C24    H38     1.084   .     S
C24    C599    1.403   1_554 S
C26    H40     1.084   .     S
C26    C27     1.386   .     A
C27    H42     1.083   .     S
C27    C622    1.391   .     S
C28    H41     1.072   .     S
C28    C596    1.417   1_554 S
C28    C621    1.391   1_554 S
Cu29   O49     1.963   .     S
Cu29   Cu30    2.692   .     S
Cu29   O47     1.956   .     S
Cu29   O51     1.962   .     S
Cu29   N45     2.023   .     S
Cu29   O53     1.960   .     S
Cu30   O54     1.963   .     S
Cu30   O48     1.962   .     S
Cu30   N46     2.023   .     S
Cu30   O50     1.960   .     S
Cu30   O52     1.956   .     S
N55    H56     1.027   .     S
N55    C57     1.448   .     S
C57    H58     1.110   .     S
C57    H59     1.110   .     S
C57    H60     1.111   .     S
N61    H62     1.031   .     S
N61    C63     1.445   .     S
C63    H65     1.110   .     S
C63    H66     1.111   .     S
C63    H64     1.111   .     S
C67    O114    1.298   .     A
C67    C83     1.447   .     S
C67    O113    1.291   .     A
C68    C69     1.418   .     A
C68    C664    1.424   .     S
C68    C688    1.417   .     S
C69    C76     1.411   .     A
C69    C73     1.405   .     A
C70    C74     1.404   .     A
C70    C662    1.424   1_554 S
C70    C665    1.422   1_554 S
C71    C72     1.393   .     A
C71    C664    1.422   .     S
C71    C684    1.403   .     S
C72    C73     1.387   .     A
C72    H103    1.084   .     S
C73    H109    1.082   .     S
C74    H105    1.074   .     S
C74    C91     1.394   .     A
C75    C91     1.398   .     A
C75    C90     1.392   .     A
C75    H97     1.083   .     S
C76    C78     1.464   .     S
C76    C92     1.400   .     A
C77    H110    1.081   .     S
C77    C83     1.398   .     A
C77    C277    1.384   .     S
C78    O116    1.301   .     A
C78    O115    1.295   .     A
C79    H98     1.084   .     S
C79    C80     1.401   .     A
C79    C473    1.384   1_545 S
C80    C88     1.446   .     S
C80    C81     1.399   .     A
C81    H99     1.083   .     S
C81    C478    1.385   1_545 S
C82    H100    1.084   .     S
C82    C83     1.402   .     A
C82    C279    1.385   .     S
C84    N121    1.415   .     S
C84    N112    1.378   .     A
C84    C151    1.422   .     S
C85    N111    1.358   .     A
C85    H101    1.082   .     S
C86    N111    1.378   .     A
C86    N127    1.419   .     S
C87    N112    1.360   .     A
C87    H102    1.081   .     S
C87    C152    1.425   .     S
C88    O118    1.293   .     A
C88    O117    1.296   .     A
C89    O119    1.298   .     A
C89    C91     1.457   .     S
C89    O120    1.296   .     A
C90    H104    1.084   .     S
C90    C665    1.403   1_554 S
C92    H106    1.084   .     S
C92    C93     1.386   .     A
C93    H108    1.083   .     S
C93    C688    1.391   .     S
C94    H107    1.072   .     S
C94    C662    1.417   1_554 S
C94    C687    1.391   1_554 S
Cu95   O115    1.963   .     S
Cu95   Cu96    2.692   .     S
Cu95   O113    1.956   .     S
Cu95   O117    1.962   .     S
Cu95   N111    2.023   .     S
Cu95   O119    1.960   .     S
Cu96   O120    1.963   .     S
Cu96   O114    1.962   .     S
Cu96   N112    2.023   .     S
Cu96   O116    1.960   .     S
Cu96   O118    1.956   .     S
N121   H122    1.027   .     S
N121   C123    1.448   .     S
C123   H124    1.110   .     S
C123   H125    1.110   .     S
C123   H126    1.111   .     S
N127   H128    1.031   .     S
N127   C129    1.445   .     S
C129   H131    1.110   .     S
C129   H132    1.111   .     S
C129   H130    1.111   .     S
C133   O180    1.298   .     A
C133   C149    1.447   .     S
C133   O179    1.291   .     A
C134   C135    1.418   .     A
C134   C730    1.424   .     S
C134   C754    1.417   .     S
C135   C142    1.411   .     A
C135   C139    1.405   .     A
C136   C140    1.404   .     A
C136   C728    1.424   1_554 S
C136   C731    1.422   1_554 S
C137   C138    1.393   .     A
C137   C730    1.422   .     S
C137   C750    1.403   .     S
C138   C139    1.387   .     A
C138   H169    1.084   .     S
C139   H175    1.082   .     S
C140   H171    1.074   .     S
C140   C157    1.394   .     A
C141   C157    1.398   .     A
C141   C156    1.392   .     A
C141   H163    1.083   .     S
C142   C144    1.464   .     S
C142   C158    1.400   .     A
C143   H176    1.081   .     S
C143   C149    1.398   .     A
C143   C343    1.384   .     S
C144   O182    1.301   .     A
C144   O181    1.295   .     A
C145   H164    1.084   .     S
C145   C146    1.401   .     A
C145   C539    1.384   1_545 S
C146   C154    1.446   .     S
C146   C147    1.399   .     A
C147   H165    1.083   .     S
C147   C544    1.385   1_545 S
C148   H166    1.084   .     S
C148   C149    1.402   .     A
C148   C345    1.385   .     S
C150   N187    1.415   .     S
C150   N178    1.378   .     A
C150   C19     1.422   1_655 S
C151   N177    1.358   .     A
C151   H167    1.082   .     S
C152   N177    1.378   .     A
C152   N193    1.419   .     S
C153   N178    1.360   .     A
C153   H168    1.081   .     S
C153   C20     1.425   1_655 S
C154   O184    1.293   .     A
C154   O183    1.296   .     A
C155   O185    1.298   .     A
C155   C157    1.457   .     S
C155   O186    1.296   .     A
C156   H170    1.084   .     S
C156   C731    1.403   1_554 S
C158   H172    1.084   .     S
C158   C159    1.386   .     A
C159   H174    1.083   .     S
C159   C754    1.391   .     S
C160   H173    1.072   .     S
C160   C728    1.417   1_554 S
C160   C753    1.391   1_554 S
Cu161  O181    1.963   .     S
Cu161  Cu162   2.692   .     S
Cu161  O179    1.956   .     S
Cu161  O183    1.962   .     S
Cu161  N177    2.023   .     S
Cu161  O185    1.960   .     S
Cu162  O186    1.963   .     S
Cu162  O180    1.962   .     S
Cu162  N178    2.023   .     S
Cu162  O182    1.960   .     S
Cu162  O184    1.956   .     S
N187   H188    1.027   .     S
N187   C189    1.448   .     S
C189   H190    1.110   .     S
C189   H191    1.110   .     S
C189   H192    1.111   .     S
N193   H194    1.031   .     S
N193   C195    1.445   .     S
C195   H197    1.110   .     S
C195   H198    1.111   .     S
C195   H196    1.111   .     S
C199   O246    1.298   .     A
C199   C215    1.447   .     S
C199   O245    1.291   .     A
C200   C201    1.418   .     A
C200   C796    1.424   .     S
C200   C820    1.417   .     S
C201   C208    1.411   .     A
C201   C205    1.405   .     A
C202   C206    1.404   .     A
C202   C794    1.424   1_554 S
C202   C797    1.422   1_554 S
C203   C204    1.393   .     A
C203   C796    1.422   .     S
C203   C816    1.403   .     S
C204   C205    1.387   .     A
C204   H235    1.084   .     S
C205   H241    1.082   .     S
C206   H237    1.074   .     S
C206   C223    1.394   .     A
C207   C223    1.398   .     A
C207   C222    1.392   .     A
C207   H229    1.083   .     S
C208   C210    1.464   .     S
C208   C224    1.400   .     A
C209   H242    1.081   .     S
C209   C215    1.398   .     A
C209   C409    1.384   .     S
C210   O248    1.301   .     A
C210   O247    1.295   .     A
C211   H230    1.084   .     S
C211   C212    1.401   .     A
C212   C220    1.446   .     S
C212   C213    1.399   .     A
C213   H231    1.083   .     S
C214   H232    1.084   .     S
C214   C215    1.402   .     A
C214   C411    1.385   .     S
C216   N253    1.415   .     S
C216   N244    1.378   .     A
C216   C283    1.422   .     S
C217   N243    1.358   .     A
C217   H233    1.082   .     S
C217   C348    1.422   1_455 S
C218   N243    1.378   .     A
C218   N259    1.419   .     S
C218   C351    1.425   1_455 S
C219   N244    1.360   .     A
C219   H234    1.081   .     S
C219   C284    1.425   .     S
C220   O250    1.293   .     A
C220   O249    1.296   .     A
C221   O251    1.298   .     A
C221   C223    1.457   .     S
C221   O252    1.296   .     A
C222   H236    1.084   .     S
C222   C797    1.403   1_554 S
C224   H238    1.084   .     S
C224   C225    1.386   .     A
C225   H240    1.083   .     S
C225   C820    1.391   .     S
C226   H239    1.072   .     S
C226   C794    1.417   1_554 S
C226   C819    1.391   1_554 S
Cu227  O247    1.963   .     S
Cu227  Cu228   2.692   .     S
Cu227  O245    1.956   .     S
Cu227  O249    1.962   .     S
Cu227  N243    2.023   .     S
Cu227  O251    1.960   .     S
Cu228  O252    1.963   .     S
Cu228  O246    1.962   .     S
Cu228  N244    2.023   .     S
Cu228  O248    1.960   .     S
Cu228  O250    1.956   .     S
N253   H254    1.027   .     S
N253   C255    1.448   .     S
C255   H256    1.110   .     S
C255   H257    1.110   .     S
C255   H258    1.111   .     S
N259   H260    1.031   .     S
N259   C261    1.445   .     S
C261   H263    1.110   .     S
C261   H264    1.111   .     S
C261   H262    1.111   .     S
C265   O312    1.298   .     A
C265   C281    1.447   .     S
C265   O311    1.291   .     A
C266   C267    1.418   .     A
C266   C862    1.424   .     S
C266   C886    1.417   .     S
C267   C274    1.411   .     A
C267   C271    1.405   .     A
C268   C272    1.404   .     A
C268   C860    1.424   1_554 S
C268   C863    1.422   1_554 S
C269   C270    1.393   .     A
C269   C862    1.422   .     S
C269   C882    1.403   .     S
C270   C271    1.387   .     A
C270   H301    1.084   .     S
C271   H307    1.082   .     S
C272   H303    1.074   .     S
C272   C289    1.394   .     A
C273   C289    1.398   .     A
C273   C288    1.392   .     A
C273   H295    1.083   .     S
C274   C276    1.464   .     S
C274   C290    1.400   .     A
C275   H308    1.081   .     S
C275   C281    1.398   .     A
C275   C475    1.384   .     S
C276   O314    1.301   .     A
C276   O313    1.295   .     A
C277   H296    1.084   .     S
C277   C278    1.401   .     A
C278   C286    1.446   .     S
C278   C279    1.399   .     A
C279   H297    1.083   .     S
C280   H298    1.084   .     S
C280   C281    1.402   .     A
C280   C477    1.385   .     S
C282   N319    1.415   .     S
C282   N310    1.378   .     A
C282   C349    1.422   .     S
C283   N309    1.358   .     A
C283   H299    1.082   .     S
C284   N309    1.378   .     A
C284   N325    1.419   .     S
C285   N310    1.360   .     A
C285   H300    1.081   .     S
C285   C350    1.425   .     S
C286   O316    1.293   .     A
C286   O315    1.296   .     A
C287   O317    1.298   .     A
C287   C289    1.457   .     S
C287   O318    1.296   .     A
C288   H302    1.084   .     S
C288   C863    1.403   1_554 S
C290   H304    1.084   .     S
C290   C291    1.386   .     A
C291   H306    1.083   .     S
C291   C886    1.391   .     S
C292   H305    1.072   .     S
C292   C860    1.417   1_554 S
C292   C885    1.391   1_554 S
Cu293  O313    1.963   .     S
Cu293  Cu294   2.692   .     S
Cu293  O311    1.956   .     S
Cu293  O315    1.962   .     S
Cu293  N309    2.023   .     S
Cu293  O317    1.960   .     S
Cu294  O318    1.963   .     S
Cu294  O312    1.962   .     S
Cu294  N310    2.023   .     S
Cu294  O314    1.960   .     S
Cu294  O316    1.956   .     S
N319   H320    1.027   .     S
N319   C321    1.448   .     S
C321   H322    1.110   .     S
C321   H323    1.110   .     S
C321   H324    1.111   .     S
N325   H326    1.031   .     S
N325   C327    1.445   .     S
C327   H329    1.110   .     S
C327   H330    1.111   .     S
C327   H328    1.111   .     S
C331   O378    1.298   .     A
C331   C347    1.447   .     S
C331   O377    1.291   .     A
C332   C333    1.418   .     A
C332   C928    1.424   .     S
C332   C952    1.417   .     S
C333   C340    1.411   .     A
C333   C337    1.405   .     A
C334   C338    1.404   .     A
C334   C926    1.424   1_554 S
C334   C929    1.422   1_554 S
C335   C336    1.393   .     A
C335   C928    1.422   .     S
C335   C948    1.403   .     S
C336   C337    1.387   .     A
C336   H367    1.084   .     S
C337   H373    1.082   .     S
C338   H369    1.074   .     S
C338   C355    1.394   .     A
C339   C355    1.398   .     A
C339   C354    1.392   .     A
C339   H361    1.083   .     S
C340   C342    1.464   .     S
C340   C356    1.400   .     A
C341   H374    1.081   .     S
C341   C347    1.398   .     A
C341   C541    1.384   .     S
C342   O380    1.301   .     A
C342   O379    1.295   .     A
C343   H362    1.084   .     S
C343   C344    1.401   .     A
C344   C352    1.446   .     S
C344   C345    1.399   .     A
C345   H363    1.083   .     S
C346   H364    1.084   .     S
C346   C347    1.402   .     A
C346   C543    1.385   .     S
C348   N385    1.415   .     S
C348   N376    1.378   .     A
C348   C217    1.422   1_655 S
C349   N375    1.358   .     A
C349   H365    1.082   .     S
C350   N375    1.378   .     A
C350   N391    1.419   .     S
C351   N376    1.360   .     A
C351   H366    1.081   .     S
C351   C218    1.425   1_655 S
C352   O382    1.293   .     A
C352   O381    1.296   .     A
C353   O383    1.298   .     A
C353   C355    1.457   .     S
C353   O384    1.296   .     A
C354   H368    1.084   .     S
C354   C929    1.403   1_554 S
C356   H370    1.084   .     S
C356   C357    1.386   .     A
C357   H372    1.083   .     S
C357   C952    1.391   .     S
C358   H371    1.072   .     S
C358   C926    1.417   1_554 S
C358   C951    1.391   1_554 S
Cu359  O379    1.963   .     S
Cu359  Cu360   2.692   .     S
Cu359  O377    1.956   .     S
Cu359  O381    1.962   .     S
Cu359  N375    2.023   .     S
Cu359  O383    1.960   .     S
Cu360  O384    1.963   .     S
Cu360  O378    1.962   .     S
Cu360  N376    2.023   .     S
Cu360  O380    1.960   .     S
Cu360  O382    1.956   .     S
N385   H386    1.027   .     S
N385   C387    1.448   .     S
C387   H388    1.110   .     S
C387   H389    1.110   .     S
C387   H390    1.111   .     S
N391   H392    1.031   .     S
N391   C393    1.445   .     S
C393   H395    1.110   .     S
C393   H396    1.111   .     S
C393   H394    1.111   .     S
C397   O444    1.298   .     A
C397   C413    1.447   .     S
C397   O443    1.291   .     A
C398   C399    1.418   .     A
C398   C994    1.424   .     S
C398   C1018   1.417   .     S
C399   C406    1.411   .     A
C399   C403    1.405   .     A
C400   C404    1.404   .     A
C400   C992    1.424   1_554 S
C400   C995    1.422   1_554 S
C401   C402    1.393   .     A
C401   C994    1.422   .     S
C401   C1014   1.403   .     S
C402   C403    1.387   .     A
C402   H433    1.084   .     S
C403   H439    1.082   .     S
C404   H435    1.074   .     S
C404   C421    1.394   .     A
C405   C421    1.398   .     A
C405   C420    1.392   .     A
C405   H427    1.083   .     S
C406   C408    1.464   .     S
C406   C422    1.400   .     A
C407   H440    1.081   .     S
C407   C413    1.398   .     A
C407   C13     1.384   1_565 S
C408   O446    1.301   .     A
C408   O445    1.295   .     A
C409   H428    1.084   .     S
C409   C410    1.401   .     A
C410   C418    1.446   .     S
C410   C411    1.399   .     A
C411   H429    1.083   .     S
C412   H430    1.084   .     S
C412   C413    1.402   .     A
C412   C15     1.385   1_565 S
C414   N451    1.415   .     S
C414   N442    1.378   .     A
C414   C481    1.422   .     S
C415   N441    1.358   .     A
C415   H431    1.082   .     S
C415   C546    1.422   1_455 S
C416   N441    1.378   .     A
C416   N457    1.419   .     S
C416   C549    1.425   1_455 S
C417   N442    1.360   .     A
C417   H432    1.081   .     S
C417   C482    1.425   .     S
C418   O448    1.293   .     A
C418   O447    1.296   .     A
C419   O449    1.298   .     A
C419   C421    1.457   .     S
C419   O450    1.296   .     A
C420   H434    1.084   .     S
C420   C995    1.403   1_554 S
C422   H436    1.084   .     S
C422   C423    1.386   .     A
C423   H438    1.083   .     S
C423   C1018   1.391   .     S
C424   H437    1.072   .     S
C424   C992    1.417   1_554 S
C424   C1017   1.391   1_554 S
Cu425  O445    1.963   .     S
Cu425  Cu426   2.692   .     S
Cu425  O443    1.956   .     S
Cu425  O447    1.962   .     S
Cu425  N441    2.023   .     S
Cu425  O449    1.960   .     S
Cu426  O450    1.963   .     S
Cu426  O444    1.962   .     S
Cu426  N442    2.023   .     S
Cu426  O446    1.960   .     S
Cu426  O448    1.956   .     S
N451   H452    1.027   .     S
N451   C453    1.448   .     S
C453   H454    1.110   .     S
C453   H455    1.110   .     S
C453   H456    1.111   .     S
N457   H458    1.031   .     S
N457   C459    1.445   .     S
C459   H461    1.110   .     S
C459   H462    1.111   .     S
C459   H460    1.111   .     S
C463   O510    1.298   .     A
C463   C479    1.447   .     S
C463   O509    1.291   .     A
C464   C465    1.418   .     A
C464   C1060   1.424   .     S
C464   C1084   1.417   .     S
C465   C472    1.411   .     A
C465   C469    1.405   .     A
C466   C470    1.404   .     A
C466   C1058   1.424   1_554 S
C466   C1061   1.422   1_554 S
C467   C468    1.393   .     A
C467   C1060   1.422   .     S
C467   C1080   1.403   .     S
C468   C469    1.387   .     A
C468   H499    1.084   .     S
C469   H505    1.082   .     S
C470   H501    1.074   .     S
C470   C487    1.394   .     A
C471   C487    1.398   .     A
C471   C486    1.392   .     A
C471   H493    1.083   .     S
C472   C474    1.464   .     S
C472   C488    1.400   .     A
C473   H506    1.081   .     S
C473   C479    1.398   .     A
C473   C79     1.384   1_565 S
C474   O512    1.301   .     A
C474   O511    1.295   .     A
C475   H494    1.084   .     S
C475   C476    1.401   .     A
C476   C484    1.446   .     S
C476   C477    1.399   .     A
C477   H495    1.083   .     S
C478   H496    1.084   .     S
C478   C479    1.402   .     A
C478   C81     1.385   1_565 S
C480   N517    1.415   .     S
C480   N508    1.378   .     A
C480   C547    1.422   .     S
C481   N507    1.358   .     A
C481   H497    1.082   .     S
C482   N507    1.378   .     A
C482   N523    1.419   .     S
C483   N508    1.360   .     A
C483   H498    1.081   .     S
C483   C548    1.425   .     S
C484   O514    1.293   .     A
C484   O513    1.296   .     A
C485   O515    1.298   .     A
C485   C487    1.457   .     S
C485   O516    1.296   .     A
C486   H500    1.084   .     S
C486   C1061   1.403   1_554 S
C488   H502    1.084   .     S
C488   C489    1.386   .     A
C489   H504    1.083   .     S
C489   C1084   1.391   .     S
C490   H503    1.072   .     S
C490   C1058   1.417   1_554 S
C490   C1083   1.391   1_554 S
Cu491  O511    1.963   .     S
Cu491  Cu492   2.692   .     S
Cu491  O509    1.956   .     S
Cu491  O513    1.962   .     S
Cu491  N507    2.023   .     S
Cu491  O515    1.960   .     S
Cu492  O516    1.963   .     S
Cu492  O510    1.962   .     S
Cu492  N508    2.023   .     S
Cu492  O512    1.960   .     S
Cu492  O514    1.956   .     S
N517   H518    1.027   .     S
N517   C519    1.448   .     S
C519   H520    1.110   .     S
C519   H521    1.110   .     S
C519   H522    1.111   .     S
N523   H524    1.031   .     S
N523   C525    1.445   .     S
C525   H527    1.110   .     S
C525   H528    1.111   .     S
C525   H526    1.111   .     S
C529   O576    1.298   .     A
C529   C545    1.447   .     S
C529   O575    1.291   .     A
C530   C531    1.418   .     A
C530   C1126   1.424   .     S
C530   C1150   1.417   .     S
C531   C538    1.411   .     A
C531   C535    1.405   .     A
C532   C536    1.404   .     A
C532   C1124   1.424   1_554 S
C532   C1127   1.422   1_554 S
C533   C534    1.393   .     A
C533   C1126   1.422   .     S
C533   C1146   1.403   .     S
C534   C535    1.387   .     A
C534   H565    1.084   .     S
C535   H571    1.082   .     S
C536   H567    1.074   .     S
C536   C553    1.394   .     A
C537   C553    1.398   .     A
C537   C552    1.392   .     A
C537   H559    1.083   .     S
C538   C540    1.464   .     S
C538   C554    1.400   .     A
C539   H572    1.081   .     S
C539   C545    1.398   .     A
C539   C145    1.384   1_565 S
C540   O578    1.301   .     A
C540   O577    1.295   .     A
C541   H560    1.084   .     S
C541   C542    1.401   .     A
C542   C550    1.446   .     S
C542   C543    1.399   .     A
C543   H561    1.083   .     S
C544   H562    1.084   .     S
C544   C545    1.402   .     A
C544   C147    1.385   1_565 S
C546   N583    1.415   .     S
C546   N574    1.378   .     A
C546   C415    1.422   1_655 S
C547   N573    1.358   .     A
C547   H563    1.082   .     S
C548   N573    1.378   .     A
C548   N589    1.419   .     S
C549   N574    1.360   .     A
C549   H564    1.081   .     S
C549   C416    1.425   1_655 S
C550   O580    1.293   .     A
C550   O579    1.296   .     A
C551   O581    1.298   .     A
C551   C553    1.457   .     S
C551   O582    1.296   .     A
C552   H566    1.084   .     S
C552   C1127   1.403   1_554 S
C554   H568    1.084   .     S
C554   C555    1.386   .     A
C555   H570    1.083   .     S
C555   C1150   1.391   .     S
C556   H569    1.072   .     S
C556   C1124   1.417   1_554 S
C556   C1149   1.391   1_554 S
Cu557  O577    1.963   .     S
Cu557  Cu558   2.692   .     S
Cu557  O575    1.956   .     S
Cu557  O579    1.962   .     S
Cu557  N573    2.023   .     S
Cu557  O581    1.960   .     S
Cu558  O582    1.963   .     S
Cu558  O576    1.962   .     S
Cu558  N574    2.023   .     S
Cu558  O578    1.960   .     S
Cu558  O580    1.956   .     S
N583   H584    1.027   .     S
N583   C585    1.448   .     S
C585   H586    1.110   .     S
C585   H587    1.110   .     S
C585   H588    1.111   .     S
N589   H590    1.031   .     S
N589   C591    1.445   .     S
C591   H593    1.110   .     S
C591   H594    1.111   .     S
C591   H592    1.111   .     S
C595   O642    1.298   .     A
C595   C611    1.447   .     S
C595   O641    1.291   .     A
C596   C597    1.418   .     A
C596   C4      1.424   1_556 S
C596   C28     1.417   1_556 S
C597   C604    1.411   .     A
C597   C601    1.405   .     A
C598   C602    1.404   .     A
C599   C600    1.393   .     A
C599   C4      1.422   1_556 S
C599   C24     1.403   1_556 S
C600   C601    1.387   .     A
C600   H631    1.084   .     S
C601   H637    1.082   .     S
C602   H633    1.074   .     S
C602   C619    1.394   .     A
C603   C619    1.398   .     A
C603   C618    1.392   .     A
C603   H625    1.083   .     S
C604   C606    1.464   .     S
C604   C620    1.400   .     A
C605   H638    1.081   .     S
C605   C611    1.398   .     A
C605   C805    1.384   .     S
C606   O644    1.301   .     A
C606   O643    1.295   .     A
C607   H626    1.084   .     S
C607   C608    1.401   .     A
C607   C1001   1.384   1_545 S
C608   C616    1.446   .     S
C608   C609    1.399   .     A
C609   H627    1.083   .     S
C609   C1006   1.385   1_545 S
C610   H628    1.084   .     S
C610   C611    1.402   .     A
C610   C807    1.385   .     S
C612   N649    1.415   .     S
C612   N640    1.378   .     A
C612   C679    1.422   .     S
C613   N639    1.358   .     A
C613   H629    1.082   .     S
C613   C744    1.422   1_455 S
C614   N639    1.378   .     A
C614   N655    1.419   .     S
C614   C747    1.425   1_455 S
C615   N640    1.360   .     A
C615   H630    1.081   .     S
C615   C680    1.425   .     S
C616   O646    1.293   .     A
C616   O645    1.296   .     A
C617   O647    1.298   .     A
C617   C619    1.457   .     S
C617   O648    1.296   .     A
C618   H632    1.084   .     S
C620   H634    1.084   .     S
C620   C621    1.386   .     A
C621   H636    1.083   .     S
C621   C28     1.391   1_556 S
C622   H635    1.072   .     S
Cu623  O643    1.963   .     S
Cu623  Cu624   2.692   .     S
Cu623  O641    1.956   .     S
Cu623  O645    1.962   .     S
Cu623  N639    2.023   .     S
Cu623  O647    1.960   .     S
Cu624  O648    1.963   .     S
Cu624  O642    1.962   .     S
Cu624  N640    2.023   .     S
Cu624  O644    1.960   .     S
Cu624  O646    1.956   .     S
N649   H650    1.027   .     S
N649   C651    1.448   .     S
C651   H652    1.110   .     S
C651   H653    1.110   .     S
C651   H654    1.111   .     S
N655   H656    1.031   .     S
N655   C657    1.445   .     S
C657   H659    1.110   .     S
C657   H660    1.111   .     S
C657   H658    1.111   .     S
C661   O708    1.298   .     A
C661   C677    1.447   .     S
C661   O707    1.291   .     A
C662   C663    1.418   .     A
C662   C70     1.424   1_556 S
C662   C94     1.417   1_556 S
C663   C670    1.411   .     A
C663   C667    1.405   .     A
C664   C668    1.404   .     A
C665   C666    1.393   .     A
C665   C70     1.422   1_556 S
C665   C90     1.403   1_556 S
C666   C667    1.387   .     A
C666   H697    1.084   .     S
C667   H703    1.082   .     S
C668   H699    1.074   .     S
C668   C685    1.394   .     A
C669   C685    1.398   .     A
C669   C684    1.392   .     A
C669   H691    1.083   .     S
C670   C672    1.464   .     S
C670   C686    1.400   .     A
C671   H704    1.081   .     S
C671   C677    1.398   .     A
C671   C871    1.384   .     S
C672   O710    1.301   .     A
C672   O709    1.295   .     A
C673   H692    1.084   .     S
C673   C674    1.401   .     A
C673   C1067   1.384   1_545 S
C674   C682    1.446   .     S
C674   C675    1.399   .     A
C675   H693    1.083   .     S
C675   C1072   1.385   1_545 S
C676   H694    1.084   .     S
C676   C677    1.402   .     A
C676   C873    1.385   .     S
C678   N715    1.415   .     S
C678   N706    1.378   .     A
C678   C745    1.422   .     S
C679   N705    1.358   .     A
C679   H695    1.082   .     S
C680   N705    1.378   .     A
C680   N721    1.419   .     S
C681   N706    1.360   .     A
C681   H696    1.081   .     S
C681   C746    1.425   .     S
C682   O712    1.293   .     A
C682   O711    1.296   .     A
C683   O713    1.298   .     A
C683   C685    1.457   .     S
C683   O714    1.296   .     A
C684   H698    1.084   .     S
C686   H700    1.084   .     S
C686   C687    1.386   .     A
C687   H702    1.083   .     S
C687   C94     1.391   1_556 S
C688   H701    1.072   .     S
Cu689  O709    1.963   .     S
Cu689  Cu690   2.692   .     S
Cu689  O707    1.956   .     S
Cu689  O711    1.962   .     S
Cu689  N705    2.023   .     S
Cu689  O713    1.960   .     S
Cu690  O714    1.963   .     S
Cu690  O708    1.962   .     S
Cu690  N706    2.023   .     S
Cu690  O710    1.960   .     S
Cu690  O712    1.956   .     S
N715   H716    1.027   .     S
N715   C717    1.448   .     S
C717   H718    1.110   .     S
C717   H719    1.110   .     S
C717   H720    1.111   .     S
N721   H722    1.031   .     S
N721   C723    1.445   .     S
C723   H725    1.110   .     S
C723   H726    1.111   .     S
C723   H724    1.111   .     S
C727   O774    1.298   .     A
C727   C743    1.447   .     S
C727   O773    1.291   .     A
C728   C729    1.418   .     A
C728   C136    1.424   1_556 S
C728   C160    1.417   1_556 S
C729   C736    1.411   .     A
C729   C733    1.405   .     A
C730   C734    1.404   .     A
C731   C732    1.393   .     A
C731   C136    1.422   1_556 S
C731   C156    1.403   1_556 S
C732   C733    1.387   .     A
C732   H763    1.084   .     S
C733   H769    1.082   .     S
C734   H765    1.074   .     S
C734   C751    1.394   .     A
C735   C751    1.398   .     A
C735   C750    1.392   .     A
C735   H757    1.083   .     S
C736   C738    1.464   .     S
C736   C752    1.400   .     A
C737   H770    1.081   .     S
C737   C743    1.398   .     A
C737   C937    1.384   .     S
C738   O776    1.301   .     A
C738   O775    1.295   .     A
C739   H758    1.084   .     S
C739   C740    1.401   .     A
C739   C1133   1.384   1_545 S
C740   C748    1.446   .     S
C740   C741    1.399   .     A
C741   H759    1.083   .     S
C741   C1138   1.385   1_545 S
C742   H760    1.084   .     S
C742   C743    1.402   .     A
C742   C939    1.385   .     S
C744   N781    1.415   .     S
C744   N772    1.378   .     A
C744   C613    1.422   1_655 S
C745   N771    1.358   .     A
C745   H761    1.082   .     S
C746   N771    1.378   .     A
C746   N787    1.419   .     S
C747   N772    1.360   .     A
C747   H762    1.081   .     S
C747   C614    1.425   1_655 S
C748   O778    1.293   .     A
C748   O777    1.296   .     A
C749   O779    1.298   .     A
C749   C751    1.457   .     S
C749   O780    1.296   .     A
C750   H764    1.084   .     S
C752   H766    1.084   .     S
C752   C753    1.386   .     A
C753   H768    1.083   .     S
C753   C160    1.391   1_556 S
C754   H767    1.072   .     S
Cu755  O775    1.963   .     S
Cu755  Cu756   2.692   .     S
Cu755  O773    1.956   .     S
Cu755  O777    1.962   .     S
Cu755  N771    2.023   .     S
Cu755  O779    1.960   .     S
Cu756  O780    1.963   .     S
Cu756  O774    1.962   .     S
Cu756  N772    2.023   .     S
Cu756  O776    1.960   .     S
Cu756  O778    1.956   .     S
N781   H782    1.027   .     S
N781   C783    1.448   .     S
C783   H784    1.110   .     S
C783   H785    1.110   .     S
C783   H786    1.111   .     S
N787   H788    1.031   .     S
N787   C789    1.445   .     S
C789   H791    1.110   .     S
C789   H792    1.111   .     S
C789   H790    1.111   .     S
C793   O840    1.298   .     A
C793   C809    1.447   .     S
C793   O839    1.291   .     A
C794   C795    1.418   .     A
C794   C202    1.424   1_556 S
C794   C226    1.417   1_556 S
C795   C802    1.411   .     A
C795   C799    1.405   .     A
C796   C800    1.404   .     A
C797   C798    1.393   .     A
C797   C202    1.422   1_556 S
C797   C222    1.403   1_556 S
C798   C799    1.387   .     A
C798   H829    1.084   .     S
C799   H835    1.082   .     S
C800   H831    1.074   .     S
C800   C817    1.394   .     A
C801   C817    1.398   .     A
C801   C816    1.392   .     A
C801   H823    1.083   .     S
C802   C804    1.464   .     S
C802   C818    1.400   .     A
C803   H836    1.081   .     S
C803   C809    1.398   .     A
C803   C1003   1.384   .     S
C804   O842    1.301   .     A
C804   O841    1.295   .     A
C805   H824    1.084   .     S
C805   C806    1.401   .     A
C806   C814    1.446   .     S
C806   C807    1.399   .     A
C807   H825    1.083   .     S
C808   H826    1.084   .     S
C808   C809    1.402   .     A
C808   C1005   1.385   .     S
C810   N847    1.415   .     S
C810   N838    1.378   .     A
C810   C877    1.422   .     S
C811   N837    1.358   .     A
C811   H827    1.082   .     S
C811   C942    1.422   1_455 S
C812   N837    1.378   .     A
C812   N853    1.419   .     S
C812   C945    1.425   1_455 S
C813   N838    1.360   .     A
C813   H828    1.081   .     S
C813   C878    1.425   .     S
C814   O844    1.293   .     A
C814   O843    1.296   .     A
C815   O845    1.298   .     A
C815   C817    1.457   .     S
C815   O846    1.296   .     A
C816   H830    1.084   .     S
C818   H832    1.084   .     S
C818   C819    1.386   .     A
C819   H834    1.083   .     S
C819   C226    1.391   1_556 S
C820   H833    1.072   .     S
Cu821  O841    1.963   .     S
Cu821  Cu822   2.692   .     S
Cu821  O839    1.956   .     S
Cu821  O843    1.962   .     S
Cu821  N837    2.023   .     S
Cu821  O845    1.960   .     S
Cu822  O846    1.963   .     S
Cu822  O840    1.962   .     S
Cu822  N838    2.023   .     S
Cu822  O842    1.960   .     S
Cu822  O844    1.956   .     S
N847   H848    1.027   .     S
N847   C849    1.448   .     S
C849   H850    1.110   .     S
C849   H851    1.110   .     S
C849   H852    1.111   .     S
N853   H854    1.031   .     S
N853   C855    1.445   .     S
C855   H857    1.110   .     S
C855   H858    1.111   .     S
C855   H856    1.111   .     S
C859   O906    1.298   .     A
C859   C875    1.447   .     S
C859   O905    1.291   .     A
C860   C861    1.418   .     A
C860   C268    1.424   1_556 S
C860   C292    1.417   1_556 S
C861   C868    1.411   .     A
C861   C865    1.405   .     A
C862   C866    1.404   .     A
C863   C864    1.393   .     A
C863   C268    1.422   1_556 S
C863   C288    1.403   1_556 S
C864   C865    1.387   .     A
C864   H895    1.084   .     S
C865   H901    1.082   .     S
C866   H897    1.074   .     S
C866   C883    1.394   .     A
C867   C883    1.398   .     A
C867   C882    1.392   .     A
C867   H889    1.083   .     S
C868   C870    1.464   .     S
C868   C884    1.400   .     A
C869   H902    1.081   .     S
C869   C875    1.398   .     A
C869   C1069   1.384   .     S
C870   O908    1.301   .     A
C870   O907    1.295   .     A
C871   H890    1.084   .     S
C871   C872    1.401   .     A
C872   C880    1.446   .     S
C872   C873    1.399   .     A
C873   H891    1.083   .     S
C874   H892    1.084   .     S
C874   C875    1.402   .     A
C874   C1071   1.385   .     S
C876   N913    1.415   .     S
C876   N904    1.378   .     A
C876   C943    1.422   .     S
C877   N903    1.358   .     A
C877   H893    1.082   .     S
C878   N903    1.378   .     A
C878   N919    1.419   .     S
C879   N904    1.360   .     A
C879   H894    1.081   .     S
C879   C944    1.425   .     S
C880   O910    1.293   .     A
C880   O909    1.296   .     A
C881   O911    1.298   .     A
C881   C883    1.457   .     S
C881   O912    1.296   .     A
C882   H896    1.084   .     S
C884   H898    1.084   .     S
C884   C885    1.386   .     A
C885   H900    1.083   .     S
C885   C292    1.391   1_556 S
C886   H899    1.072   .     S
Cu887  O907    1.963   .     S
Cu887  Cu888   2.692   .     S
Cu887  O905    1.956   .     S
Cu887  O909    1.962   .     S
Cu887  N903    2.023   .     S
Cu887  O911    1.960   .     S
Cu888  O912    1.963   .     S
Cu888  O906    1.962   .     S
Cu888  N904    2.023   .     S
Cu888  O908    1.960   .     S
Cu888  O910    1.956   .     S
N913   H914    1.027   .     S
N913   C915    1.448   .     S
C915   H916    1.110   .     S
C915   H917    1.110   .     S
C915   H918    1.111   .     S
N919   H920    1.031   .     S
N919   C921    1.445   .     S
C921   H923    1.110   .     S
C921   H924    1.111   .     S
C921   H922    1.111   .     S
C925   O972    1.298   .     A
C925   C941    1.447   .     S
C925   O971    1.291   .     A
C926   C927    1.418   .     A
C926   C334    1.424   1_556 S
C926   C358    1.417   1_556 S
C927   C934    1.411   .     A
C927   C931    1.405   .     A
C928   C932    1.404   .     A
C929   C930    1.393   .     A
C929   C334    1.422   1_556 S
C929   C354    1.403   1_556 S
C930   C931    1.387   .     A
C930   H961    1.084   .     S
C931   H967    1.082   .     S
C932   H963    1.074   .     S
C932   C949    1.394   .     A
C933   C949    1.398   .     A
C933   C948    1.392   .     A
C933   H955    1.083   .     S
C934   C936    1.464   .     S
C934   C950    1.400   .     A
C935   H968    1.081   .     S
C935   C941    1.398   .     A
C935   C1135   1.384   .     S
C936   O974    1.301   .     A
C936   O973    1.295   .     A
C937   H956    1.084   .     S
C937   C938    1.401   .     A
C938   C946    1.446   .     S
C938   C939    1.399   .     A
C939   H957    1.083   .     S
C940   H958    1.084   .     S
C940   C941    1.402   .     A
C940   C1137   1.385   .     S
C942   N979    1.415   .     S
C942   N970    1.378   .     A
C942   C811    1.422   1_655 S
C943   N969    1.358   .     A
C943   H959    1.082   .     S
C944   N969    1.378   .     A
C944   N985    1.419   .     S
C945   N970    1.360   .     A
C945   H960    1.081   .     S
C945   C812    1.425   1_655 S
C946   O976    1.293   .     A
C946   O975    1.296   .     A
C947   O977    1.298   .     A
C947   C949    1.457   .     S
C947   O978    1.296   .     A
C948   H962    1.084   .     S
C950   H964    1.084   .     S
C950   C951    1.386   .     A
C951   H966    1.083   .     S
C951   C358    1.391   1_556 S
C952   H965    1.072   .     S
Cu953  O973    1.963   .     S
Cu953  Cu954   2.692   .     S
Cu953  O971    1.956   .     S
Cu953  O975    1.962   .     S
Cu953  N969    2.023   .     S
Cu953  O977    1.960   .     S
Cu954  O978    1.963   .     S
Cu954  O972    1.962   .     S
Cu954  N970    2.023   .     S
Cu954  O974    1.960   .     S
Cu954  O976    1.956   .     S
N979   H980    1.027   .     S
N979   C981    1.448   .     S
C981   H982    1.110   .     S
C981   H983    1.110   .     S
C981   H984    1.111   .     S
N985   H986    1.031   .     S
N985   C987    1.445   .     S
C987   H989    1.110   .     S
C987   H990    1.111   .     S
C987   H988    1.111   .     S
C991   O1038   1.298   .     A
C991   C1007   1.447   .     S
C991   O1037   1.291   .     A
C992   C993    1.418   .     A
C992   C400    1.424   1_556 S
C992   C424    1.417   1_556 S
C993   C1000   1.411   .     A
C993   C997    1.405   .     A
C994   C998    1.404   .     A
C995   C996    1.393   .     A
C995   C400    1.422   1_556 S
C995   C420    1.403   1_556 S
C996   C997    1.387   .     A
C996   H1027   1.084   .     S
C997   H1033   1.082   .     S
C998   H1029   1.074   .     S
C998   C1015   1.394   .     A
C999   C1015   1.398   .     A
C999   C1014   1.392   .     A
C999   H1021   1.083   .     S
C1000  C1002   1.464   .     S
C1000  C1016   1.400   .     A
C1001  H1034   1.081   .     S
C1001  C1007   1.398   .     A
C1001  C607    1.384   1_565 S
C1002  O1040   1.301   .     A
C1002  O1039   1.295   .     A
C1003  H1022   1.084   .     S
C1003  C1004   1.401   .     A
C1004  C1012   1.446   .     S
C1004  C1005   1.399   .     A
C1005  H1023   1.083   .     S
C1006  H1024   1.084   .     S
C1006  C1007   1.402   .     A
C1006  C609    1.385   1_565 S
C1008  N1045   1.415   .     S
C1008  N1036   1.378   .     A
C1008  C1075   1.422   .     S
C1009  N1035   1.358   .     A
C1009  H1025   1.082   .     S
C1009  C1140   1.422   1_455 S
C1010  N1035   1.378   .     A
C1010  N1051   1.419   .     S
C1010  C1143   1.425   1_455 S
C1011  N1036   1.360   .     A
C1011  H1026   1.081   .     S
C1011  C1076   1.425   .     S
C1012  O1042   1.293   .     A
C1012  O1041   1.296   .     A
C1013  O1043   1.298   .     A
C1013  C1015   1.457   .     S
C1013  O1044   1.296   .     A
C1014  H1028   1.084   .     S
C1016  H1030   1.084   .     S
C1016  C1017   1.386   .     A
C1017  H1032   1.083   .     S
C1017  C424    1.391   1_556 S
C1018  H1031   1.072   .     S
Cu1019 O1039   1.963   .     S
Cu1019 Cu1020  2.692   .     S
Cu1019 O1037   1.956   .     S
Cu1019 O1041   1.962   .     S
Cu1019 N1035   2.023   .     S
Cu1019 O1043   1.960   .     S
Cu1020 O1044   1.963   .     S
Cu1020 O1038   1.962   .     S
Cu1020 N1036   2.023   .     S
Cu1020 O1040   1.960   .     S
Cu1020 O1042   1.956   .     S
N1045  H1046   1.027   .     S
N1045  C1047   1.448   .     S
C1047  H1048   1.110   .     S
C1047  H1049   1.110   .     S
C1047  H1050   1.111   .     S
N1051  H1052   1.031   .     S
N1051  C1053   1.445   .     S
C1053  H1055   1.110   .     S
C1053  H1056   1.111   .     S
C1053  H1054   1.111   .     S
C1057  O1104   1.298   .     A
C1057  C1073   1.447   .     S
C1057  O1103   1.291   .     A
C1058  C1059   1.418   .     A
C1058  C466    1.424   1_556 S
C1058  C490    1.417   1_556 S
C1059  C1066   1.411   .     A
C1059  C1063   1.405   .     A
C1060  C1064   1.404   .     A
C1061  C1062   1.393   .     A
C1061  C466    1.422   1_556 S
C1061  C486    1.403   1_556 S
C1062  C1063   1.387   .     A
C1062  H1093   1.084   .     S
C1063  H1099   1.082   .     S
C1064  H1095   1.074   .     S
C1064  C1081   1.394   .     A
C1065  C1081   1.398   .     A
C1065  C1080   1.392   .     A
C1065  H1087   1.083   .     S
C1066  C1068   1.464   .     S
C1066  C1082   1.400   .     A
C1067  H1100   1.081   .     S
C1067  C1073   1.398   .     A
C1067  C673    1.384   1_565 S
C1068  O1106   1.301   .     A
C1068  O1105   1.295   .     A
C1069  H1088   1.084   .     S
C1069  C1070   1.401   .     A
C1070  C1078   1.446   .     S
C1070  C1071   1.399   .     A
C1071  H1089   1.083   .     S
C1072  H1090   1.084   .     S
C1072  C1073   1.402   .     A
C1072  C675    1.385   1_565 S
C1074  N1111   1.415   .     S
C1074  N1102   1.378   .     A
C1074  C1141   1.422   .     S
C1075  N1101   1.358   .     A
C1075  H1091   1.082   .     S
C1076  N1101   1.378   .     A
C1076  N1117   1.419   .     S
C1077  N1102   1.360   .     A
C1077  H1092   1.081   .     S
C1077  C1142   1.425   .     S
C1078  O1108   1.293   .     A
C1078  O1107   1.296   .     A
C1079  O1109   1.298   .     A
C1079  C1081   1.457   .     S
C1079  O1110   1.296   .     A
C1080  H1094   1.084   .     S
C1082  H1096   1.084   .     S
C1082  C1083   1.386   .     A
C1083  H1098   1.083   .     S
C1083  C490    1.391   1_556 S
C1084  H1097   1.072   .     S
Cu1085 O1105   1.963   .     S
Cu1085 Cu1086  2.692   .     S
Cu1085 O1103   1.956   .     S
Cu1085 O1107   1.962   .     S
Cu1085 N1101   2.023   .     S
Cu1085 O1109   1.960   .     S
Cu1086 O1110   1.963   .     S
Cu1086 O1104   1.962   .     S
Cu1086 N1102   2.023   .     S
Cu1086 O1106   1.960   .     S
Cu1086 O1108   1.956   .     S
N1111  H1112   1.027   .     S
N1111  C1113   1.448   .     S
C1113  H1114   1.110   .     S
C1113  H1115   1.110   .     S
C1113  H1116   1.111   .     S
N1117  H1118   1.031   .     S
N1117  C1119   1.445   .     S
C1119  H1121   1.110   .     S
C1119  H1122   1.111   .     S
C1119  H1120   1.111   .     S
C1123  O1170   1.298   .     A
C1123  C1139   1.447   .     S
C1123  O1169   1.291   .     A
C1124  C1125   1.418   .     A
C1124  C532    1.424   1_556 S
C1124  C556    1.417   1_556 S
C1125  C1132   1.411   .     A
C1125  C1129   1.405   .     A
C1126  C1130   1.404   .     A
C1127  C1128   1.393   .     A
C1127  C532    1.422   1_556 S
C1127  C552    1.403   1_556 S
C1128  C1129   1.387   .     A
C1128  H1159   1.084   .     S
C1129  H1165   1.082   .     S
C1130  H1161   1.074   .     S
C1130  C1147   1.394   .     A
C1131  C1147   1.398   .     A
C1131  C1146   1.392   .     A
C1131  H1153   1.083   .     S
C1132  C1134   1.464   .     S
C1132  C1148   1.400   .     A
C1133  H1166   1.081   .     S
C1133  C1139   1.398   .     A
C1133  C739    1.384   1_565 S
C1134  O1172   1.301   .     A
C1134  O1171   1.295   .     A
C1135  H1154   1.084   .     S
C1135  C1136   1.401   .     A
C1136  C1144   1.446   .     S
C1136  C1137   1.399   .     A
C1137  H1155   1.083   .     S
C1138  H1156   1.084   .     S
C1138  C1139   1.402   .     A
C1138  C741    1.385   1_565 S
C1140  N1177   1.415   .     S
C1140  N1168   1.378   .     A
C1140  C1009   1.422   1_655 S
C1141  N1167   1.358   .     A
C1141  H1157   1.082   .     S
C1142  N1167   1.378   .     A
C1142  N1183   1.419   .     S
C1143  N1168   1.360   .     A
C1143  H1158   1.081   .     S
C1143  C1010   1.425   1_655 S
C1144  O1174   1.293   .     A
C1144  O1173   1.296   .     A
C1145  O1175   1.298   .     A
C1145  C1147   1.457   .     S
C1145  O1176   1.296   .     A
C1146  H1160   1.084   .     S
C1148  H1162   1.084   .     S
C1148  C1149   1.386   .     A
C1149  H1164   1.083   .     S
C1149  C556    1.391   1_556 S
C1150  H1163   1.072   .     S
Cu1151 O1171   1.963   .     S
Cu1151 Cu1152  2.692   .     S
Cu1151 O1169   1.956   .     S
Cu1151 O1173   1.962   .     S
Cu1151 N1167   2.023   .     S
Cu1151 O1175   1.960   .     S
Cu1152 O1176   1.963   .     S
Cu1152 O1170   1.962   .     S
Cu1152 N1168   2.023   .     S
Cu1152 O1172   1.960   .     S
Cu1152 O1174   1.956   .     S
N1177  H1178   1.027   .     S
N1177  C1179   1.448   .     S
C1179  H1180   1.110   .     S
C1179  H1181   1.110   .     S
C1179  H1182   1.111   .     S
N1183  H1184   1.031   .     S
N1183  C1185   1.445   .     S
C1185  H1187   1.110   .     S
C1185  H1188   1.111   .     S
C1185  H1186   1.111   .     S
